VeraChem MOL file


 16 15  0  0  0  0  0  0  0  0999 V2000     
   20.0185   19.3907   24.6749 C   0  0  0  0  0  0  0  0  0  0  0  0
   20.1324   20.6008   24.6514 O   0  5  0  0  0  0  0  0  0  0  0  0
   19.9569   18.7513   25.7058 O   0  0  0  0  0  0  0  0  0  0  0  0
   19.9470   18.6083   23.3625 C   0  0  0  0  0  0  0  0  0  0  0  0
   19.0082   18.0419   23.3698 H   0  0  0  0  0  0  0  0  0  0  0  0
   20.7632   17.8762   23.3730 H   0  0  0  0  0  0  0  0  0  0  0  0
   20.0304   19.4669   22.0724 C   0  0  0  0  0  0  0  0  0  0  0  0
   19.2136   20.2019   22.0701 H   0  0  0  0  0  0  0  0  0  0  0  0
   20.9704   20.0360   22.0733 H   0  0  0  0  0  0  0  0  0  0  0  0
   19.9507   18.5984   20.7994 C   0  0  0  0  0  0  0  0  0  0  0  0
   19.0103   18.0300   20.7964 H   0  0  0  0  0  0  0  0  0  0  0  0
   20.7681   17.8640   20.7996 H   0  0  0  0  0  0  0  0  0  0  0  0
   20.0341   19.4567   19.5216 C   0  0  0  0  0  0  0  0  0  0  0  0
   19.2092   20.1800   19.4799 H   0  0  0  0  0  0  0  0  0  0  0  0
   19.9760   18.8242   18.6263 H   0  0  0  0  0  0  0  0  0  0  0  0
   20.9800   20.0128   19.4831 H   0  0  0  0  0  0  0  0  0  0  0  0
  1  2  1  0  0  0  0
  1  3  2  0  0  0  0
  1  4  1  0  0  0  0
  4  5  1  0  0  0  0
  4  6  1  0  0  0  0
  4  7  1  0  0  0  0
  7  8  1  0  0  0  0
  7  9  1  0  0  0  0
  7 10  1  0  0  0  0
 10 11  1  0  0  0  0
 10 12  1  0  0  0  0
 10 13  1  0  0  0  0
 13 14  1  0  0  0  0
 13 15  1  0  0  0  0
 13 16  1  0  0  0  0
M  END
> <VConfSearch Rank>
1

> <Conf_Id>
0

> <Delta U+W>
0.000

> <U+W>
-56.904

> <U>
7.329

> <W>
-64.233

> <W(PB)>
-66.148

> <W(SA)>
1.915

> <Valence>
6.755

> <Coulomb>
-0.421

> <VdW>
0.995

> <VdW6>
-4.495

> <VdW12>
5.490

> <Bond>
0.106

> <Angle>
2.715

> <Pdih>
3.934

> <Idih>
0.000

> <Tether>
0.000

$$$$
VeraChem MOL file


 16 15  0  0  0  0  0  0  0  0999 V2000     
   20.0700   19.4328   24.6566 C   0  0  0  0  0  0  0  0  0  0  0  0
   20.4660   20.5153   25.0405 O   0  5  0  0  0  0  0  0  0  0  0  0
   19.2489   18.7668   25.2551 O   0  0  0  0  0  0  0  0  0  0  0  0
   20.6200   18.8887   23.3429 C   0  0  0  0  0  0  0  0  0  0  0  0
   20.6514   17.7947   23.4133 H   0  0  0  0  0  0  0  0  0  0  0  0
   21.6548   19.2363   23.2364 H   0  0  0  0  0  0  0  0  0  0  0  0
   19.7827   19.3207   22.1139 C   0  0  0  0  0  0  0  0  0  0  0  0
   18.7470   18.9764   22.2411 H   0  0  0  0  0  0  0  0  0  0  0  0
   19.7503   20.4180   22.0642 H   0  0  0  0  0  0  0  0  0  0  0  0
   20.3603   18.7574   20.7988 C   0  0  0  0  0  0  0  0  0  0  0  0
   20.3923   17.6600   20.8478 H   0  0  0  0  0  0  0  0  0  0  0  0
   21.3959   19.1020   20.6709 H   0  0  0  0  0  0  0  0  0  0  0  0
   19.5221   19.1913   19.5802 C   0  0  0  0  0  0  0  0  0  0  0  0
   19.4991   20.2852   19.4886 H   0  0  0  0  0  0  0  0  0  0  0  0
   18.4880   18.8325   19.6669 H   0  0  0  0  0  0  0  0  0  0  0  0
   19.9461   18.7825   18.6537 H   0  0  0  0  0  0  0  0  0  0  0  0
  1  2  1  0  0  0  0
  1  3  2  0  0  0  0
  1  4  1  0  0  0  0
  4  5  1  0  0  0  0
  4  6  1  0  0  0  0
  4  7  1  0  0  0  0
  7  8  1  0  0  0  0
  7  9  1  0  0  0  0
  7 10  1  0  0  0  0
 10 11  1  0  0  0  0
 10 12  1  0  0  0  0
 10 13  1  0  0  0  0
 13 14  1  0  0  0  0
 13 15  1  0  0  0  0
 13 16  1  0  0  0  0
M  END
> <VConfSearch Rank>
2

> <Conf_Id>
22

> <Delta U+W>
-1.185

> <U+W>
-58.089

> <U>
6.298

> <W>
-64.387

> <W(PB)>
-66.329

> <W(SA)>
1.942

> <Valence>
6.246

> <Coulomb>
-0.408

> <VdW>
0.460

> <VdW6>
-4.207

> <VdW12>
4.667

> <Bond>
0.072

> <Angle>
2.246

> <Pdih>
3.928

> <Idih>
0.001

> <Tether>
0.000

$$$$
VeraChem MOL file


 16 15  0  0  0  0  0  0  0  0999 V2000     
   19.8996   19.4204   24.5618 C   0  0  0  0  0  0  0  0  0  0  0  0
   20.0245   20.5005   25.1037 O   0  5  0  0  0  0  0  0  0  0  0  0
   20.0993   18.3609   25.1219 O   0  0  0  0  0  0  0  0  0  0  0  0
   19.4896   19.3941   23.0935 C   0  0  0  0  0  0  0  0  0  0  0  0
   18.8366   20.2551   22.9069 H   0  0  0  0  0  0  0  0  0  0  0  0
   18.8913   18.4906   22.9295 H   0  0  0  0  0  0  0  0  0  0  0  0
   20.7041   19.4259   22.1296 C   0  0  0  0  0  0  0  0  0  0  0  0
   21.3290   20.2951   22.3774 H   0  0  0  0  0  0  0  0  0  0  0  0
   21.3280   18.5370   22.2966 H   0  0  0  0  0  0  0  0  0  0  0  0
   20.3042   19.5106   20.6385 C   0  0  0  0  0  0  0  0  0  0  0  0
   21.2138   19.6392   20.0357 H   0  0  0  0  0  0  0  0  0  0  0  0
   19.6900   20.4059   20.4690 H   0  0  0  0  0  0  0  0  0  0  0  0
   19.5487   18.2606   20.1390 C   0  0  0  0  0  0  0  0  0  0  0  0
   18.5761   18.1549   20.6357 H   0  0  0  0  0  0  0  0  0  0  0  0
   20.1316   17.3490   20.3245 H   0  0  0  0  0  0  0  0  0  0  0  0
   19.3643   18.3298   19.0591 H   0  0  0  0  0  0  0  0  0  0  0  0
  1  2  1  0  0  0  0
  1  3  2  0  0  0  0
  1  4  1  0  0  0  0
  4  5  1  0  0  0  0
  4  6  1  0  0  0  0
  4  7  1  0  0  0  0
  7  8  1  0  0  0  0
  7  9  1  0  0  0  0
  7 10  1  0  0  0  0
 10 11  1  0  0  0  0
 10 12  1  0  0  0  0
 10 13  1  0  0  0  0
 13 14  1  0  0  0  0
 13 15  1  0  0  0  0
 13 16  1  0  0  0  0
M  END
> <VConfSearch Rank>
3

> <Conf_Id>
36

> <Delta U+W>
-0.427

> <U+W>
-57.331

> <U>
7.263

> <W>
-64.594

> <W(PB)>
-66.513

> <W(SA)>
1.920

> <Valence>
6.734

> <Coulomb>
-0.068

> <VdW>
0.598

> <VdW6>
-4.819

> <VdW12>
5.417

> <Bond>
0.107

> <Angle>
2.469

> <Pdih>
4.157

> <Idih>
0.001

> <Tether>
0.000

$$$$
VeraChem MOL file


 16 15  0  0  0  0  0  0  0  0999 V2000     
   19.8992   19.5136   24.5500 C   0  0  0  0  0  0  0  0  0  0  0  0
   20.0851   20.6813   24.8291 O   0  5  0  0  0  0  0  0  0  0  0  0
   20.0365   18.6035   25.3431 O   0  0  0  0  0  0  0  0  0  0  0  0
   19.4911   19.1693   23.1219 C   0  0  0  0  0  0  0  0  0  0  0  0
   18.8818   19.9963   22.7397 H   0  0  0  0  0  0  0  0  0  0  0  0
   18.8491   18.2809   23.1560 H   0  0  0  0  0  0  0  0  0  0  0  0
   20.7072   18.9142   22.1941 C   0  0  0  0  0  0  0  0  0  0  0  0
   21.3197   19.8245   22.1340 H   0  0  0  0  0  0  0  0  0  0  0  0
   21.3426   18.1417   22.6489 H   0  0  0  0  0  0  0  0  0  0  0  0
   20.3106   18.4569   20.7714 C   0  0  0  0  0  0  0  0  0  0  0  0
   19.7079   17.5400   20.8307 H   0  0  0  0  0  0  0  0  0  0  0  0
   21.2226   18.1940   20.2179 H   0  0  0  0  0  0  0  0  0  0  0  0
   19.5402   19.5342   19.9784 C   0  0  0  0  0  0  0  0  0  0  0  0
   18.5657   19.7479   20.4350 H   0  0  0  0  0  0  0  0  0  0  0  0
   19.3582   19.1965   18.9499 H   0  0  0  0  0  0  0  0  0  0  0  0
   20.1115   20.4704   19.9305 H   0  0  0  0  0  0  0  0  0  0  0  0
  1  2  1  0  0  0  0
  1  3  2  0  0  0  0
  1  4  1  0  0  0  0
  4  5  1  0  0  0  0
  4  6  1  0  0  0  0
  4  7  1  0  0  0  0
  7  8  1  0  0  0  0
  7  9  1  0  0  0  0
  7 10  1  0  0  0  0
 10 11  1  0  0  0  0
 10 12  1  0  0  0  0
 10 13  1  0  0  0  0
 13 14  1  0  0  0  0
 13 15  1  0  0  0  0
 13 16  1  0  0  0  0
M  END
> <VConfSearch Rank>
4

> <Conf_Id>
17

> <Delta U+W>
-0.432

> <U+W>
-57.336

> <U>
7.263

> <W>
-64.599

> <W(PB)>
-66.503

> <W(SA)>
1.904

> <Valence>
6.734

> <Coulomb>
-0.068

> <VdW>
0.598

> <VdW6>
-4.819

> <VdW12>
5.417

> <Bond>
0.107

> <Angle>
2.469

> <Pdih>
4.157

> <Idih>
0.001

> <Tether>
0.000

$$$$
VeraChem MOL file


 16 15  0  0  0  0  0  0  0  0999 V2000     
   19.9801   19.4089   24.4375 C   0  0  0  0  0  0  0  0  0  0  0  0
   20.0834   20.5638   24.8008 O   0  5  0  0  0  0  0  0  0  0  0  0
   19.0964   18.6640   24.8122 O   0  0  0  0  0  0  0  0  0  0  0  0
   21.0319   18.8595   23.4777 C   0  0  0  0  0  0  0  0  0  0  0  0
   21.0107   17.7638   23.5241 H   0  0  0  0  0  0  0  0  0  0  0  0
   22.0136   19.1736   23.8517 H   0  0  0  0  0  0  0  0  0  0  0  0
   20.8604   19.3360   22.0119 C   0  0  0  0  0  0  0  0  0  0  0  0
   20.8549   20.4346   21.9844 H   0  0  0  0  0  0  0  0  0  0  0  0
   21.7308   19.0095   21.4268 H   0  0  0  0  0  0  0  0  0  0  0  0
   19.5733   18.7901   21.3567 C   0  0  0  0  0  0  0  0  0  0  0  0
   18.6937   19.1277   21.9224 H   0  0  0  0  0  0  0  0  0  0  0  0
   19.5744   17.6920   21.3960 H   0  0  0  0  0  0  0  0  0  0  0  0
   19.4445   19.2507   19.8912 C   0  0  0  0  0  0  0  0  0  0  0  0
   19.4099   20.3461   19.8258 H   0  0  0  0  0  0  0  0  0  0  0  0
   18.5248   18.8550   19.4410 H   0  0  0  0  0  0  0  0  0  0  0  0
   20.2942   18.8978   19.2921 H   0  0  0  0  0  0  0  0  0  0  0  0
  1  2  1  0  0  0  0
  1  3  2  0  0  0  0
  1  4  1  0  0  0  0
  4  5  1  0  0  0  0
  4  6  1  0  0  0  0
  4  7  1  0  0  0  0
  7  8  1  0  0  0  0
  7  9  1  0  0  0  0
  7 10  1  0  0  0  0
 10 11  1  0  0  0  0
 10 12  1  0  0  0  0
 10 13  1  0  0  0  0
 13 14  1  0  0  0  0
 13 15  1  0  0  0  0
 13 16  1  0  0  0  0
M  END
> <VConfSearch Rank>
5

> <Conf_Id>
19

> <Delta U+W>
0.048

> <U+W>
-56.856

> <U>
8.276

> <W>
-65.132

> <W(PB)>
-67.031

> <W(SA)>
1.899

> <Valence>
6.513

> <Coulomb>
1.428

> <VdW>
0.335

> <VdW6>
-5.021

> <VdW12>
5.356

> <Bond>
0.092

> <Angle>
2.417

> <Pdih>
4.003

> <Idih>
0.001

> <Tether>
0.000

$$$$
VeraChem MOL file


 16 15  0  0  0  0  0  0  0  0999 V2000     
   20.0605   19.4013   24.4377 C   0  0  0  0  0  0  0  0  0  0  0  0
   20.1732   20.5554   24.8008 O   0  5  0  0  0  0  0  0  0  0  0  0
   20.7887   18.5049   24.8152 O   0  0  0  0  0  0  0  0  0  0  0  0
   18.9281   19.0573   23.4740 C   0  0  0  0  0  0  0  0  0  0  0  0
   18.0209   19.5490   23.8446 H   0  0  0  0  0  0  0  0  0  0  0  0
   18.7445   17.9769   23.5202 H   0  0  0  0  0  0  0  0  0  0  0  0
   19.1906   19.4930   22.0090 C   0  0  0  0  0  0  0  0  0  0  0  0
   18.2766   19.3342   21.4207 H   0  0  0  0  0  0  0  0  0  0  0  0
   19.4009   20.5713   21.9819 H   0  0  0  0  0  0  0  0  0  0  0  0
   20.3558   18.7165   21.3581 C   0  0  0  0  0  0  0  0  0  0  0  0
   20.1498   17.6379   21.3970 H   0  0  0  0  0  0  0  0  0  0  0  0
   21.2809   18.8845   21.9270 H   0  0  0  0  0  0  0  0  0  0  0  0
   20.5733   19.1447   19.8933 C   0  0  0  0  0  0  0  0  0  0  0  0
   19.6749   18.9561   19.2910 H   0  0  0  0  0  0  0  0  0  0  0  0
   21.4048   18.5844   19.4462 H   0  0  0  0  0  0  0  0  0  0  0  0
   20.8116   20.2144   19.8284 H   0  0  0  0  0  0  0  0  0  0  0  0
  1  2  1  0  0  0  0
  1  3  2  0  0  0  0
  1  4  1  0  0  0  0
  4  5  1  0  0  0  0
  4  6  1  0  0  0  0
  4  7  1  0  0  0  0
  7  8  1  0  0  0  0
  7  9  1  0  0  0  0
  7 10  1  0  0  0  0
 10 11  1  0  0  0  0
 10 12  1  0  0  0  0
 10 13  1  0  0  0  0
 13 14  1  0  0  0  0
 13 15  1  0  0  0  0
 13 16  1  0  0  0  0
M  END
> <VConfSearch Rank>
6

> <Conf_Id>
20

> <Delta U+W>
-0.010

> <U+W>
-56.914

> <U>
8.277

> <W>
-65.191

> <W(PB)>
-67.081

> <W(SA)>
1.890

> <Valence>
6.513

> <Coulomb>
1.429

> <VdW>
0.335

> <VdW6>
-5.021

> <VdW12>
5.356

> <Bond>
0.092

> <Angle>
2.417

> <Pdih>
4.002

> <Idih>
0.001

> <Tether>
0.000

$$$$
VeraChem MOL file


 16 15  0  0  0  0  0  0  0  0999 V2000     
   20.0515   19.3228   24.3073 C   0  0  0  0  0  0  0  0  0  0  0  0
   20.1892   20.3834   24.8843 O   0  5  0  0  0  0  0  0  0  0  0  0
   20.7222   18.3381   24.5455 O   0  0  0  0  0  0  0  0  0  0  0  0
   18.9542   19.2151   23.2518 C   0  0  0  0  0  0  0  0  0  0  0  0
   18.0298   19.5938   23.7034 H   0  0  0  0  0  0  0  0  0  0  0  0
   18.7803   18.1555   23.0318 H   0  0  0  0  0  0  0  0  0  0  0  0
   19.2477   20.0042   21.9464 C   0  0  0  0  0  0  0  0  0  0  0  0
   18.3763   19.9367   21.2812 H   0  0  0  0  0  0  0  0  0  0  0  0
   19.3631   21.0681   22.1958 H   0  0  0  0  0  0  0  0  0  0  0  0
   20.5079   19.5300   21.1842 C   0  0  0  0  0  0  0  0  0  0  0  0
   21.3931   19.6255   21.8282 H   0  0  0  0  0  0  0  0  0  0  0  0
   20.6746   20.1986   20.3285 H   0  0  0  0  0  0  0  0  0  0  0  0
   20.3974   18.0794   20.6685 C   0  0  0  0  0  0  0  0  0  0  0  0
   20.3532   17.3638   21.4995 H   0  0  0  0  0  0  0  0  0  0  0  0
   21.2713   17.8225   20.0560 H   0  0  0  0  0  0  0  0  0  0  0  0
   19.4999   17.9481   20.0501 H   0  0  0  0  0  0  0  0  0  0  0  0
  1  2  1  0  0  0  0
  1  3  2  0  0  0  0
  1  4  1  0  0  0  0
  4  5  1  0  0  0  0
  4  6  1  0  0  0  0
  4  7  1  0  0  0  0
  7  8  1  0  0  0  0
  7  9  1  0  0  0  0
  7 10  1  0  0  0  0
 10 11  1  0  0  0  0
 10 12  1  0  0  0  0
 10 13  1  0  0  0  0
 13 14  1  0  0  0  0
 13 15  1  0  0  0  0
 13 16  1  0  0  0  0
M  END
> <VConfSearch Rank>
7

> <Conf_Id>
37

> <Delta U+W>
1.063

> <U+W>
-55.841

> <U>
9.719

> <W>
-65.560

> <W(PB)>
-67.414

> <W(SA)>
1.854

> <Valence>
7.002

> <Coulomb>
2.402

> <VdW>
0.314

> <VdW6>
-5.861

> <VdW12>
6.175

> <Bond>
0.134

> <Angle>
2.733

> <Pdih>
4.133

> <Idih>
0.002

> <Tether>
0.000

$$$$
VeraChem MOL file


 16 15  0  0  0  0  0  0  0  0999 V2000     
   19.9748   19.3301   24.3071 C   0  0  0  0  0  0  0  0  0  0  0  0
   20.0348   20.3979   24.8840 O   0  5  0  0  0  0  0  0  0  0  0  0
   19.1319   18.4873   24.5429 O   0  0  0  0  0  0  0  0  0  0  0  0
   21.0366   19.0196   23.2554 C   0  0  0  0  0  0  0  0  0  0  0  0
   21.0111   17.9461   23.0358 H   0  0  0  0  0  0  0  0  0  0  0  0
   22.0137   19.2199   23.7104 H   0  0  0  0  0  0  0  0  0  0  0  0
   20.8998   19.8491   21.9493 C   0  0  0  0  0  0  0  0  0  0  0  0
   20.9836   20.9159   22.1986 H   0  0  0  0  0  0  0  0  0  0  0  0
   21.7456   19.6202   21.2871 H   0  0  0  0  0  0  0  0  0  0  0  0
   19.5760   19.6175   21.1825 C   0  0  0  0  0  0  0  0  0  0  0  0
   19.5397   20.3052   20.3264 H   0  0  0  0  0  0  0  0  0  0  0  0
   18.7217   19.8765   21.8234 H   0  0  0  0  0  0  0  0  0  0  0  0
   19.4161   18.1715   20.6669 C   0  0  0  0  0  0  0  0  0  0  0  0
   20.2756   17.8752   20.0516 H   0  0  0  0  0  0  0  0  0  0  0  0
   18.5118   18.0816   20.0513 H   0  0  0  0  0  0  0  0  0  0  0  0
   19.3235   17.4606   21.4978 H   0  0  0  0  0  0  0  0  0  0  0  0
  1  2  1  0  0  0  0
  1  3  2  0  0  0  0
  1  4  1  0  0  0  0
  4  5  1  0  0  0  0
  4  6  1  0  0  0  0
  4  7  1  0  0  0  0
  7  8  1  0  0  0  0
  7  9  1  0  0  0  0
  7 10  1  0  0  0  0
 10 11  1  0  0  0  0
 10 12  1  0  0  0  0
 10 13  1  0  0  0  0
 13 14  1  0  0  0  0
 13 15  1  0  0  0  0
 13 16  1  0  0  0  0
M  END
> <VConfSearch Rank>
8

> <Conf_Id>
39

> <Delta U+W>
1.129

> <U+W>
-55.775

> <U>
9.718

> <W>
-65.493

> <W(PB)>
-67.361

> <W(SA)>
1.869

> <Valence>
7.002

> <Coulomb>
2.402

> <VdW>
0.314

> <VdW6>
-5.861

> <VdW12>
6.175

> <Bond>
0.134

> <Angle>
2.734

> <Pdih>
4.133

> <Idih>
0.002

> <Tether>
0.000

$$$$
VeraChem MOL file


 16 15  0  0  0  0  0  0  0  0999 V2000     
   20.0535   19.5656   24.1986 C   0  0  0  0  0  0  0  0  0  0  0  0
   19.8777   20.7561   24.3681 O   0  5  0  0  0  0  0  0  0  0  0  0
   20.9857   18.9521   24.6801 O   0  0  0  0  0  0  0  0  0  0  0  0
   18.9992   18.7856   23.4152 C   0  0  0  0  0  0  0  0  0  0  0  0
   18.1934   19.4697   23.1226 H   0  0  0  0  0  0  0  0  0  0  0  0
   18.5607   18.0676   24.1181 H   0  0  0  0  0  0  0  0  0  0  0  0
   19.5291   18.0160   22.1727 C   0  0  0  0  0  0  0  0  0  0  0  0
   20.4607   17.4913   22.4264 H   0  0  0  0  0  0  0  0  0  0  0  0
   18.7998   17.2339   21.9219 H   0  0  0  0  0  0  0  0  0  0  0  0
   19.7374   18.8887   20.9115 C   0  0  0  0  0  0  0  0  0  0  0  0
   18.8046   19.4130   20.6624 H   0  0  0  0  0  0  0  0  0  0  0  0
   19.9548   18.2258   20.0625 H   0  0  0  0  0  0  0  0  0  0  0  0
   20.8874   19.9089   21.0418 C   0  0  0  0  0  0  0  0  0  0  0  0
   20.6439   20.6949   21.7670 H   0  0  0  0  0  0  0  0  0  0  0  0
   21.0782   20.3976   20.0776 H   0  0  0  0  0  0  0  0  0  0  0  0
   21.8153   19.4181   21.3631 H   0  0  0  0  0  0  0  0  0  0  0  0
  1  2  1  0  0  0  0
  1  3  2  0  0  0  0
  1  4  1  0  0  0  0
  4  5  1  0  0  0  0
  4  6  1  0  0  0  0
  4  7  1  0  0  0  0
  7  8  1  0  0  0  0
  7  9  1  0  0  0  0
  7 10  1  0  0  0  0
 10 11  1  0  0  0  0
 10 12  1  0  0  0  0
 10 13  1  0  0  0  0
 13 14  1  0  0  0  0
 13 15  1  0  0  0  0
 13 16  1  0  0  0  0
M  END
> <VConfSearch Rank>
9

> <Conf_Id>
47

> <Delta U+W>
2.301

> <U+W>
-54.603

> <U>
11.258

> <W>
-65.861

> <W(PB)>
-67.702

> <W(SA)>
1.841

> <Valence>
8.169

> <Coulomb>
2.735

> <VdW>
0.355

> <VdW6>
-6.245

> <VdW12>
6.600

> <Bond>
0.149

> <Angle>
3.168

> <Pdih>
4.840

> <Idih>
0.011

> <Tether>
0.000

$$$$
VeraChem MOL file


 16 15  0  0  0  0  0  0  0  0999 V2000     
   20.1435   19.4228   24.2183 C   0  0  0  0  0  0  0  0  0  0  0  0
   20.0204   20.6107   24.4436 O   0  5  0  0  0  0  0  0  0  0  0  0
   21.0613   18.7524   24.6485 O   0  0  0  0  0  0  0  0  0  0  0  0
   19.0422   18.7162   23.4300 C   0  0  0  0  0  0  0  0  0  0  0  0
   18.1244   18.8206   24.0203 H   0  0  0  0  0  0  0  0  0  0  0  0
   19.2665   17.6435   23.3865 H   0  0  0  0  0  0  0  0  0  0  0  0
   18.7883   19.2709   22.0000 C   0  0  0  0  0  0  0  0  0  0  0  0
   17.7834   18.9560   21.6878 H   0  0  0  0  0  0  0  0  0  0  0  0
   18.7681   20.3694   22.0226 H   0  0  0  0  0  0  0  0  0  0  0  0
   19.7910   18.7799   20.9280 C   0  0  0  0  0  0  0  0  0  0  0  0
   19.4279   19.0984   19.9411 H   0  0  0  0  0  0  0  0  0  0  0  0
   19.8096   17.6814   20.9099 H   0  0  0  0  0  0  0  0  0  0  0  0
   21.2233   19.3201   21.1196 C   0  0  0  0  0  0  0  0  0  0  0  0
   21.8518   19.0551   20.2596 H   0  0  0  0  0  0  0  0  0  0  0  0
   21.6939   18.8958   22.0148 H   0  0  0  0  0  0  0  0  0  0  0  0
   21.2226   20.4138   21.2153 H   0  0  0  0  0  0  0  0  0  0  0  0
  1  2  1  0  0  0  0
  1  3  2  0  0  0  0
  1  4  1  0  0  0  0
  4  5  1  0  0  0  0
  4  6  1  0  0  0  0
  4  7  1  0  0  0  0
  7  8  1  0  0  0  0
  7  9  1  0  0  0  0
  7 10  1  0  0  0  0
 10 11  1  0  0  0  0
 10 12  1  0  0  0  0
 10 13  1  0  0  0  0
 13 14  1  0  0  0  0
 13 15  1  0  0  0  0
 13 16  1  0  0  0  0
M  END
> <VConfSearch Rank>
10

> <Conf_Id>
45

> <Delta U+W>
2.303

> <U+W>
-54.601

> <U>
11.258

> <W>
-65.860

> <W(PB)>
-67.709

> <W(SA)>
1.849

> <Valence>
8.169

> <Coulomb>
2.735

> <VdW>
0.355

> <VdW6>
-6.245

> <VdW12>
6.600

> <Bond>
0.149

> <Angle>
3.168

> <Pdih>
4.840

> <Idih>
0.011

> <Tether>
0.000

$$$$
VeraChem MOL file


 16 15  0  0  0  0  0  0  0  0999 V2000     
   17.2446   18.9928   21.8005 C   0  0  0  0  0  0  0  0  0  0  0  0
   17.2267   17.9586   21.1618 O   0  5  0  0  0  0  0  0  0  0  0  0
   16.2363   19.5772   22.1428 O   0  0  0  0  0  0  0  0  0  0  0  0
   18.5828   19.6123   22.2069 C   0  0  0  0  0  0  0  0  0  0  0  0
   18.5827   19.7038   23.2995 H   0  0  0  0  0  0  0  0  0  0  0  0
   18.6094   20.6300   21.7999 H   0  0  0  0  0  0  0  0  0  0  0  0
   19.8427   18.8315   21.7470 C   0  0  0  0  0  0  0  0  0  0  0  0
   19.8078   17.8111   22.1532 H   0  0  0  0  0  0  0  0  0  0  0  0
   19.8344   18.7384   20.6521 H   0  0  0  0  0  0  0  0  0  0  0  0
   21.1445   19.5258   22.1990 C   0  0  0  0  0  0  0  0  0  0  0  0
   21.1548   19.6180   23.2940 H   0  0  0  0  0  0  0  0  0  0  0  0
   21.1815   20.5459   21.7920 H   0  0  0  0  0  0  0  0  0  0  0  0
   22.3920   18.7458   21.7394 C   0  0  0  0  0  0  0  0  0  0  0  0
   22.3968   17.7308   22.1579 H   0  0  0  0  0  0  0  0  0  0  0  0
   23.3084   19.2526   22.0688 H   0  0  0  0  0  0  0  0  0  0  0  0
   22.4237   18.6654   20.6448 H   0  0  0  0  0  0  0  0  0  0  0  0
  1  2  1  0  0  0  0
  1  3  2  0  0  0  0
  1  4  1  0  0  0  0
  4  5  1  0  0  0  0
  4  6  1  0  0  0  0
  4  7  1  0  0  0  0
  7  8  1  0  0  0  0
  7  9  1  0  0  0  0
  7 10  1  0  0  0  0
 10 11  1  0  0  0  0
 10 12  1  0  0  0  0
 10 13  1  0  0  0  0
 13 14  1  0  0  0  0
 13 15  1  0  0  0  0
 13 16  1  0  0  0  0
M  END
> <VConfSearch Rank>
11

> <Conf_Id>
0

> <Delta U+W>
0.000

> <U+W>
-56.904

> <U>
7.329

> <W>
-64.233

> <W(PB)>
-66.148

> <W(SA)>
1.915

> <Valence>
6.755

> <Coulomb>
-0.421

> <VdW>
0.995

> <VdW6>
-4.495

> <VdW12>
5.490

> <Bond>
0.106

> <Angle>
2.715

> <Pdih>
3.934

> <Idih>
0.000

> <Tether>
0.000

$$$$
VeraChem MOL file


 16 15  0  0  0  0  0  0  0  0999 V2000     
   18.1075   18.3494   23.7155 C   0  0  0  0  0  0  0  0  0  0  0  0
   17.3352   17.5115   23.2942 O   0  5  0  0  0  0  0  0  0  0  0  0
   18.4230   18.4450   24.8847 O   0  0  0  0  0  0  0  0  0  0  0  0
   18.7286   19.3225   22.7196 C   0  0  0  0  0  0  0  0  0  0  0  0
   18.8951   20.2768   23.2337 H   0  0  0  0  0  0  0  0  0  0  0  0
   17.9983   19.5071   21.9224 H   0  0  0  0  0  0  0  0  0  0  0  0
   20.0567   18.8021   22.1167 C   0  0  0  0  0  0  0  0  0  0  0  0
   20.7730   18.6102   22.9277 H   0  0  0  0  0  0  0  0  0  0  0  0
   19.8761   17.8405   21.6164 H   0  0  0  0  0  0  0  0  0  0  0  0
   20.6635   19.8047   21.1132 C   0  0  0  0  0  0  0  0  0  0  0  0
   20.8449   20.7662   21.6133 H   0  0  0  0  0  0  0  0  0  0  0  0
   19.9478   19.9963   20.3017 H   0  0  0  0  0  0  0  0  0  0  0  0
   21.9849   19.2803   20.5173 C   0  0  0  0  0  0  0  0  0  0  0  0
   21.8268   18.3339   19.9836 H   0  0  0  0  0  0  0  0  0  0  0  0
   22.7305   19.1094   21.3049 H   0  0  0  0  0  0  0  0  0  0  0  0
   22.4029   20.0047   19.8062 H   0  0  0  0  0  0  0  0  0  0  0  0
  1  2  1  0  0  0  0
  1  3  2  0  0  0  0
  1  4  1  0  0  0  0
  4  5  1  0  0  0  0
  4  6  1  0  0  0  0
  4  7  1  0  0  0  0
  7  8  1  0  0  0  0
  7  9  1  0  0  0  0
  7 10  1  0  0  0  0
 10 11  1  0  0  0  0
 10 12  1  0  0  0  0
 10 13  1  0  0  0  0
 13 14  1  0  0  0  0
 13 15  1  0  0  0  0
 13 16  1  0  0  0  0
M  END
> <VConfSearch Rank>
12

> <Conf_Id>
22

> <Delta U+W>
-1.185

> <U+W>
-58.089

> <U>
6.298

> <W>
-64.387

> <W(PB)>
-66.329

> <W(SA)>
1.942

> <Valence>
6.246

> <Coulomb>
-0.408

> <VdW>
0.460

> <VdW6>
-4.207

> <VdW12>
4.667

> <Bond>
0.072

> <Angle>
2.246

> <Pdih>
3.928

> <Idih>
0.001

> <Tether>
0.000

$$$$
VeraChem MOL file


 16 15  0  0  0  0  0  0  0  0999 V2000     
   22.5067   19.3152   22.4443 C   0  0  0  0  0  0  0  0  0  0  0  0
   23.1521   20.3066   22.1677 O   0  5  0  0  0  0  0  0  0  0  0  0
   22.9990   18.2158   22.6021 O   0  0  0  0  0  0  0  0  0  0  0  0
   20.9946   19.4548   22.5809 C   0  0  0  0  0  0  0  0  0  0  0  0
   20.7790   20.4574   22.9694 H   0  0  0  0  0  0  0  0  0  0  0  0
   20.6591   18.7345   23.3356 H   0  0  0  0  0  0  0  0  0  0  0  0
   20.2466   19.2288   21.2413 C   0  0  0  0  0  0  0  0  0  0  0  0
   20.6659   19.9058   20.4841 H   0  0  0  0  0  0  0  0  0  0  0  0
   20.4359   18.2072   20.8836 H   0  0  0  0  0  0  0  0  0  0  0  0
   18.7232   19.4744   21.3381 C   0  0  0  0  0  0  0  0  0  0  0  0
   18.2891   19.4013   20.3313 H   0  0  0  0  0  0  0  0  0  0  0  0
   18.5337   20.4998   21.6845 H   0  0  0  0  0  0  0  0  0  0  0  0
   18.0028   18.4718   22.2648 C   0  0  0  0  0  0  0  0  0  0  0  0
   18.3243   18.5872   23.3074 H   0  0  0  0  0  0  0  0  0  0  0  0
   18.2016   17.4376   21.9549 H   0  0  0  0  0  0  0  0  0  0  0  0
   16.9172   18.6315   22.2324 H   0  0  0  0  0  0  0  0  0  0  0  0
  1  2  1  0  0  0  0
  1  3  2  0  0  0  0
  1  4  1  0  0  0  0
  4  5  1  0  0  0  0
  4  6  1  0  0  0  0
  4  7  1  0  0  0  0
  7  8  1  0  0  0  0
  7  9  1  0  0  0  0
  7 10  1  0  0  0  0
 10 11  1  0  0  0  0
 10 12  1  0  0  0  0
 10 13  1  0  0  0  0
 13 14  1  0  0  0  0
 13 15  1  0  0  0  0
 13 16  1  0  0  0  0
M  END
> <VConfSearch Rank>
13

> <Conf_Id>
36

> <Delta U+W>
-0.427

> <U+W>
-57.331

> <U>
7.263

> <W>
-64.594

> <W(PB)>
-66.513

> <W(SA)>
1.920

> <Valence>
6.734

> <Coulomb>
-0.068

> <VdW>
0.598

> <VdW6>
-4.819

> <VdW12>
5.417

> <Bond>
0.107

> <Angle>
2.469

> <Pdih>
4.157

> <Idih>
0.001

> <Tether>
0.000

$$$$
VeraChem MOL file


 16 15  0  0  0  0  0  0  0  0999 V2000     
   22.2884   19.6189   20.9550 C   0  0  0  0  0  0  0  0  0  0  0  0
   22.7354   20.6778   21.3487 O   0  5  0  0  0  0  0  0  0  0  0  0
   22.6838   19.0534   19.9551 O   0  0  0  0  0  0  0  0  0  0  0  0
   21.1563   18.9745   21.7472 C   0  0  0  0  0  0  0  0  0  0  0  0
   21.3039   19.2234   22.8042 H   0  0  0  0  0  0  0  0  0  0  0  0
   21.2512   17.8861   21.6529 H   0  0  0  0  0  0  0  0  0  0  0  0
   19.7531   19.4317   21.2706 C   0  0  0  0  0  0  0  0  0  0  0  0
   19.6544   20.5172   21.4096 H   0  0  0  0  0  0  0  0  0  0  0  0
   19.6698   19.2480   20.1904 H   0  0  0  0  0  0  0  0  0  0  0  0
   18.5924   18.7055   21.9889 C   0  0  0  0  0  0  0  0  0  0  0  0
   18.6844   17.6207   21.8401 H   0  0  0  0  0  0  0  0  0  0  0  0
   17.6448   19.0042   21.5198 H   0  0  0  0  0  0  0  0  0  0  0  0
   18.5206   19.0182   23.4989 C   0  0  0  0  0  0  0  0  0  0  0  0
   19.4004   18.6341   24.0301 H   0  0  0  0  0  0  0  0  0  0  0  0
   17.6331   18.5513   23.9454 H   0  0  0  0  0  0  0  0  0  0  0  0
   18.4572   20.1002   23.6735 H   0  0  0  0  0  0  0  0  0  0  0  0
  1  2  1  0  0  0  0
  1  3  2  0  0  0  0
  1  4  1  0  0  0  0
  4  5  1  0  0  0  0
  4  6  1  0  0  0  0
  4  7  1  0  0  0  0
  7  8  1  0  0  0  0
  7  9  1  0  0  0  0
  7 10  1  0  0  0  0
 10 11  1  0  0  0  0
 10 12  1  0  0  0  0
 10 13  1  0  0  0  0
 13 14  1  0  0  0  0
 13 15  1  0  0  0  0
 13 16  1  0  0  0  0
M  END
> <VConfSearch Rank>
14

> <Conf_Id>
17

> <Delta U+W>
-0.432

> <U+W>
-57.336

> <U>
7.263

> <W>
-64.599

> <W(PB)>
-66.503

> <W(SA)>
1.904

> <Valence>
6.734

> <Coulomb>
-0.068

> <VdW>
0.598

> <VdW6>
-4.819

> <VdW12>
5.417

> <Bond>
0.107

> <Angle>
2.469

> <Pdih>
4.157

> <Idih>
0.001

> <Tether>
0.000

$$$$
VeraChem MOL file


 16 15  0  0  0  0  0  0  0  0999 V2000     
   20.5427   17.8062   20.1743 C   0  0  0  0  0  0  0  0  0  0  0  0
   20.1779   16.6536   20.2956 O   0  5  0  0  0  0  0  0  0  0  0  0
   20.2728   18.4979   19.2125 O   0  0  0  0  0  0  0  0  0  0  0  0
   21.4066   18.4078   21.2794 C   0  0  0  0  0  0  0  0  0  0  0  0
   21.9276   19.2858   20.8784 H   0  0  0  0  0  0  0  0  0  0  0  0
   22.1772   17.6699   21.5320 H   0  0  0  0  0  0  0  0  0  0  0  0
   20.6190   18.7916   22.5591 C   0  0  0  0  0  0  0  0  0  0  0  0
   20.0797   17.9101   22.9329 H   0  0  0  0  0  0  0  0  0  0  0  0
   21.3319   19.0820   23.3427 H   0  0  0  0  0  0  0  0  0  0  0  0
   19.6260   19.9497   22.3203 C   0  0  0  0  0  0  0  0  0  0  0  0
   18.8946   19.6625   21.5519 H   0  0  0  0  0  0  0  0  0  0  0  0
   20.1647   20.8263   21.9348 H   0  0  0  0  0  0  0  0  0  0  0  0
   18.8816   20.3333   23.6146 C   0  0  0  0  0  0  0  0  0  0  0  0
   18.3090   19.4818   24.0050 H   0  0  0  0  0  0  0  0  0  0  0  0
   18.1799   21.1565   23.4274 H   0  0  0  0  0  0  0  0  0  0  0  0
   19.5860   20.6584   24.3915 H   0  0  0  0  0  0  0  0  0  0  0  0
  1  2  1  0  0  0  0
  1  3  2  0  0  0  0
  1  4  1  0  0  0  0
  4  5  1  0  0  0  0
  4  6  1  0  0  0  0
  4  7  1  0  0  0  0
  7  8  1  0  0  0  0
  7  9  1  0  0  0  0
  7 10  1  0  0  0  0
 10 11  1  0  0  0  0
 10 12  1  0  0  0  0
 10 13  1  0  0  0  0
 13 14  1  0  0  0  0
 13 15  1  0  0  0  0
 13 16  1  0  0  0  0
M  END
> <VConfSearch Rank>
15

> <Conf_Id>
19

> <Delta U+W>
0.048

> <U+W>
-56.856

> <U>
8.276

> <W>
-65.132

> <W(PB)>
-67.031

> <W(SA)>
1.899

> <Valence>
6.513

> <Coulomb>
1.428

> <VdW>
0.335

> <VdW6>
-5.021

> <VdW12>
5.356

> <Bond>
0.092

> <Angle>
2.417

> <Pdih>
4.003

> <Idih>
0.001

> <Tether>
0.000

$$$$
VeraChem MOL file


 16 15  0  0  0  0  0  0  0  0999 V2000     
   19.2282   21.1009   20.8906 C   0  0  0  0  0  0  0  0  0  0  0  0
   19.9687   21.3644   19.9641 O   0  5  0  0  0  0  0  0  0  0  0  0
   18.8732   21.9160   21.7188 O   0  0  0  0  0  0  0  0  0  0  0  0
   18.6979   19.6743   21.0049 C   0  0  0  0  0  0  0  0  0  0  0  0
   18.3678   19.3659   20.0059 H   0  0  0  0  0  0  0  0  0  0  0  0
   17.8072   19.6816   21.6450 H   0  0  0  0  0  0  0  0  0  0  0  0
   19.7355   18.6556   21.5440 C   0  0  0  0  0  0  0  0  0  0  0  0
   19.3173   17.6432   21.4612 H   0  0  0  0  0  0  0  0  0  0  0  0
   20.6329   18.6799   20.9102 H   0  0  0  0  0  0  0  0  0  0  0  0
   20.1256   18.9262   23.0133 C   0  0  0  0  0  0  0  0  0  0  0  0
   19.2258   18.9139   23.6439 H   0  0  0  0  0  0  0  0  0  0  0  0
   20.5644   19.9296   23.1048 H   0  0  0  0  0  0  0  0  0  0  0  0
   21.1313   17.8804   23.5340 C   0  0  0  0  0  0  0  0  0  0  0  0
   20.7066   16.8691   23.4870 H   0  0  0  0  0  0  0  0  0  0  0  0
   21.3985   18.0876   24.5784 H   0  0  0  0  0  0  0  0  0  0  0  0
   22.0540   17.8931   22.9391 H   0  0  0  0  0  0  0  0  0  0  0  0
  1  2  1  0  0  0  0
  1  3  2  0  0  0  0
  1  4  1  0  0  0  0
  4  5  1  0  0  0  0
  4  6  1  0  0  0  0
  4  7  1  0  0  0  0
  7  8  1  0  0  0  0
  7  9  1  0  0  0  0
  7 10  1  0  0  0  0
 10 11  1  0  0  0  0
 10 12  1  0  0  0  0
 10 13  1  0  0  0  0
 13 14  1  0  0  0  0
 13 15  1  0  0  0  0
 13 16  1  0  0  0  0
M  END
> <VConfSearch Rank>
16

> <Conf_Id>
20

> <Delta U+W>
-0.010

> <U+W>
-56.914

> <U>
8.277

> <W>
-65.191

> <W(PB)>
-67.081

> <W(SA)>
1.890

> <Valence>
6.513

> <Coulomb>
1.429

> <VdW>
0.335

> <VdW6>
-5.021

> <VdW12>
5.356

> <Bond>
0.092

> <Angle>
2.417

> <Pdih>
4.002

> <Idih>
0.001

> <Tether>
0.000

$$$$
VeraChem MOL file


 16 15  0  0  0  0  0  0  0  0999 V2000     
   21.8535   18.4428   22.5472 C   0  0  0  0  0  0  0  0  0  0  0  0
   22.8509   19.0033   22.1375 O   0  5  0  0  0  0  0  0  0  0  0  0
   21.6756   17.2438   22.4620 O   0  0  0  0  0  0  0  0  0  0  0  0
   20.7845   19.2875   23.2352 C   0  0  0  0  0  0  0  0  0  0  0  0
   21.2897   19.8972   23.9935 H   0  0  0  0  0  0  0  0  0  0  0  0
   20.1036   18.6208   23.7767 H   0  0  0  0  0  0  0  0  0  0  0  0
   19.9924   20.2165   22.2749 C   0  0  0  0  0  0  0  0  0  0  0  0
   19.3059   20.8408   22.8626 H   0  0  0  0  0  0  0  0  0  0  0  0
   20.6973   20.9061   21.7901 H   0  0  0  0  0  0  0  0  0  0  0  0
   19.1917   19.4700   21.1815 C   0  0  0  0  0  0  0  0  0  0  0  0
   19.8728   18.8681   20.5639 H   0  0  0  0  0  0  0  0  0  0  0  0
   18.7381   20.2110   20.5091 H   0  0  0  0  0  0  0  0  0  0  0  0
   18.0773   18.5675   21.7525 C   0  0  0  0  0  0  0  0  0  0  0  0
   18.4968   17.7360   22.3330 H   0  0  0  0  0  0  0  0  0  0  0  0
   17.4792   18.1358   20.9396 H   0  0  0  0  0  0  0  0  0  0  0  0
   17.4023   19.1386   22.4032 H   0  0  0  0  0  0  0  0  0  0  0  0
  1  2  1  0  0  0  0
  1  3  2  0  0  0  0
  1  4  1  0  0  0  0
  4  5  1  0  0  0  0
  4  6  1  0  0  0  0
  4  7  1  0  0  0  0
  7  8  1  0  0  0  0
  7  9  1  0  0  0  0
  7 10  1  0  0  0  0
 10 11  1  0  0  0  0
 10 12  1  0  0  0  0
 10 13  1  0  0  0  0
 13 14  1  0  0  0  0
 13 15  1  0  0  0  0
 13 16  1  0  0  0  0
M  END
> <VConfSearch Rank>
17

> <Conf_Id>
37

> <Delta U+W>
1.063

> <U+W>
-55.841

> <U>
9.719

> <W>
-65.560

> <W(PB)>
-67.414

> <W(SA)>
1.854

> <Valence>
7.002

> <Coulomb>
2.402

> <VdW>
0.314

> <VdW6>
-5.861

> <VdW12>
6.175

> <Bond>
0.134

> <Angle>
2.733

> <Pdih>
4.133

> <Idih>
0.002

> <Tether>
0.000

$$$$
VeraChem MOL file


 16 15  0  0  0  0  0  0  0  0999 V2000     
   21.5237   18.4525   23.6660 C   0  0  0  0  0  0  0  0  0  0  0  0
   21.1758   17.9427   24.7128 O   0  5  0  0  0  0  0  0  0  0  0  0
   22.4043   18.0013   22.9608 O   0  0  0  0  0  0  0  0  0  0  0  0
   20.8405   19.7473   23.2340 C   0  0  0  0  0  0  0  0  0  0  0  0
   21.4377   20.2130   22.4417 H   0  0  0  0  0  0  0  0  0  0  0  0
   20.8714   20.4326   24.0891 H   0  0  0  0  0  0  0  0  0  0  0  0
   19.3676   19.5666   22.7750 C   0  0  0  0  0  0  0  0  0  0  0  0
   18.7869   19.1489   23.6090 H   0  0  0  0  0  0  0  0  0  0  0  0
   18.9335   20.5526   22.5610 H   0  0  0  0  0  0  0  0  0  0  0  0
   19.1925   18.6541   21.5377 C   0  0  0  0  0  0  0  0  0  0  0  0
   18.1187   18.5239   21.3450 H   0  0  0  0  0  0  0  0  0  0  0  0
   19.5919   17.6529   21.7513 H   0  0  0  0  0  0  0  0  0  0  0  0
   19.8619   19.2177   20.2662 C   0  0  0  0  0  0  0  0  0  0  0  0
   19.5057   20.2334   20.0504 H   0  0  0  0  0  0  0  0  0  0  0  0
   19.6304   18.5861   19.3988 H   0  0  0  0  0  0  0  0  0  0  0  0
   20.9539   19.2487   20.3717 H   0  0  0  0  0  0  0  0  0  0  0  0
  1  2  1  0  0  0  0
  1  3  2  0  0  0  0
  1  4  1  0  0  0  0
  4  5  1  0  0  0  0
  4  6  1  0  0  0  0
  4  7  1  0  0  0  0
  7  8  1  0  0  0  0
  7  9  1  0  0  0  0
  7 10  1  0  0  0  0
 10 11  1  0  0  0  0
 10 12  1  0  0  0  0
 10 13  1  0  0  0  0
 13 14  1  0  0  0  0
 13 15  1  0  0  0  0
 13 16  1  0  0  0  0
M  END
> <VConfSearch Rank>
18

> <Conf_Id>
39

> <Delta U+W>
1.129

> <U+W>
-55.775

> <U>
9.718

> <W>
-65.493

> <W(PB)>
-67.361

> <W(SA)>
1.869

> <Valence>
7.002

> <Coulomb>
2.402

> <VdW>
0.314

> <VdW6>
-5.861

> <VdW12>
6.175

> <Bond>
0.134

> <Angle>
2.734

> <Pdih>
4.133

> <Idih>
0.002

> <Tether>
0.000

$$$$
VeraChem MOL file


 16 15  0  0  0  0  0  0  0  0999 V2000     
   21.6474   20.0098   22.0246 C   0  0  0  0  0  0  0  0  0  0  0  0
   22.1086   20.3672   23.0906 O   0  5  0  0  0  0  0  0  0  0  0  0
   21.5690   20.7357   21.0529 O   0  0  0  0  0  0  0  0  0  0  0  0
   21.2291   18.5483   21.8737 C   0  0  0  0  0  0  0  0  0  0  0  0
   21.4376   18.0188   22.8113 H   0  0  0  0  0  0  0  0  0  0  0  0
   21.8910   18.1144   21.1151 H   0  0  0  0  0  0  0  0  0  0  0  0
   19.7523   18.3208   21.4444 C   0  0  0  0  0  0  0  0  0  0  0  0
   19.4893   19.0083   20.6285 H   0  0  0  0  0  0  0  0  0  0  0  0
   19.6733   17.3088   21.0249 H   0  0  0  0  0  0  0  0  0  0  0  0
   18.7197   18.4380   22.5915 C   0  0  0  0  0  0  0  0  0  0  0  0
   18.9872   17.7507   23.4059 H   0  0  0  0  0  0  0  0  0  0  0  0
   17.7429   18.1044   22.2148 H   0  0  0  0  0  0  0  0  0  0  0  0
   18.5661   19.8684   23.1488 C   0  0  0  0  0  0  0  0  0  0  0  0
   19.4683   20.1873   23.6848 H   0  0  0  0  0  0  0  0  0  0  0  0
   17.7280   19.9169   23.8560 H   0  0  0  0  0  0  0  0  0  0  0  0
   18.3715   20.5871   22.3420 H   0  0  0  0  0  0  0  0  0  0  0  0
  1  2  1  0  0  0  0
  1  3  2  0  0  0  0
  1  4  1  0  0  0  0
  4  5  1  0  0  0  0
  4  6  1  0  0  0  0
  4  7  1  0  0  0  0
  7  8  1  0  0  0  0
  7  9  1  0  0  0  0
  7 10  1  0  0  0  0
 10 11  1  0  0  0  0
 10 12  1  0  0  0  0
 10 13  1  0  0  0  0
 13 14  1  0  0  0  0
 13 15  1  0  0  0  0
 13 16  1  0  0  0  0
M  END
> <VConfSearch Rank>
19

> <Conf_Id>
47

> <Delta U+W>
2.301

> <U+W>
-54.603

> <U>
11.258

> <W>
-65.861

> <W(PB)>
-67.702

> <W(SA)>
1.841

> <Valence>
8.169

> <Coulomb>
2.735

> <VdW>
0.355

> <VdW6>
-6.245

> <VdW12>
6.600

> <Bond>
0.149

> <Angle>
3.168

> <Pdih>
4.840

> <Idih>
0.011

> <Tether>
0.000

$$$$
VeraChem MOL file


 16 15  0  0  0  0  0  0  0  0999 V2000     
   21.0952   19.7741   23.7001 C   0  0  0  0  0  0  0  0  0  0  0  0
   21.6855   20.7531   23.2875 O   0  5  0  0  0  0  0  0  0  0  0  0
   21.6455   18.8521   24.2692 O   0  0  0  0  0  0  0  0  0  0  0  0
   19.5728   19.7405   23.5781 C   0  0  0  0  0  0  0  0  0  0  0  0
   19.1975   20.5901   24.1605 H   0  0  0  0  0  0  0  0  0  0  0  0
   19.1955   18.8343   24.0673 H   0  0  0  0  0  0  0  0  0  0  0  0
   19.0200   19.8389   22.1284 C   0  0  0  0  0  0  0  0  0  0  0  0
   17.9734   20.1670   22.1862 H   0  0  0  0  0  0  0  0  0  0  0  0
   19.5537   20.6253   21.5767 H   0  0  0  0  0  0  0  0  0  0  0  0
   19.0555   18.5129   21.3310 C   0  0  0  0  0  0  0  0  0  0  0  0
   18.5016   18.6568   20.3930 H   0  0  0  0  0  0  0  0  0  0  0  0
   18.5226   17.7290   21.8866 H   0  0  0  0  0  0  0  0  0  0  0  0
   20.4798   18.0290   20.9881 C   0  0  0  0  0  0  0  0  0  0  0  0
   20.4396   17.1682   20.3082 H   0  0  0  0  0  0  0  0  0  0  0  0
   21.0218   17.7132   21.8879 H   0  0  0  0  0  0  0  0  0  0  0  0
   21.0582   18.8226   20.4973 H   0  0  0  0  0  0  0  0  0  0  0  0
  1  2  1  0  0  0  0
  1  3  2  0  0  0  0
  1  4  1  0  0  0  0
  4  5  1  0  0  0  0
  4  6  1  0  0  0  0
  4  7  1  0  0  0  0
  7  8  1  0  0  0  0
  7  9  1  0  0  0  0
  7 10  1  0  0  0  0
 10 11  1  0  0  0  0
 10 12  1  0  0  0  0
 10 13  1  0  0  0  0
 13 14  1  0  0  0  0
 13 15  1  0  0  0  0
 13 16  1  0  0  0  0
M  END
> <VConfSearch Rank>
20

> <Conf_Id>
45

> <Delta U+W>
2.303

> <U+W>
-54.601

> <U>
11.258

> <W>
-65.860

> <W(PB)>
-67.709

> <W(SA)>
1.849

> <Valence>
8.169

> <Coulomb>
2.735

> <VdW>
0.355

> <VdW6>
-6.245

> <VdW12>
6.600

> <Bond>
0.149

> <Angle>
3.168

> <Pdih>
4.840

> <Idih>
0.011

> <Tether>
0.000

$$$$
VeraChem MOL file


 16 15  0  0  0  0  0  0  0  0999 V2000     
   20.3637   19.3035   19.1997 C   0  0  0  0  0  0  0  0  0  0  0  0
   21.3428   20.0193   19.2819 O   0  5  0  0  0  0  0  0  0  0  0  0
   19.9006   18.9341   18.1393 O   0  0  0  0  0  0  0  0  0  0  0  0
   19.6594   18.8295   20.4722 C   0  0  0  0  0  0  0  0  0  0  0  0
   19.6531   17.7332   20.4536 H   0  0  0  0  0  0  0  0  0  0  0  0
   18.6150   19.1573   20.4097 H   0  0  0  0  0  0  0  0  0  0  0  0
   20.2857   19.3270   21.8020 C   0  0  0  0  0  0  0  0  0  0  0  0
   21.3334   19.0002   21.8564 H   0  0  0  0  0  0  0  0  0  0  0  0
   20.2943   20.4258   21.8125 H   0  0  0  0  0  0  0  0  0  0  0  0
   19.5140   18.8024   23.0310 C   0  0  0  0  0  0  0  0  0  0  0  0
   19.5061   17.7036   23.0227 H   0  0  0  0  0  0  0  0  0  0  0  0
   18.4664   19.1300   22.9787 H   0  0  0  0  0  0  0  0  0  0  0  0
   20.1407   19.2998   24.3486 C   0  0  0  0  0  0  0  0  0  0  0  0
   21.1804   18.9597   24.4419 H   0  0  0  0  0  0  0  0  0  0  0  0
   19.5803   18.9179   25.2119 H   0  0  0  0  0  0  0  0  0  0  0  0
   20.1330   20.3966   24.3976 H   0  0  0  0  0  0  0  0  0  0  0  0
  1  2  1  0  0  0  0
  1  3  2  0  0  0  0
  1  4  1  0  0  0  0
  4  5  1  0  0  0  0
  4  6  1  0  0  0  0
  4  7  1  0  0  0  0
  7  8  1  0  0  0  0
  7  9  1  0  0  0  0
  7 10  1  0  0  0  0
 10 11  1  0  0  0  0
 10 12  1  0  0  0  0
 10 13  1  0  0  0  0
 13 14  1  0  0  0  0
 13 15  1  0  0  0  0
 13 16  1  0  0  0  0
M  END
> <VConfSearch Rank>
21

> <Conf_Id>
0

> <Delta U+W>
0.000

> <U+W>
-56.904

> <U>
7.329

> <W>
-64.233

> <W(PB)>
-66.148

> <W(SA)>
1.915

> <Valence>
6.755

> <Coulomb>
-0.421

> <VdW>
0.995

> <VdW6>
-4.495

> <VdW12>
5.490

> <Bond>
0.106

> <Angle>
2.715

> <Pdih>
3.934

> <Idih>
0.000

> <Tether>
0.000

$$$$
VeraChem MOL file


 16 15  0  0  0  0  0  0  0  0999 V2000     
   19.1702   16.7611   23.0091 C   0  0  0  0  0  0  0  0  0  0  0  0
   19.2942   16.6712   24.2143 O   0  5  0  0  0  0  0  0  0  0  0  0
   18.2857   16.2134   22.3819 O   0  0  0  0  0  0  0  0  0  0  0  0
   20.1685   17.6231   22.2443 C   0  0  0  0  0  0  0  0  0  0  0  0
   20.3039   17.1854   21.2479 H   0  0  0  0  0  0  0  0  0  0  0  0
   21.1353   17.5629   22.7586 H   0  0  0  0  0  0  0  0  0  0  0  0
   19.7199   19.1002   22.1221 C   0  0  0  0  0  0  0  0  0  0  0  0
   18.7452   19.1429   21.6164 H   0  0  0  0  0  0  0  0  0  0  0  0
   19.5766   19.5205   23.1273 H   0  0  0  0  0  0  0  0  0  0  0  0
   20.7468   19.9497   21.3447 C   0  0  0  0  0  0  0  0  0  0  0  0
   20.8899   19.5301   20.3392 H   0  0  0  0  0  0  0  0  0  0  0  0
   21.7215   19.9078   21.8504 H   0  0  0  0  0  0  0  0  0  0  0  0
   20.2939   21.4184   21.2270 C   0  0  0  0  0  0  0  0  0  0  0  0
   20.1731   21.8729   22.2191 H   0  0  0  0  0  0  0  0  0  0  0  0
   19.3353   21.4925   20.6968 H   0  0  0  0  0  0  0  0  0  0  0  0
   21.0348   22.0083   20.6718 H   0  0  0  0  0  0  0  0  0  0  0  0
  1  2  1  0  0  0  0
  1  3  2  0  0  0  0
  1  4  1  0  0  0  0
  4  5  1  0  0  0  0
  4  6  1  0  0  0  0
  4  7  1  0  0  0  0
  7  8  1  0  0  0  0
  7  9  1  0  0  0  0
  7 10  1  0  0  0  0
 10 11  1  0  0  0  0
 10 12  1  0  0  0  0
 10 13  1  0  0  0  0
 13 14  1  0  0  0  0
 13 15  1  0  0  0  0
 13 16  1  0  0  0  0
M  END
> <VConfSearch Rank>
22

> <Conf_Id>
22

> <Delta U+W>
-1.185

> <U+W>
-58.089

> <U>
6.298

> <W>
-64.387

> <W(PB)>
-66.329

> <W(SA)>
1.942

> <Valence>
6.246

> <Coulomb>
-0.408

> <VdW>
0.460

> <VdW6>
-4.207

> <VdW12>
4.667

> <Bond>
0.072

> <Angle>
2.246

> <Pdih>
3.928

> <Idih>
0.001

> <Tether>
0.000

$$$$
VeraChem MOL file


 16 15  0  0  0  0  0  0  0  0999 V2000     
   21.6496   21.0374   21.4591 C   0  0  0  0  0  0  0  0  0  0  0  0
   22.7825   20.8124   21.0824 O   0  5  0  0  0  0  0  0  0  0  0  0
   21.3068   22.0862   21.9676 O   0  0  0  0  0  0  0  0  0  0  0  0
   20.6065   19.9363   21.3035 C   0  0  0  0  0  0  0  0  0  0  0  0
   20.8524   19.3590   20.4041 H   0  0  0  0  0  0  0  0  0  0  0  0
   19.6373   20.4164   21.1268 H   0  0  0  0  0  0  0  0  0  0  0  0
   20.5335   18.9988   22.5366 C   0  0  0  0  0  0  0  0  0  0  0  0
   21.5382   18.6023   22.7389 H   0  0  0  0  0  0  0  0  0  0  0  0
   20.2450   19.5807   23.4229 H   0  0  0  0  0  0  0  0  0  0  0  0
   19.5596   17.8125   22.3510 C   0  0  0  0  0  0  0  0  0  0  0  0
   19.6492   17.1430   23.2176 H   0  0  0  0  0  0  0  0  0  0  0  0
   19.8550   17.2236   21.4716 H   0  0  0  0  0  0  0  0  0  0  0  0
   18.0861   18.2509   22.2111 C   0  0  0  0  0  0  0  0  0  0  0  0
   17.9256   18.8303   21.2934 H   0  0  0  0  0  0  0  0  0  0  0  0
   17.7763   18.8660   23.0661 H   0  0  0  0  0  0  0  0  0  0  0  0
   17.4272   17.3738   22.1697 H   0  0  0  0  0  0  0  0  0  0  0  0
  1  2  1  0  0  0  0
  1  3  2  0  0  0  0
  1  4  1  0  0  0  0
  4  5  1  0  0  0  0
  4  6  1  0  0  0  0
  4  7  1  0  0  0  0
  7  8  1  0  0  0  0
  7  9  1  0  0  0  0
  7 10  1  0  0  0  0
 10 11  1  0  0  0  0
 10 12  1  0  0  0  0
 10 13  1  0  0  0  0
 13 14  1  0  0  0  0
 13 15  1  0  0  0  0
 13 16  1  0  0  0  0
M  END
> <VConfSearch Rank>
23

> <Conf_Id>
36

> <Delta U+W>
-0.427

> <U+W>
-57.331

> <U>
7.263

> <W>
-64.594

> <W(PB)>
-66.513

> <W(SA)>
1.920

> <Valence>
6.734

> <Coulomb>
-0.068

> <VdW>
0.598

> <VdW6>
-4.819

> <VdW12>
5.417

> <Bond>
0.107

> <Angle>
2.469

> <Pdih>
4.157

> <Idih>
0.001

> <Tether>
0.000

$$$$
VeraChem MOL file


 16 15  0  0  0  0  0  0  0  0999 V2000     
   17.5924   18.6546   21.0749 C   0  0  0  0  0  0  0  0  0  0  0  0
   17.3227   19.3849   20.1422 O   0  5  0  0  0  0  0  0  0  0  0  0
   16.7570   18.0540   21.7209 O   0  0  0  0  0  0  0  0  0  0  0  0
   19.0570   18.4987   21.4690 C   0  0  0  0  0  0  0  0  0  0  0  0
   19.6590   18.5768   20.5566 H   0  0  0  0  0  0  0  0  0  0  0  0
   19.1970   17.4859   21.8654 H   0  0  0  0  0  0  0  0  0  0  0  0
   19.5132   19.5494   22.5145 C   0  0  0  0  0  0  0  0  0  0  0  0
   19.4086   20.5577   22.0906 H   0  0  0  0  0  0  0  0  0  0  0  0
   18.8367   19.5040   23.3792 H   0  0  0  0  0  0  0  0  0  0  0  0
   20.9635   19.3379   23.0069 C   0  0  0  0  0  0  0  0  0  0  0  0
   21.0654   18.3338   23.4415 H   0  0  0  0  0  0  0  0  0  0  0  0
   21.1683   20.0499   23.8183 H   0  0  0  0  0  0  0  0  0  0  0  0
   22.0178   19.5323   21.8963 C   0  0  0  0  0  0  0  0  0  0  0  0
   21.9228   18.7677   21.1151 H   0  0  0  0  0  0  0  0  0  0  0  0
   23.0311   19.4581   22.3121 H   0  0  0  0  0  0  0  0  0  0  0  0
   21.9166   20.5195   21.4269 H   0  0  0  0  0  0  0  0  0  0  0  0
  1  2  1  0  0  0  0
  1  3  2  0  0  0  0
  1  4  1  0  0  0  0
  4  5  1  0  0  0  0
  4  6  1  0  0  0  0
  4  7  1  0  0  0  0
  7  8  1  0  0  0  0
  7  9  1  0  0  0  0
  7 10  1  0  0  0  0
 10 11  1  0  0  0  0
 10 12  1  0  0  0  0
 10 13  1  0  0  0  0
 13 14  1  0  0  0  0
 13 15  1  0  0  0  0
 13 16  1  0  0  0  0
M  END
> <VConfSearch Rank>
24

> <Conf_Id>
17

> <Delta U+W>
-0.432

> <U+W>
-57.336

> <U>
7.263

> <W>
-64.599

> <W(PB)>
-66.503

> <W(SA)>
1.904

> <Valence>
6.734

> <Coulomb>
-0.068

> <VdW>
0.598

> <VdW6>
-4.819

> <VdW12>
5.417

> <Bond>
0.107

> <Angle>
2.469

> <Pdih>
4.157

> <Idih>
0.001

> <Tether>
0.000

$$$$
VeraChem MOL file


 16 15  0  0  0  0  0  0  0  0999 V2000     
   19.4450   21.0799   23.2523 C   0  0  0  0  0  0  0  0  0  0  0  0
   18.6102   20.8641   24.1084 O   0  5  0  0  0  0  0  0  0  0  0  0
   20.4467   21.7405   23.4432 O   0  0  0  0  0  0  0  0  0  0  0  0
   19.2086   20.5097   21.8565 C   0  0  0  0  0  0  0  0  0  0  0  0
   19.8315   21.0618   21.1421 H   0  0  0  0  0  0  0  0  0  0  0  0
   18.1647   20.7141   21.5909 H   0  0  0  0  0  0  0  0  0  0  0  0
   19.4830   18.9877   21.7406 C   0  0  0  0  0  0  0  0  0  0  0  0
   18.8740   18.4505   22.4809 H   0  0  0  0  0  0  0  0  0  0  0  0
   19.1563   18.6410   20.7509 H   0  0  0  0  0  0  0  0  0  0  0  0
   20.9739   18.6365   21.9361 C   0  0  0  0  0  0  0  0  0  0  0  0
   21.3069   18.9607   22.9319 H   0  0  0  0  0  0  0  0  0  0  0  0
   21.5828   19.1839   21.2033 H   0  0  0  0  0  0  0  0  0  0  0  0
   21.2240   17.1232   21.7825 C   0  0  0  0  0  0  0  0  0  0  0  0
   20.6499   16.5532   22.5248 H   0  0  0  0  0  0  0  0  0  0  0  0
   22.2874   16.8907   21.9251 H   0  0  0  0  0  0  0  0  0  0  0  0
   20.9322   16.7759   20.7827 H   0  0  0  0  0  0  0  0  0  0  0  0
  1  2  1  0  0  0  0
  1  3  2  0  0  0  0
  1  4  1  0  0  0  0
  4  5  1  0  0  0  0
  4  6  1  0  0  0  0
  4  7  1  0  0  0  0
  7  8  1  0  0  0  0
  7  9  1  0  0  0  0
  7 10  1  0  0  0  0
 10 11  1  0  0  0  0
 10 12  1  0  0  0  0
 10 13  1  0  0  0  0
 13 14  1  0  0  0  0
 13 15  1  0  0  0  0
 13 16  1  0  0  0  0
M  END
> <VConfSearch Rank>
25

> <Conf_Id>
19

> <Delta U+W>
0.048

> <U+W>
-56.856

> <U>
8.276

> <W>
-65.132

> <W(PB)>
-67.031

> <W(SA)>
1.899

> <Valence>
6.513

> <Coulomb>
1.428

> <VdW>
0.335

> <VdW6>
-5.021

> <VdW12>
5.356

> <Bond>
0.092

> <Angle>
2.417

> <Pdih>
4.003

> <Idih>
0.001

> <Tether>
0.000

$$$$
VeraChem MOL file


 16 15  0  0  0  0  0  0  0  0999 V2000     
   18.7712   18.1753   20.2360 C   0  0  0  0  0  0  0  0  0  0  0  0
   19.4757   18.0796   19.2507 O   0  5  0  0  0  0  0  0  0  0  0  0
   17.6471   18.6360   20.2152 O   0  0  0  0  0  0  0  0  0  0  0  0
   19.3212   17.6673   21.5661 C   0  0  0  0  0  0  0  0  0  0  0  0
   19.7789   16.6885   21.3796 H   0  0  0  0  0  0  0  0  0  0  0  0
   18.4815   17.4991   22.2514 H   0  0  0  0  0  0  0  0  0  0  0  0
   20.3647   18.6099   22.2200 C   0  0  0  0  0  0  0  0  0  0  0  0
   20.8047   18.1051   23.0907 H   0  0  0  0  0  0  0  0  0  0  0  0
   21.1852   18.7919   21.5119 H   0  0  0  0  0  0  0  0  0  0  0  0
   19.7521   19.9547   22.6674 C   0  0  0  0  0  0  0  0  0  0  0  0
   18.9239   19.7707   23.3657 H   0  0  0  0  0  0  0  0  0  0  0  0
   19.3265   20.4786   21.8002 H   0  0  0  0  0  0  0  0  0  0  0  0
   20.8022   20.8582   23.3438 C   0  0  0  0  0  0  0  0  0  0  0  0
   21.2212   20.3742   24.2358 H   0  0  0  0  0  0  0  0  0  0  0  0
   20.3510   21.8095   23.6547 H   0  0  0  0  0  0  0  0  0  0  0  0
   21.6277   21.0833   22.6558 H   0  0  0  0  0  0  0  0  0  0  0  0
  1  2  1  0  0  0  0
  1  3  2  0  0  0  0
  1  4  1  0  0  0  0
  4  5  1  0  0  0  0
  4  6  1  0  0  0  0
  4  7  1  0  0  0  0
  7  8  1  0  0  0  0
  7  9  1  0  0  0  0
  7 10  1  0  0  0  0
 10 11  1  0  0  0  0
 10 12  1  0  0  0  0
 10 13  1  0  0  0  0
 13 14  1  0  0  0  0
 13 15  1  0  0  0  0
 13 16  1  0  0  0  0
M  END
> <VConfSearch Rank>
26

> <Conf_Id>
20

> <Delta U+W>
-0.010

> <U+W>
-56.914

> <U>
8.277

> <W>
-65.191

> <W(PB)>
-67.081

> <W(SA)>
1.890

> <Valence>
6.513

> <Coulomb>
1.429

> <VdW>
0.335

> <VdW6>
-5.021

> <VdW12>
5.356

> <Bond>
0.092

> <Angle>
2.417

> <Pdih>
4.002

> <Idih>
0.001

> <Tether>
0.000

$$$$
VeraChem MOL file


 16 15  0  0  0  0  0  0  0  0999 V2000     
   20.1506   18.6744   20.0995 C   0  0  0  0  0  0  0  0  0  0  0  0
   20.1345   19.5052   19.2128 O   0  5  0  0  0  0  0  0  0  0  0  0
   19.5581   17.6155   20.0366 O   0  0  0  0  0  0  0  0  0  0  0  0
   20.9880   18.9643   21.3423 C   0  0  0  0  0  0  0  0  0  0  0  0
   21.9860   19.2623   21.0000 H   0  0  0  0  0  0  0  0  0  0  0  0
   21.1184   18.0322   21.9040 H   0  0  0  0  0  0  0  0  0  0  0  0
   20.4059   20.0774   22.2559 C   0  0  0  0  0  0  0  0  0  0  0  0
   21.1090   20.2740   23.0765 H   0  0  0  0  0  0  0  0  0  0  0  0
   20.3390   21.0093   21.6777 H   0  0  0  0  0  0  0  0  0  0  0  0
   19.0126   19.7543   22.8460 C   0  0  0  0  0  0  0  0  0  0  0  0
   18.2909   19.5895   22.0338 H   0  0  0  0  0  0  0  0  0  0  0  0
   18.6546   20.6301   23.4045 H   0  0  0  0  0  0  0  0  0  0  0  0
   19.0191   18.5316   23.7881 C   0  0  0  0  0  0  0  0  0  0  0  0
   19.2525   17.6091   23.2413 H   0  0  0  0  0  0  0  0  0  0  0  0
   18.0337   18.4008   24.2535 H   0  0  0  0  0  0  0  0  0  0  0  0
   19.7586   18.6558   24.5898 H   0  0  0  0  0  0  0  0  0  0  0  0
  1  2  1  0  0  0  0
  1  3  2  0  0  0  0
  1  4  1  0  0  0  0
  4  5  1  0  0  0  0
  4  6  1  0  0  0  0
  4  7  1  0  0  0  0
  7  8  1  0  0  0  0
  7  9  1  0  0  0  0
  7 10  1  0  0  0  0
 10 11  1  0  0  0  0
 10 12  1  0  0  0  0
 10 13  1  0  0  0  0
 13 14  1  0  0  0  0
 13 15  1  0  0  0  0
 13 16  1  0  0  0  0
M  END
> <VConfSearch Rank>
27

> <Conf_Id>
37

> <Delta U+W>
1.063

> <U+W>
-55.841

> <U>
9.719

> <W>
-65.560

> <W(PB)>
-67.414

> <W(SA)>
1.854

> <Valence>
7.002

> <Coulomb>
2.402

> <VdW>
0.314

> <VdW6>
-5.861

> <VdW12>
6.175

> <Bond>
0.134

> <Angle>
2.733

> <Pdih>
4.133

> <Idih>
0.002

> <Tether>
0.000

$$$$
VeraChem MOL file


 16 15  0  0  0  0  0  0  0  0999 V2000     
   20.6652   17.0702   21.9049 C   0  0  0  0  0  0  0  0  0  0  0  0
   21.7487   16.6152   22.2146 O   0  5  0  0  0  0  0  0  0  0  0  0
   19.6099   16.5342   22.1794 O   0  0  0  0  0  0  0  0  0  0  0  0
   20.6325   18.3657   21.0984 C   0  0  0  0  0  0  0  0  0  0  0  0
   19.6300   18.4904   20.6734 H   0  0  0  0  0  0  0  0  0  0  0  0
   21.3152   18.2383   20.2501 H   0  0  0  0  0  0  0  0  0  0  0  0
   21.0463   19.6273   21.9044 C   0  0  0  0  0  0  0  0  0  0  0  0
   22.0737   19.4912   22.2696 H   0  0  0  0  0  0  0  0  0  0  0  0
   21.0717   20.4935   21.2296 H   0  0  0  0  0  0  0  0  0  0  0  0
   20.1265   19.9458   23.1071 C   0  0  0  0  0  0  0  0  0  0  0  0
   20.5476   20.7990   23.6566 H   0  0  0  0  0  0  0  0  0  0  0  0
   20.1201   19.0995   23.8081 H   0  0  0  0  0  0  0  0  0  0  0  0
   18.6790   20.2856   22.6931 C   0  0  0  0  0  0  0  0  0  0  0  0
   18.6598   21.1065   21.9644 H   0  0  0  0  0  0  0  0  0  0  0  0
   18.0926   20.5955   23.5678 H   0  0  0  0  0  0  0  0  0  0  0  0
   18.1775   19.4163   22.2489 H   0  0  0  0  0  0  0  0  0  0  0  0
  1  2  1  0  0  0  0
  1  3  2  0  0  0  0
  1  4  1  0  0  0  0
  4  5  1  0  0  0  0
  4  6  1  0  0  0  0
  4  7  1  0  0  0  0
  7  8  1  0  0  0  0
  7  9  1  0  0  0  0
  7 10  1  0  0  0  0
 10 11  1  0  0  0  0
 10 12  1  0  0  0  0
 10 13  1  0  0  0  0
 13 14  1  0  0  0  0
 13 15  1  0  0  0  0
 13 16  1  0  0  0  0
M  END
> <VConfSearch Rank>
28

> <Conf_Id>
39

> <Delta U+W>
1.129

> <U+W>
-55.775

> <U>
9.718

> <W>
-65.493

> <W(PB)>
-67.361

> <W(SA)>
1.869

> <Valence>
7.002

> <Coulomb>
2.402

> <VdW>
0.314

> <VdW6>
-5.861

> <VdW12>
6.175

> <Bond>
0.134

> <Angle>
2.734

> <Pdih>
4.133

> <Idih>
0.002

> <Tether>
0.000

$$$$
VeraChem MOL file


 16 15  0  0  0  0  0  0  0  0999 V2000     
   18.0429   19.6286   22.7557 C   0  0  0  0  0  0  0  0  0  0  0  0
   17.5858   20.4051   21.9403 O   0  5  0  0  0  0  0  0  0  0  0  0
   17.9944   19.8139   23.9558 O   0  0  0  0  0  0  0  0  0  0  0  0
   18.6270   18.3113   22.2483 C   0  0  0  0  0  0  0  0  0  0  0  0
   18.5217   18.2710   21.1573 H   0  0  0  0  0  0  0  0  0  0  0  0
   17.9918   17.5153   22.6539 H   0  0  0  0  0  0  0  0  0  0  0  0
   20.1019   18.0375   22.6567 C   0  0  0  0  0  0  0  0  0  0  0  0
   20.2473   18.2785   23.7189 H   0  0  0  0  0  0  0  0  0  0  0  0
   20.2846   16.9584   22.5635 H   0  0  0  0  0  0  0  0  0  0  0  0
   21.1585   18.7710   21.7959 C   0  0  0  0  0  0  0  0  0  0  0  0
   21.0085   18.5290   20.7347 H   0  0  0  0  0  0  0  0  0  0  0  0
   22.1522   18.3854   22.0627 H   0  0  0  0  0  0  0  0  0  0  0  0
   21.1620   20.3024   21.9835 C   0  0  0  0  0  0  0  0  0  0  0  0
   20.2505   20.7568   21.5765 H   0  0  0  0  0  0  0  0  0  0  0  0
   22.0161   20.7513   21.4603 H   0  0  0  0  0  0  0  0  0  0  0  0
   21.2362   20.5692   23.0459 H   0  0  0  0  0  0  0  0  0  0  0  0
  1  2  1  0  0  0  0
  1  3  2  0  0  0  0
  1  4  1  0  0  0  0
  4  5  1  0  0  0  0
  4  6  1  0  0  0  0
  4  7  1  0  0  0  0
  7  8  1  0  0  0  0
  7  9  1  0  0  0  0
  7 10  1  0  0  0  0
 10 11  1  0  0  0  0
 10 12  1  0  0  0  0
 10 13  1  0  0  0  0
 13 14  1  0  0  0  0
 13 15  1  0  0  0  0
 13 16  1  0  0  0  0
M  END
> <VConfSearch Rank>
29

> <Conf_Id>
47

> <Delta U+W>
2.301

> <U+W>
-54.603

> <U>
11.258

> <W>
-65.861

> <W(PB)>
-67.702

> <W(SA)>
1.841

> <Valence>
8.169

> <Coulomb>
2.735

> <VdW>
0.355

> <VdW6>
-6.245

> <VdW12>
6.600

> <Bond>
0.149

> <Angle>
3.168

> <Pdih>
4.840

> <Idih>
0.011

> <Tether>
0.000

$$$$
VeraChem MOL file


 16 15  0  0  0  0  0  0  0  0999 V2000     
   18.2516   19.7162   23.2545 C   0  0  0  0  0  0  0  0  0  0  0  0
   18.0910   20.9035   23.0503 O   0  5  0  0  0  0  0  0  0  0  0  0
   18.1984   19.2149   24.3603 O   0  0  0  0  0  0  0  0  0  0  0  0
   18.4404   18.7927   22.0524 C   0  0  0  0  0  0  0  0  0  0  0  0
   17.5275   18.8774   21.4515 H   0  0  0  0  0  0  0  0  0  0  0  0
   18.4889   17.7548   22.4039 H   0  0  0  0  0  0  0  0  0  0  0  0
   19.6678   19.1141   21.1539 C   0  0  0  0  0  0  0  0  0  0  0  0
   19.4990   18.6522   20.1717 H   0  0  0  0  0  0  0  0  0  0  0  0
   19.7265   20.1965   20.9735 H   0  0  0  0  0  0  0  0  0  0  0  0
   21.0204   18.5914   21.6950 C   0  0  0  0  0  0  0  0  0  0  0  0
   21.7828   18.7296   20.9159 H   0  0  0  0  0  0  0  0  0  0  0  0
   20.9569   17.5095   21.8758 H   0  0  0  0  0  0  0  0  0  0  0  0
   21.4970   19.3048   22.9772 C   0  0  0  0  0  0  0  0  0  0  0  0
   22.5180   18.9933   23.2329 H   0  0  0  0  0  0  0  0  0  0  0  0
   20.8544   19.0614   23.8321 H   0  0  0  0  0  0  0  0  0  0  0  0
   21.4976   20.3946   22.8449 H   0  0  0  0  0  0  0  0  0  0  0  0
  1  2  1  0  0  0  0
  1  3  2  0  0  0  0
  1  4  1  0  0  0  0
  4  5  1  0  0  0  0
  4  6  1  0  0  0  0
  4  7  1  0  0  0  0
  7  8  1  0  0  0  0
  7  9  1  0  0  0  0
  7 10  1  0  0  0  0
 10 11  1  0  0  0  0
 10 12  1  0  0  0  0
 10 13  1  0  0  0  0
 13 14  1  0  0  0  0
 13 15  1  0  0  0  0
 13 16  1  0  0  0  0
M  END
> <VConfSearch Rank>
30

> <Conf_Id>
45

> <Delta U+W>
2.303

> <U+W>
-54.601

> <U>
11.258

> <W>
-65.860

> <W(PB)>
-67.709

> <W(SA)>
1.849

> <Valence>
8.169

> <Coulomb>
2.735

> <VdW>
0.355

> <VdW6>
-6.245

> <VdW12>
6.600

> <Bond>
0.149

> <Angle>
3.168

> <Pdih>
4.840

> <Idih>
0.011

> <Tether>
0.000

$$$$
VeraChem MOL file


 16 15  0  0  0  0  0  0  0  0999 V2000     
   18.8620   19.5795   19.4561 C   0  0  0  0  0  0  0  0  0  0  0  0
   19.8896   19.9908   18.9534 O   0  5  0  0  0  0  0  0  0  0  0  0
   17.8137   19.4983   18.8480 O   0  0  0  0  0  0  0  0  0  0  0  0
   18.8562   19.1365   20.9201 C   0  0  0  0  0  0  0  0  0  0  0  0
   18.5142   18.0950   20.9455 H   0  0  0  0  0  0  0  0  0  0  0  0
   18.0991   19.7353   21.4403 H   0  0  0  0  0  0  0  0  0  0  0  0
   20.2169   19.2589   21.6561 C   0  0  0  0  0  0  0  0  0  0  0  0
   20.9725   18.6613   21.1274 H   0  0  0  0  0  0  0  0  0  0  0  0
   20.5569   20.3032   21.6227 H   0  0  0  0  0  0  0  0  0  0  0  0
   20.1193   18.7915   23.1236 C   0  0  0  0  0  0  0  0  0  0  0  0
   19.7811   17.7466   23.1583 H   0  0  0  0  0  0  0  0  0  0  0  0
   19.3653   19.3895   23.6539 H   0  0  0  0  0  0  0  0  0  0  0  0
   21.4737   18.9154   23.8491 C   0  0  0  0  0  0  0  0  0  0  0  0
   22.2401   18.3019   23.3576 H   0  0  0  0  0  0  0  0  0  0  0  0
   21.3869   18.5793   24.8905 H   0  0  0  0  0  0  0  0  0  0  0  0
   21.8213   19.9569   23.8568 H   0  0  0  0  0  0  0  0  0  0  0  0
  1  2  1  0  0  0  0
  1  3  2  0  0  0  0
  1  4  1  0  0  0  0
  4  5  1  0  0  0  0
  4  6  1  0  0  0  0
  4  7  1  0  0  0  0
  7  8  1  0  0  0  0
  7  9  1  0  0  0  0
  7 10  1  0  0  0  0
 10 11  1  0  0  0  0
 10 12  1  0  0  0  0
 10 13  1  0  0  0  0
 13 14  1  0  0  0  0
 13 15  1  0  0  0  0
 13 16  1  0  0  0  0
M  END
> <VConfSearch Rank>
31

> <Conf_Id>
0

> <Delta U+W>
0.000

> <U+W>
-56.904

> <U>
7.329

> <W>
-64.233

> <W(PB)>
-66.148

> <W(SA)>
1.915

> <Valence>
6.755

> <Coulomb>
-0.421

> <VdW>
0.995

> <VdW6>
-4.495

> <VdW12>
5.490

> <Bond>
0.106

> <Angle>
2.715

> <Pdih>
3.934

> <Idih>
0.000

> <Tether>
0.000

$$$$
VeraChem MOL file


 16 15  0  0  0  0  0  0  0  0999 V2000     
   22.5547   20.1137   22.3247 C   0  0  0  0  0  0  0  0  0  0  0  0
   23.4363   19.4948   21.7630 O   0  5  0  0  0  0  0  0  0  0  0  0
   22.6042   21.3085   22.5391 O   0  0  0  0  0  0  0  0  0  0  0  0
   21.3103   19.3529   22.7685 C   0  0  0  0  0  0  0  0  0  0  0  0
   20.9259   19.8290   23.6787 H   0  0  0  0  0  0  0  0  0  0  0  0
   21.6119   18.3337   23.0388 H   0  0  0  0  0  0  0  0  0  0  0  0
   20.2085   19.3128   21.6811 C   0  0  0  0  0  0  0  0  0  0  0  0
   19.9260   20.3402   21.4124 H   0  0  0  0  0  0  0  0  0  0  0  0
   20.6121   18.8449   20.7724 H   0  0  0  0  0  0  0  0  0  0  0  0
   18.9615   18.5377   22.1553 C   0  0  0  0  0  0  0  0  0  0  0  0
   18.5572   19.0058   23.0636 H   0  0  0  0  0  0  0  0  0  0  0  0
   19.2435   17.5100   22.4235 H   0  0  0  0  0  0  0  0  0  0  0  0
   17.8694   18.5019   21.0681 C   0  0  0  0  0  0  0  0  0  0  0  0
   18.2372   18.0102   20.1579 H   0  0  0  0  0  0  0  0  0  0  0  0
   17.5459   19.5170   20.8028 H   0  0  0  0  0  0  0  0  0  0  0  0
   16.9902   17.9474   21.4212 H   0  0  0  0  0  0  0  0  0  0  0  0
  1  2  1  0  0  0  0
  1  3  2  0  0  0  0
  1  4  1  0  0  0  0
  4  5  1  0  0  0  0
  4  6  1  0  0  0  0
  4  7  1  0  0  0  0
  7  8  1  0  0  0  0
  7  9  1  0  0  0  0
  7 10  1  0  0  0  0
 10 11  1  0  0  0  0
 10 12  1  0  0  0  0
 10 13  1  0  0  0  0
 13 14  1  0  0  0  0
 13 15  1  0  0  0  0
 13 16  1  0  0  0  0
M  END
> <VConfSearch Rank>
32

> <Conf_Id>
22

> <Delta U+W>
-1.185

> <U+W>
-58.089

> <U>
6.298

> <W>
-64.387

> <W(PB)>
-66.329

> <W(SA)>
1.942

> <Valence>
6.246

> <Coulomb>
-0.408

> <VdW>
0.460

> <VdW6>
-4.207

> <VdW12>
4.667

> <Bond>
0.072

> <Angle>
2.246

> <Pdih>
3.928

> <Idih>
0.001

> <Tether>
0.000

$$$$
VeraChem MOL file


 16 15  0  0  0  0  0  0  0  0999 V2000     
   22.0307   20.1073   23.2157 C   0  0  0  0  0  0  0  0  0  0  0  0
   23.1678   19.8333   22.8872 O   0  5  0  0  0  0  0  0  0  0  0  0
   21.7323   20.5273   24.3159 O   0  0  0  0  0  0  0  0  0  0  0  0
   20.9155   19.8933   22.1983 C   0  0  0  0  0  0  0  0  0  0  0  0
   21.3274   20.0746   21.1983 H   0  0  0  0  0  0  0  0  0  0  0  0
   20.1488   20.6557   22.3772 H   0  0  0  0  0  0  0  0  0  0  0  0
   20.2987   18.4723   22.2725 C   0  0  0  0  0  0  0  0  0  0  0  0
   21.1049   17.7319   22.1764 H   0  0  0  0  0  0  0  0  0  0  0  0
   19.8518   18.3180   23.2643 H   0  0  0  0  0  0  0  0  0  0  0  0
   19.2427   18.2019   21.1761 C   0  0  0  0  0  0  0  0  0  0  0  0
   18.9390   17.1473   21.2307 H   0  0  0  0  0  0  0  0  0  0  0  0
   19.6926   18.3447   20.1839 H   0  0  0  0  0  0  0  0  0  0  0  0
   17.9864   19.0890   21.3090 C   0  0  0  0  0  0  0  0  0  0  0  0
   18.2244   20.1478   21.1475 H   0  0  0  0  0  0  0  0  0  0  0  0
   17.5353   18.9847   22.3045 H   0  0  0  0  0  0  0  0  0  0  0  0
   17.2328   18.8007   20.5647 H   0  0  0  0  0  0  0  0  0  0  0  0
  1  2  1  0  0  0  0
  1  3  2  0  0  0  0
  1  4  1  0  0  0  0
  4  5  1  0  0  0  0
  4  6  1  0  0  0  0
  4  7  1  0  0  0  0
  7  8  1  0  0  0  0
  7  9  1  0  0  0  0
  7 10  1  0  0  0  0
 10 11  1  0  0  0  0
 10 12  1  0  0  0  0
 10 13  1  0  0  0  0
 13 14  1  0  0  0  0
 13 15  1  0  0  0  0
 13 16  1  0  0  0  0
M  END
> <VConfSearch Rank>
33

> <Conf_Id>
36

> <Delta U+W>
-0.427

> <U+W>
-57.331

> <U>
7.263

> <W>
-64.594

> <W(PB)>
-66.513

> <W(SA)>
1.920

> <Valence>
6.734

> <Coulomb>
-0.068

> <VdW>
0.598

> <VdW6>
-4.819

> <VdW12>
5.417

> <Bond>
0.107

> <Angle>
2.469

> <Pdih>
4.157

> <Idih>
0.001

> <Tether>
0.000

$$$$
VeraChem MOL file


 16 15  0  0  0  0  0  0  0  0999 V2000     
   18.5148   19.6304   19.9015 C   0  0  0  0  0  0  0  0  0  0  0  0
   17.3588   19.3038   20.0830 O   0  5  0  0  0  0  0  0  0  0  0  0
   18.9982   19.8056   18.8008 O   0  0  0  0  0  0  0  0  0  0  0  0
   19.4134   19.8108   21.1200 C   0  0  0  0  0  0  0  0  0  0  0  0
   18.7917   20.1846   21.9415 H   0  0  0  0  0  0  0  0  0  0  0  0
   20.1491   20.5902   20.8881 H   0  0  0  0  0  0  0  0  0  0  0  0
   20.1344   18.5018   21.5342 C   0  0  0  0  0  0  0  0  0  0  0  0
   19.3881   17.7421   21.8051 H   0  0  0  0  0  0  0  0  0  0  0  0
   20.6776   18.1073   20.6643 H   0  0  0  0  0  0  0  0  0  0  0  0
   21.1330   18.6914   22.6992 C   0  0  0  0  0  0  0  0  0  0  0  0
   21.8863   19.4425   22.4240 H   0  0  0  0  0  0  0  0  0  0  0  0
   21.6763   17.7493   22.8556 H   0  0  0  0  0  0  0  0  0  0  0  0
   20.4528   19.0994   24.0236 C   0  0  0  0  0  0  0  0  0  0  0  0
   19.9911   20.0918   23.9480 H   0  0  0  0  0  0  0  0  0  0  0  0
   21.1888   19.1365   24.8372 H   0  0  0  0  0  0  0  0  0  0  0  0
   19.6748   18.3775   24.3043 H   0  0  0  0  0  0  0  0  0  0  0  0
  1  2  1  0  0  0  0
  1  3  2  0  0  0  0
  1  4  1  0  0  0  0
  4  5  1  0  0  0  0
  4  6  1  0  0  0  0
  4  7  1  0  0  0  0
  7  8  1  0  0  0  0
  7  9  1  0  0  0  0
  7 10  1  0  0  0  0
 10 11  1  0  0  0  0
 10 12  1  0  0  0  0
 10 13  1  0  0  0  0
 13 14  1  0  0  0  0
 13 15  1  0  0  0  0
 13 16  1  0  0  0  0
M  END
> <VConfSearch Rank>
34

> <Conf_Id>
17

> <Delta U+W>
-0.432

> <U+W>
-57.336

> <U>
7.263

> <W>
-64.599

> <W(PB)>
-66.503

> <W(SA)>
1.904

> <Valence>
6.734

> <Coulomb>
-0.068

> <VdW>
0.598

> <VdW6>
-4.819

> <VdW12>
5.417

> <Bond>
0.107

> <Angle>
2.469

> <Pdih>
4.157

> <Idih>
0.001

> <Tether>
0.000

$$$$
VeraChem MOL file


 16 15  0  0  0  0  0  0  0  0999 V2000     
   18.0118   20.0748   22.5513 C   0  0  0  0  0  0  0  0  0  0  0  0
   17.1256   19.6458   21.8392 O   0  5  0  0  0  0  0  0  0  0  0  0
   17.9239   20.1495   23.7608 O   0  0  0  0  0  0  0  0  0  0  0  0
   19.2940   20.5682   21.8865 C   0  0  0  0  0  0  0  0  0  0  0  0
   19.8238   21.2229   22.5892 H   0  0  0  0  0  0  0  0  0  0  0  0
   19.0023   21.1903   21.0320 H   0  0  0  0  0  0  0  0  0  0  0  0
   20.2325   19.4324   21.4025 C   0  0  0  0  0  0  0  0  0  0  0  0
   19.6805   18.7689   20.7223 H   0  0  0  0  0  0  0  0  0  0  0  0
   21.0526   19.8721   20.8188 H   0  0  0  0  0  0  0  0  0  0  0  0
   20.8222   18.6114   22.5697 C   0  0  0  0  0  0  0  0  0  0  0  0
   20.0107   18.1495   23.1493 H   0  0  0  0  0  0  0  0  0  0  0  0
   21.3633   19.2780   23.2555 H   0  0  0  0  0  0  0  0  0  0  0  0
   21.7768   17.5120   22.0633 C   0  0  0  0  0  0  0  0  0  0  0  0
   21.2525   16.8127   21.3988 H   0  0  0  0  0  0  0  0  0  0  0  0
   22.1861   16.9378   22.9047 H   0  0  0  0  0  0  0  0  0  0  0  0
   22.6184   17.9471   21.5085 H   0  0  0  0  0  0  0  0  0  0  0  0
  1  2  1  0  0  0  0
  1  3  2  0  0  0  0
  1  4  1  0  0  0  0
  4  5  1  0  0  0  0
  4  6  1  0  0  0  0
  4  7  1  0  0  0  0
  7  8  1  0  0  0  0
  7  9  1  0  0  0  0
  7 10  1  0  0  0  0
 10 11  1  0  0  0  0
 10 12  1  0  0  0  0
 10 13  1  0  0  0  0
 13 14  1  0  0  0  0
 13 15  1  0  0  0  0
 13 16  1  0  0  0  0
M  END
> <VConfSearch Rank>
35

> <Conf_Id>
19

> <Delta U+W>
0.048

> <U+W>
-56.856

> <U>
8.276

> <W>
-65.132

> <W(PB)>
-67.031

> <W(SA)>
1.899

> <Valence>
6.513

> <Coulomb>
1.428

> <VdW>
0.335

> <VdW6>
-5.021

> <VdW12>
5.356

> <Bond>
0.092

> <Angle>
2.417

> <Pdih>
4.003

> <Idih>
0.001

> <Tether>
0.000

$$$$
VeraChem MOL file


 16 15  0  0  0  0  0  0  0  0999 V2000     
   19.0071   17.1015   22.8827 C   0  0  0  0  0  0  0  0  0  0  0  0
   18.1912   17.2253   23.7744 O   0  5  0  0  0  0  0  0  0  0  0  0
   19.9485   16.3352   22.9360 O   0  0  0  0  0  0  0  0  0  0  0  0
   18.8245   17.9374   21.6188 C   0  0  0  0  0  0  0  0  0  0  0  0
   17.7677   17.8741   21.3333 H   0  0  0  0  0  0  0  0  0  0  0  0
   19.4003   17.4761   20.8071 H   0  0  0  0  0  0  0  0  0  0  0  0
   19.2277   19.4260   21.7817 C   0  0  0  0  0  0  0  0  0  0  0  0
   18.9348   19.9756   20.8769 H   0  0  0  0  0  0  0  0  0  0  0  0
   18.6642   19.8667   22.6159 H   0  0  0  0  0  0  0  0  0  0  0  0
   20.7424   19.6083   22.0196 C   0  0  0  0  0  0  0  0  0  0  0  0
   21.3048   19.1563   21.1909 H   0  0  0  0  0  0  0  0  0  0  0  0
   21.0435   19.0790   22.9344 H   0  0  0  0  0  0  0  0  0  0  0  0
   21.1208   21.0975   22.1443 C   0  0  0  0  0  0  0  0  0  0  0  0
   20.8628   21.6466   21.2292 H   0  0  0  0  0  0  0  0  0  0  0  0
   22.1996   21.2093   22.3138 H   0  0  0  0  0  0  0  0  0  0  0  0
   20.5949   21.5669   22.9860 H   0  0  0  0  0  0  0  0  0  0  0  0
  1  2  1  0  0  0  0
  1  3  2  0  0  0  0
  1  4  1  0  0  0  0
  4  5  1  0  0  0  0
  4  6  1  0  0  0  0
  4  7  1  0  0  0  0
  7  8  1  0  0  0  0
  7  9  1  0  0  0  0
  7 10  1  0  0  0  0
 10 11  1  0  0  0  0
 10 12  1  0  0  0  0
 10 13  1  0  0  0  0
 13 14  1  0  0  0  0
 13 15  1  0  0  0  0
 13 16  1  0  0  0  0
M  END
> <VConfSearch Rank>
36

> <Conf_Id>
20

> <Delta U+W>
-0.010

> <U+W>
-56.914

> <U>
8.277

> <W>
-65.191

> <W(PB)>
-67.081

> <W(SA)>
1.890

> <Valence>
6.513

> <Coulomb>
1.429

> <VdW>
0.335

> <VdW6>
-5.021

> <VdW12>
5.356

> <Bond>
0.092

> <Angle>
2.417

> <Pdih>
4.002

> <Idih>
0.001

> <Tether>
0.000

$$$$
VeraChem MOL file


 16 15  0  0  0  0  0  0  0  0999 V2000     
   18.4253   18.1699   23.4245 C   0  0  0  0  0  0  0  0  0  0  0  0
   18.6872   17.7512   24.5348 O   0  5  0  0  0  0  0  0  0  0  0  0
   17.8131   17.5288   22.5936 O   0  0  0  0  0  0  0  0  0  0  0  0
   18.8601   19.5893   23.0696 C   0  0  0  0  0  0  0  0  0  0  0  0
   18.5202   20.2459   23.8791 H   0  0  0  0  0  0  0  0  0  0  0  0
   18.3242   19.9064   22.1676 H   0  0  0  0  0  0  0  0  0  0  0  0
   20.3930   19.7571   22.8831 C   0  0  0  0  0  0  0  0  0  0  0  0
   20.6210   20.8176   22.7110 H   0  0  0  0  0  0  0  0  0  0  0  0
   20.8946   19.4826   23.8214 H   0  0  0  0  0  0  0  0  0  0  0  0
   20.9914   18.9145   21.7316 C   0  0  0  0  0  0  0  0  0  0  0  0
   20.8001   17.8472   21.9100 H   0  0  0  0  0  0  0  0  0  0  0  0
   22.0831   19.0377   21.7352 H   0  0  0  0  0  0  0  0  0  0  0  0
   20.4501   19.3118   20.3418 C   0  0  0  0  0  0  0  0  0  0  0  0
   19.3793   19.0881   20.2529 H   0  0  0  0  0  0  0  0  0  0  0  0
   20.9718   18.7543   19.5532 H   0  0  0  0  0  0  0  0  0  0  0  0
   20.5971   20.3832   20.1531 H   0  0  0  0  0  0  0  0  0  0  0  0
  1  2  1  0  0  0  0
  1  3  2  0  0  0  0
  1  4  1  0  0  0  0
  4  5  1  0  0  0  0
  4  6  1  0  0  0  0
  4  7  1  0  0  0  0
  7  8  1  0  0  0  0
  7  9  1  0  0  0  0
  7 10  1  0  0  0  0
 10 11  1  0  0  0  0
 10 12  1  0  0  0  0
 10 13  1  0  0  0  0
 13 14  1  0  0  0  0
 13 15  1  0  0  0  0
 13 16  1  0  0  0  0
M  END
> <VConfSearch Rank>
37

> <Conf_Id>
37

> <Delta U+W>
1.063

> <U+W>
-55.841

> <U>
9.719

> <W>
-65.560

> <W(PB)>
-67.414

> <W(SA)>
1.854

> <Valence>
7.002

> <Coulomb>
2.402

> <VdW>
0.314

> <VdW6>
-5.861

> <VdW12>
6.175

> <Bond>
0.134

> <Angle>
2.733

> <Pdih>
4.133

> <Idih>
0.002

> <Tether>
0.000

$$$$
VeraChem MOL file


 16 15  0  0  0  0  0  0  0  0999 V2000     
   22.2643   19.4374   22.2224 C   0  0  0  0  0  0  0  0  0  0  0  0
   23.0457   18.7695   21.5742 O   0  5  0  0  0  0  0  0  0  0  0  0
   22.3149   20.6495   22.2909 O   0  0  0  0  0  0  0  0  0  0  0  0
   21.1845   18.7103   23.0192 C   0  0  0  0  0  0  0  0  0  0  0  0
   20.7523   19.4087   23.7450 H   0  0  0  0  0  0  0  0  0  0  0  0
   21.6823   17.9263   23.6019 H   0  0  0  0  0  0  0  0  0  0  0  0
   20.0713   18.0705   22.1451 C   0  0  0  0  0  0  0  0  0  0  0  0
   20.5318   17.3380   21.4679 H   0  0  0  0  0  0  0  0  0  0  0  0
   19.3867   17.5046   22.7912 H   0  0  0  0  0  0  0  0  0  0  0  0
   19.2576   19.0844   21.3060 C   0  0  0  0  0  0  0  0  0  0  0  0
   18.5576   18.5304   20.6655 H   0  0  0  0  0  0  0  0  0  0  0  0
   19.9273   19.6334   20.6294 H   0  0  0  0  0  0  0  0  0  0  0  0
   18.4587   20.0853   22.1676 C   0  0  0  0  0  0  0  0  0  0  0  0
   17.8066   19.5609   22.8781 H   0  0  0  0  0  0  0  0  0  0  0  0
   17.8268   20.7192   21.5323 H   0  0  0  0  0  0  0  0  0  0  0  0
   19.1278   20.7457   22.7338 H   0  0  0  0  0  0  0  0  0  0  0  0
  1  2  1  0  0  0  0
  1  3  2  0  0  0  0
  1  4  1  0  0  0  0
  4  5  1  0  0  0  0
  4  6  1  0  0  0  0
  4  7  1  0  0  0  0
  7  8  1  0  0  0  0
  7  9  1  0  0  0  0
  7 10  1  0  0  0  0
 10 11  1  0  0  0  0
 10 12  1  0  0  0  0
 10 13  1  0  0  0  0
 13 14  1  0  0  0  0
 13 15  1  0  0  0  0
 13 16  1  0  0  0  0
M  END
> <VConfSearch Rank>
38

> <Conf_Id>
39

> <Delta U+W>
1.129

> <U+W>
-55.775

> <U>
9.718

> <W>
-65.493

> <W(PB)>
-67.361

> <W(SA)>
1.869

> <Valence>
7.002

> <Coulomb>
2.402

> <VdW>
0.314

> <VdW6>
-5.861

> <VdW12>
6.175

> <Bond>
0.134

> <Angle>
2.734

> <Pdih>
4.133

> <Idih>
0.002

> <Tether>
0.000

$$$$
VeraChem MOL file


 16 15  0  0  0  0  0  0  0  0999 V2000     
   20.7783   18.8293   24.0428 C   0  0  0  0  0  0  0  0  0  0  0  0
   21.4823   17.8387   24.0483 O   0  5  0  0  0  0  0  0  0  0  0  0
   19.9711   19.0807   24.9159 O   0  0  0  0  0  0  0  0  0  0  0  0
   20.9838   19.8536   22.9282 C   0  0  0  0  0  0  0  0  0  0  0  0
   21.7966   19.5125   22.2755 H   0  0  0  0  0  0  0  0  0  0  0  0
   21.3360   20.7714   23.4134 H   0  0  0  0  0  0  0  0  0  0  0  0
   19.7190   20.1815   22.0857 C   0  0  0  0  0  0  0  0  0  0  0  0
   18.8539   20.3229   22.7484 H   0  0  0  0  0  0  0  0  0  0  0  0
   19.8826   21.1485   21.5911 H   0  0  0  0  0  0  0  0  0  0  0  0
   19.3842   19.1415   20.9895 C   0  0  0  0  0  0  0  0  0  0  0  0
   20.2522   19.0016   20.3304 H   0  0  0  0  0  0  0  0  0  0  0  0
   18.5808   19.5474   20.3594 H   0  0  0  0  0  0  0  0  0  0  0  0
   18.9280   17.7758   21.5437 C   0  0  0  0  0  0  0  0  0  0  0  0
   19.7518   17.2523   22.0438 H   0  0  0  0  0  0  0  0  0  0  0  0
   18.5728   17.1305   20.7299 H   0  0  0  0  0  0  0  0  0  0  0  0
   18.1080   17.8966   22.2636 H   0  0  0  0  0  0  0  0  0  0  0  0
  1  2  1  0  0  0  0
  1  3  2  0  0  0  0
  1  4  1  0  0  0  0
  4  5  1  0  0  0  0
  4  6  1  0  0  0  0
  4  7  1  0  0  0  0
  7  8  1  0  0  0  0
  7  9  1  0  0  0  0
  7 10  1  0  0  0  0
 10 11  1  0  0  0  0
 10 12  1  0  0  0  0
 10 13  1  0  0  0  0
 13 14  1  0  0  0  0
 13 15  1  0  0  0  0
 13 16  1  0  0  0  0
M  END
> <VConfSearch Rank>
39

> <Conf_Id>
47

> <Delta U+W>
2.301

> <U+W>
-54.603

> <U>
11.258

> <W>
-65.861

> <W(PB)>
-67.702

> <W(SA)>
1.841

> <Valence>
8.169

> <Coulomb>
2.735

> <VdW>
0.355

> <VdW6>
-6.245

> <VdW12>
6.600

> <Bond>
0.149

> <Angle>
3.168

> <Pdih>
4.840

> <Idih>
0.011

> <Tether>
0.000

$$$$
VeraChem MOL file


 16 15  0  0  0  0  0  0  0  0999 V2000     
   18.1088   19.8462   21.6992 C   0  0  0  0  0  0  0  0  0  0  0  0
   17.3603   18.9179   21.4644 O   0  5  0  0  0  0  0  0  0  0  0  0
   18.2451   20.7992   20.9575 O   0  0  0  0  0  0  0  0  0  0  0  0
   18.8485   19.8611   23.0357 C   0  0  0  0  0  0  0  0  0  0  0  0
   18.0779   19.8869   23.8149 H   0  0  0  0  0  0  0  0  0  0  0  0
   19.4121   20.7982   23.1213 H   0  0  0  0  0  0  0  0  0  0  0  0
   19.7839   18.6458   23.2911 C   0  0  0  0  0  0  0  0  0  0  0  0
   19.9603   18.5753   24.3729 H   0  0  0  0  0  0  0  0  0  0  0  0
   19.2745   17.7148   23.0060 H   0  0  0  0  0  0  0  0  0  0  0  0
   21.1625   18.7324   22.5928 C   0  0  0  0  0  0  0  0  0  0  0  0
   21.7928   17.9134   22.9660 H   0  0  0  0  0  0  0  0  0  0  0  0
   21.6676   19.6653   22.8789 H   0  0  0  0  0  0  0  0  0  0  0  0
   21.0903   18.6318   21.0550 C   0  0  0  0  0  0  0  0  0  0  0  0
   22.0985   18.5582   20.6273 H   0  0  0  0  0  0  0  0  0  0  0  0
   20.6110   19.5167   20.6188 H   0  0  0  0  0  0  0  0  0  0  0  0
   20.5241   17.7440   20.7442 H   0  0  0  0  0  0  0  0  0  0  0  0
  1  2  1  0  0  0  0
  1  3  2  0  0  0  0
  1  4  1  0  0  0  0
  4  5  1  0  0  0  0
  4  6  1  0  0  0  0
  4  7  1  0  0  0  0
  7  8  1  0  0  0  0
  7  9  1  0  0  0  0
  7 10  1  0  0  0  0
 10 11  1  0  0  0  0
 10 12  1  0  0  0  0
 10 13  1  0  0  0  0
 13 14  1  0  0  0  0
 13 15  1  0  0  0  0
 13 16  1  0  0  0  0
M  END
> <VConfSearch Rank>
40

> <Conf_Id>
45

> <Delta U+W>
2.303

> <U+W>
-54.601

> <U>
11.258

> <W>
-65.860

> <W(PB)>
-67.709

> <W(SA)>
1.849

> <Valence>
8.169

> <Coulomb>
2.735

> <VdW>
0.355

> <VdW6>
-6.245

> <VdW12>
6.600

> <Bond>
0.149

> <Angle>
3.168

> <Pdih>
4.840

> <Idih>
0.011

> <Tether>
0.000

$$$$
VeraChem MOL file


 16 15  0  0  0  0  0  0  0  0999 V2000     
   18.3093   17.5265   20.4389 C   0  0  0  0  0  0  0  0  0  0  0  0
   18.0203   16.7986   21.3686 O   0  5  0  0  0  0  0  0  0  0  0  0
   17.8611   17.3806   19.3195 O   0  0  0  0  0  0  0  0  0  0  0  0
   19.2799   18.6886   20.6566 C   0  0  0  0  0  0  0  0  0  0  0  0
   18.7603   19.6083   20.3628 H   0  0  0  0  0  0  0  0  0  0  0  0
   20.1136   18.5540   19.9573 H   0  0  0  0  0  0  0  0  0  0  0  0
   19.8268   18.8350   22.1015 C   0  0  0  0  0  0  0  0  0  0  0  0
   18.9868   18.9640   22.7980 H   0  0  0  0  0  0  0  0  0  0  0  0
   20.3415   17.9086   22.3921 H   0  0  0  0  0  0  0  0  0  0  0  0
   20.7956   20.0292   22.2298 C   0  0  0  0  0  0  0  0  0  0  0  0
   20.2815   20.9565   21.9411 H   0  0  0  0  0  0  0  0  0  0  0  0
   21.6371   19.9005   21.5349 H   0  0  0  0  0  0  0  0  0  0  0  0
   21.3353   20.1693   23.6669 C   0  0  0  0  0  0  0  0  0  0  0  0
   20.5162   20.3307   24.3800 H   0  0  0  0  0  0  0  0  0  0  0  0
   22.0221   21.0226   23.7407 H   0  0  0  0  0  0  0  0  0  0  0  0
   21.8818   19.2669   23.9709 H   0  0  0  0  0  0  0  0  0  0  0  0
  1  2  1  0  0  0  0
  1  3  2  0  0  0  0
  1  4  1  0  0  0  0
  4  5  1  0  0  0  0
  4  6  1  0  0  0  0
  4  7  1  0  0  0  0
  7  8  1  0  0  0  0
  7  9  1  0  0  0  0
  7 10  1  0  0  0  0
 10 11  1  0  0  0  0
 10 12  1  0  0  0  0
 10 13  1  0  0  0  0
 13 14  1  0  0  0  0
 13 15  1  0  0  0  0
 13 16  1  0  0  0  0
M  END
> <VConfSearch Rank>
41

> <Conf_Id>
0

> <Delta U+W>
0.000

> <U+W>
-56.904

> <U>
7.329

> <W>
-64.233

> <W(PB)>
-66.148

> <W(SA)>
1.915

> <Valence>
6.755

> <Coulomb>
-0.421

> <VdW>
0.995

> <VdW6>
-4.495

> <VdW12>
5.490

> <Bond>
0.106

> <Angle>
2.715

> <Pdih>
3.934

> <Idih>
0.000

> <Tether>
0.000

$$$$
VeraChem MOL file


 16 15  0  0  0  0  0  0  0  0999 V2000     
   18.2633   18.9103   19.8743 C   0  0  0  0  0  0  0  0  0  0  0  0
   17.1853   19.4343   20.0726 O   0  5  0  0  0  0  0  0  0  0  0  0
   18.7718   18.8145   18.7751 O   0  0  0  0  0  0  0  0  0  0  0  0
   19.0279   18.3591   21.0726 C   0  0  0  0  0  0  0  0  0  0  0  0
   19.6053   17.4889   20.7378 H   0  0  0  0  0  0  0  0  0  0  0  0
   18.2974   17.9999   21.8075 H   0  0  0  0  0  0  0  0  0  0  0  0
   19.9673   19.4055   21.7213 C   0  0  0  0  0  0  0  0  0  0  0  0
   20.6846   19.7645   20.9702 H   0  0  0  0  0  0  0  0  0  0  0  0
   19.3766   20.2756   22.0399 H   0  0  0  0  0  0  0  0  0  0  0  0
   20.7283   18.8226   22.9303 C   0  0  0  0  0  0  0  0  0  0  0  0
   21.3197   17.9528   22.6120 H   0  0  0  0  0  0  0  0  0  0  0  0
   20.0113   18.4640   23.6820 H   0  0  0  0  0  0  0  0  0  0  0  0
   21.6611   19.8693   23.5708 C   0  0  0  0  0  0  0  0  0  0  0  0
   21.0913   20.7376   23.9270 H   0  0  0  0  0  0  0  0  0  0  0  0
   22.4093   20.2226   22.8491 H   0  0  0  0  0  0  0  0  0  0  0  0
   22.1943   19.4389   24.4285 H   0  0  0  0  0  0  0  0  0  0  0  0
  1  2  1  0  0  0  0
  1  3  2  0  0  0  0
  1  4  1  0  0  0  0
  4  5  1  0  0  0  0
  4  6  1  0  0  0  0
  4  7  1  0  0  0  0
  7  8  1  0  0  0  0
  7  9  1  0  0  0  0
  7 10  1  0  0  0  0
 10 11  1  0  0  0  0
 10 12  1  0  0  0  0
 10 13  1  0  0  0  0
 13 14  1  0  0  0  0
 13 15  1  0  0  0  0
 13 16  1  0  0  0  0
M  END
> <VConfSearch Rank>
42

> <Conf_Id>
22

> <Delta U+W>
-1.185

> <U+W>
-58.089

> <U>
6.298

> <W>
-64.387

> <W(PB)>
-66.329

> <W(SA)>
1.942

> <Valence>
6.246

> <Coulomb>
-0.408

> <VdW>
0.460

> <VdW6>
-4.207

> <VdW12>
4.667

> <Bond>
0.072

> <Angle>
2.246

> <Pdih>
3.928

> <Idih>
0.001

> <Tether>
0.000

$$$$
VeraChem MOL file


 16 15  0  0  0  0  0  0  0  0999 V2000     
   17.7311   17.9761   21.4024 C   0  0  0  0  0  0  0  0  0  0  0  0
   16.6558   18.5276   21.5277 O   0  5  0  0  0  0  0  0  0  0  0  0
   17.8657   16.7696   21.3568 O   0  0  0  0  0  0  0  0  0  0  0  0
   18.9810   18.8452   21.3181 C   0  0  0  0  0  0  0  0  0  0  0  0
   18.7098   19.7844   20.8212 H   0  0  0  0  0  0  0  0  0  0  0  0
   19.7022   18.3319   20.6720 H   0  0  0  0  0  0  0  0  0  0  0  0
   19.6052   19.1368   22.7075 C   0  0  0  0  0  0  0  0  0  0  0  0
   18.8329   19.5708   23.3576 H   0  0  0  0  0  0  0  0  0  0  0  0
   19.9117   18.1920   23.1772 H   0  0  0  0  0  0  0  0  0  0  0  0
   20.8085   20.1060   22.6503 C   0  0  0  0  0  0  0  0  0  0  0  0
   21.1192   20.3441   23.6770 H   0  0  0  0  0  0  0  0  0  0  0  0
   20.4993   21.0552   22.1913 H   0  0  0  0  0  0  0  0  0  0  0  0
   22.0187   19.5292   21.8851 C   0  0  0  0  0  0  0  0  0  0  0  0
   21.7878   19.3811   20.8228 H   0  0  0  0  0  0  0  0  0  0  0  0
   22.3280   18.5647   22.3086 H   0  0  0  0  0  0  0  0  0  0  0  0
   22.8737   20.2150   21.9467 H   0  0  0  0  0  0  0  0  0  0  0  0
  1  2  1  0  0  0  0
  1  3  2  0  0  0  0
  1  4  1  0  0  0  0
  4  5  1  0  0  0  0
  4  6  1  0  0  0  0
  4  7  1  0  0  0  0
  7  8  1  0  0  0  0
  7  9  1  0  0  0  0
  7 10  1  0  0  0  0
 10 11  1  0  0  0  0
 10 12  1  0  0  0  0
 10 13  1  0  0  0  0
 13 14  1  0  0  0  0
 13 15  1  0  0  0  0
 13 16  1  0  0  0  0
M  END
> <VConfSearch Rank>
43

> <Conf_Id>
36

> <Delta U+W>
-0.427

> <U+W>
-57.331

> <U>
7.263

> <W>
-64.594

> <W(PB)>
-66.513

> <W(SA)>
1.920

> <Valence>
6.734

> <Coulomb>
-0.068

> <VdW>
0.598

> <VdW6>
-4.819

> <VdW12>
5.417

> <Bond>
0.107

> <Angle>
2.469

> <Pdih>
4.157

> <Idih>
0.001

> <Tether>
0.000

$$$$
VeraChem MOL file


 16 15  0  0  0  0  0  0  0  0999 V2000     
   17.7302   17.8616   21.7256 C   0  0  0  0  0  0  0  0  0  0  0  0
   17.8008   17.0325   20.8404 O   0  5  0  0  0  0  0  0  0  0  0  0
   16.6804   18.2886   22.1636 O   0  0  0  0  0  0  0  0  0  0  0  0
   19.0291   18.4112   22.3046 C   0  0  0  0  0  0  0  0  0  0  0  0
   19.7751   17.6090   22.2731 H   0  0  0  0  0  0  0  0  0  0  0  0
   18.8560   18.6533   23.3600 H   0  0  0  0  0  0  0  0  0  0  0  0
   19.5428   19.6630   21.5467 C   0  0  0  0  0  0  0  0  0  0  0  0
   19.7533   19.3979   20.5014 H   0  0  0  0  0  0  0  0  0  0  0  0
   18.7413   20.4142   21.5215 H   0  0  0  0  0  0  0  0  0  0  0  0
   20.7986   20.2979   22.1874 C   0  0  0  0  0  0  0  0  0  0  0  0
   20.5847   20.5738   23.2293 H   0  0  0  0  0  0  0  0  0  0  0  0
   21.0297   21.2334   21.6595 H   0  0  0  0  0  0  0  0  0  0  0  0
   22.0379   19.3790   22.1377 C   0  0  0  0  0  0  0  0  0  0  0  0
   21.8943   18.4788   22.7482 H   0  0  0  0  0  0  0  0  0  0  0  0
   22.9209   19.9047   22.5237 H   0  0  0  0  0  0  0  0  0  0  0  0
   22.2542   19.0664   21.1077 H   0  0  0  0  0  0  0  0  0  0  0  0
  1  2  1  0  0  0  0
  1  3  2  0  0  0  0
  1  4  1  0  0  0  0
  4  5  1  0  0  0  0
  4  6  1  0  0  0  0
  4  7  1  0  0  0  0
  7  8  1  0  0  0  0
  7  9  1  0  0  0  0
  7 10  1  0  0  0  0
 10 11  1  0  0  0  0
 10 12  1  0  0  0  0
 10 13  1  0  0  0  0
 13 14  1  0  0  0  0
 13 15  1  0  0  0  0
 13 16  1  0  0  0  0
M  END
> <VConfSearch Rank>
44

> <Conf_Id>
17

> <Delta U+W>
-0.432

> <U+W>
-57.336

> <U>
7.263

> <W>
-64.599

> <W(PB)>
-66.503

> <W(SA)>
1.904

> <Valence>
6.734

> <Coulomb>
-0.068

> <VdW>
0.598

> <VdW6>
-4.819

> <VdW12>
5.417

> <Bond>
0.107

> <Angle>
2.469

> <Pdih>
4.157

> <Idih>
0.001

> <Tether>
0.000

$$$$
VeraChem MOL file


 16 15  0  0  0  0  0  0  0  0999 V2000     
   20.4862   20.0488   24.2472 C   0  0  0  0  0  0  0  0  0  0  0  0
   19.9847   19.3944   25.1397 O   0  5  0  0  0  0  0  0  0  0  0  0
   21.6341   20.4461   24.2700 O   0  0  0  0  0  0  0  0  0  0  0  0
   19.6184   20.4103   23.0448 C   0  0  0  0  0  0  0  0  0  0  0  0
   20.0771   21.2597   22.5241 H   0  0  0  0  0  0  0  0  0  0  0  0
   18.6527   20.7586   23.4299 H   0  0  0  0  0  0  0  0  0  0  0  0
   19.3882   19.2379   22.0561 C   0  0  0  0  0  0  0  0  0  0  0  0
   18.9551   18.3850   22.5971 H   0  0  0  0  0  0  0  0  0  0  0  0
   18.6476   19.5450   21.3053 H   0  0  0  0  0  0  0  0  0  0  0  0
   20.6852   18.8000   21.3418 C   0  0  0  0  0  0  0  0  0  0  0  0
   21.4271   18.4709   22.0827 H   0  0  0  0  0  0  0  0  0  0  0  0
   21.1236   19.6568   20.8116 H   0  0  0  0  0  0  0  0  0  0  0  0
   20.4224   17.6573   20.3411 C   0  0  0  0  0  0  0  0  0  0  0  0
   20.0119   16.7758   20.8509 H   0  0  0  0  0  0  0  0  0  0  0  0
   21.3538   17.3578   19.8431 H   0  0  0  0  0  0  0  0  0  0  0  0
   19.7092   17.9691   19.5668 H   0  0  0  0  0  0  0  0  0  0  0  0
  1  2  1  0  0  0  0
  1  3  2  0  0  0  0
  1  4  1  0  0  0  0
  4  5  1  0  0  0  0
  4  6  1  0  0  0  0
  4  7  1  0  0  0  0
  7  8  1  0  0  0  0
  7  9  1  0  0  0  0
  7 10  1  0  0  0  0
 10 11  1  0  0  0  0
 10 12  1  0  0  0  0
 10 13  1  0  0  0  0
 13 14  1  0  0  0  0
 13 15  1  0  0  0  0
 13 16  1  0  0  0  0
M  END
> <VConfSearch Rank>
45

> <Conf_Id>
19

> <Delta U+W>
0.048

> <U+W>
-56.856

> <U>
8.276

> <W>
-65.132

> <W(PB)>
-67.031

> <W(SA)>
1.899

> <Valence>
6.513

> <Coulomb>
1.428

> <VdW>
0.335

> <VdW6>
-5.021

> <VdW12>
5.356

> <Bond>
0.092

> <Angle>
2.417

> <Pdih>
4.003

> <Idih>
0.001

> <Tether>
0.000

$$$$
VeraChem MOL file


 16 15  0  0  0  0  0  0  0  0999 V2000     
   21.1386   19.6344   20.1513 C   0  0  0  0  0  0  0  0  0  0  0  0
   21.6178   18.6463   19.6314 O   0  5  0  0  0  0  0  0  0  0  0  0
   21.7754   20.6399   20.3956 O   0  0  0  0  0  0  0  0  0  0  0  0
   19.6514   19.6180   20.4939 C   0  0  0  0  0  0  0  0  0  0  0  0
   19.1194   19.2093   19.6267 H   0  0  0  0  0  0  0  0  0  0  0  0
   19.3086   20.6526   20.6174 H   0  0  0  0  0  0  0  0  0  0  0  0
   19.3022   18.7848   21.7544 C   0  0  0  0  0  0  0  0  0  0  0  0
   18.2097   18.7140   21.8434 H   0  0  0  0  0  0  0  0  0  0  0  0
   19.6764   17.7593   21.6282 H   0  0  0  0  0  0  0  0  0  0  0  0
   19.8795   19.3965   23.0493 C   0  0  0  0  0  0  0  0  0  0  0  0
   19.5143   20.4260   23.1677 H   0  0  0  0  0  0  0  0  0  0  0  0
   20.9748   19.4534   22.9799 H   0  0  0  0  0  0  0  0  0  0  0  0
   19.4897   18.5681   24.2896 C   0  0  0  0  0  0  0  0  0  0  0  0
   18.3988   18.5224   24.4049 H   0  0  0  0  0  0  0  0  0  0  0  0
   19.9083   19.0156   25.2005 H   0  0  0  0  0  0  0  0  0  0  0  0
   19.8698   17.5411   24.2109 H   0  0  0  0  0  0  0  0  0  0  0  0
  1  2  1  0  0  0  0
  1  3  2  0  0  0  0
  1  4  1  0  0  0  0
  4  5  1  0  0  0  0
  4  6  1  0  0  0  0
  4  7  1  0  0  0  0
  7  8  1  0  0  0  0
  7  9  1  0  0  0  0
  7 10  1  0  0  0  0
 10 11  1  0  0  0  0
 10 12  1  0  0  0  0
 10 13  1  0  0  0  0
 13 14  1  0  0  0  0
 13 15  1  0  0  0  0
 13 16  1  0  0  0  0
M  END
> <VConfSearch Rank>
46

> <Conf_Id>
20

> <Delta U+W>
-0.010

> <U+W>
-56.914

> <U>
8.277

> <W>
-65.191

> <W(PB)>
-67.081

> <W(SA)>
1.890

> <Valence>
6.513

> <Coulomb>
1.429

> <VdW>
0.335

> <VdW6>
-5.021

> <VdW12>
5.356

> <Bond>
0.092

> <Angle>
2.417

> <Pdih>
4.002

> <Idih>
0.001

> <Tether>
0.000

$$$$
VeraChem MOL file


 16 15  0  0  0  0  0  0  0  0999 V2000     
   18.6079   20.3938   20.9382 C   0  0  0  0  0  0  0  0  0  0  0  0
   18.6460   21.6084   20.9545 O   0  5  0  0  0  0  0  0  0  0  0  0
   17.5746   19.7552   20.9659 O   0  0  0  0  0  0  0  0  0  0  0  0
   19.9281   19.6337   20.8435 C   0  0  0  0  0  0  0  0  0  0  0  0
   20.4945   20.0675   20.0112 H   0  0  0  0  0  0  0  0  0  0  0  0
   19.7168   18.5946   20.5663 H   0  0  0  0  0  0  0  0  0  0  0  0
   20.7894   19.6916   22.1349 C   0  0  0  0  0  0  0  0  0  0  0  0
   21.7490   19.1901   21.9505 H   0  0  0  0  0  0  0  0  0  0  0  0
   21.0276   20.7418   22.3532 H   0  0  0  0  0  0  0  0  0  0  0  0
   20.1172   19.0627   23.3785 C   0  0  0  0  0  0  0  0  0  0  0  0
   19.1716   19.5792   23.5946 H   0  0  0  0  0  0  0  0  0  0  0  0
   20.7653   19.2269   24.2503 H   0  0  0  0  0  0  0  0  0  0  0  0
   19.8572   17.5485   23.2295 C   0  0  0  0  0  0  0  0  0  0  0  0
   19.1158   17.3472   22.4457 H   0  0  0  0  0  0  0  0  0  0  0  0
   19.4689   17.1319   24.1679 H   0  0  0  0  0  0  0  0  0  0  0  0
   20.7816   17.0127   22.9779 H   0  0  0  0  0  0  0  0  0  0  0  0
  1  2  1  0  0  0  0
  1  3  2  0  0  0  0
  1  4  1  0  0  0  0
  4  5  1  0  0  0  0
  4  6  1  0  0  0  0
  4  7  1  0  0  0  0
  7  8  1  0  0  0  0
  7  9  1  0  0  0  0
  7 10  1  0  0  0  0
 10 11  1  0  0  0  0
 10 12  1  0  0  0  0
 10 13  1  0  0  0  0
 13 14  1  0  0  0  0
 13 15  1  0  0  0  0
 13 16  1  0  0  0  0
M  END
> <VConfSearch Rank>
47

> <Conf_Id>
37

> <Delta U+W>
1.063

> <U+W>
-55.841

> <U>
9.719

> <W>
-65.560

> <W(PB)>
-67.414

> <W(SA)>
1.854

> <Valence>
7.002

> <Coulomb>
2.402

> <VdW>
0.314

> <VdW6>
-5.861

> <VdW12>
6.175

> <Bond>
0.134

> <Angle>
2.733

> <Pdih>
4.133

> <Idih>
0.002

> <Tether>
0.000

$$$$
VeraChem MOL file


 16 15  0  0  0  0  0  0  0  0999 V2000     
   22.1113   19.1701   23.0216 C   0  0  0  0  0  0  0  0  0  0  0  0
   22.3991   18.6059   24.0587 O   0  5  0  0  0  0  0  0  0  0  0  0
   22.7869   19.1057   22.0138 O   0  0  0  0  0  0  0  0  0  0  0  0
   20.8522   20.0326   22.9968 C   0  0  0  0  0  0  0  0  0  0  0  0
   20.8821   20.6735   22.1083 H   0  0  0  0  0  0  0  0  0  0  0  0
   20.8991   20.7020   23.8638 H   0  0  0  0  0  0  0  0  0  0  0  0
   19.5266   19.2243   23.0446 C   0  0  0  0  0  0  0  0  0  0  0  0
   19.5057   18.6356   23.9721 H   0  0  0  0  0  0  0  0  0  0  0  0
   18.6810   19.9227   23.1041 H   0  0  0  0  0  0  0  0  0  0  0  0
   19.3167   18.2720   21.8433 C   0  0  0  0  0  0  0  0  0  0  0  0
   18.3999   17.6902   22.0109 H   0  0  0  0  0  0  0  0  0  0  0  0
   20.1393   17.5452   21.7934 H   0  0  0  0  0  0  0  0  0  0  0  0
   19.1974   19.0117   20.4938 C   0  0  0  0  0  0  0  0  0  0  0  0
   18.4042   19.7698   20.5287 H   0  0  0  0  0  0  0  0  0  0  0  0
   18.9555   18.3052   19.6893 H   0  0  0  0  0  0  0  0  0  0  0  0
   20.1393   19.5078   20.2272 H   0  0  0  0  0  0  0  0  0  0  0  0
  1  2  1  0  0  0  0
  1  3  2  0  0  0  0
  1  4  1  0  0  0  0
  4  5  1  0  0  0  0
  4  6  1  0  0  0  0
  4  7  1  0  0  0  0
  7  8  1  0  0  0  0
  7  9  1  0  0  0  0
  7 10  1  0  0  0  0
 10 11  1  0  0  0  0
 10 12  1  0  0  0  0
 10 13  1  0  0  0  0
 13 14  1  0  0  0  0
 13 15  1  0  0  0  0
 13 16  1  0  0  0  0
M  END
> <VConfSearch Rank>
48

> <Conf_Id>
39

> <Delta U+W>
1.129

> <U+W>
-55.775

> <U>
9.718

> <W>
-65.493

> <W(PB)>
-67.361

> <W(SA)>
1.869

> <Valence>
7.002

> <Coulomb>
2.402

> <VdW>
0.314

> <VdW6>
-5.861

> <VdW12>
6.175

> <Bond>
0.134

> <Angle>
2.734

> <Pdih>
4.133

> <Idih>
0.002

> <Tether>
0.000

$$$$
VeraChem MOL file


 16 15  0  0  0  0  0  0  0  0999 V2000     
   20.3649   18.6361   20.3807 C   0  0  0  0  0  0  0  0  0  0  0  0
   21.5183   18.9273   20.1322 O   0  5  0  0  0  0  0  0  0  0  0  0
   19.4295   18.9420   19.6675 O   0  0  0  0  0  0  0  0  0  0  0  0
   20.0890   17.7646   21.6046 C   0  0  0  0  0  0  0  0  0  0  0  0
   21.0418   17.5155   22.0874 H   0  0  0  0  0  0  0  0  0  0  0  0
   19.6742   16.8231   21.2261 H   0  0  0  0  0  0  0  0  0  0  0  0
   19.1022   18.3697   22.6424 C   0  0  0  0  0  0  0  0  0  0  0  0
   18.2350   18.8038   22.1257 H   0  0  0  0  0  0  0  0  0  0  0  0
   18.7089   17.5476   23.2555 H   0  0  0  0  0  0  0  0  0  0  0  0
   19.7284   19.4134   23.5985 C   0  0  0  0  0  0  0  0  0  0  0  0
   20.5961   18.9762   24.1115 H   0  0  0  0  0  0  0  0  0  0  0  0
   18.9949   19.6514   24.3813 H   0  0  0  0  0  0  0  0  0  0  0  0
   20.1441   20.7263   22.9029 C   0  0  0  0  0  0  0  0  0  0  0  0
   20.9930   20.5686   22.2266 H   0  0  0  0  0  0  0  0  0  0  0  0
   20.4488   21.4746   23.6458 H   0  0  0  0  0  0  0  0  0  0  0  0
   19.3123   21.1447   22.3211 H   0  0  0  0  0  0  0  0  0  0  0  0
  1  2  1  0  0  0  0
  1  3  2  0  0  0  0
  1  4  1  0  0  0  0
  4  5  1  0  0  0  0
  4  6  1  0  0  0  0
  4  7  1  0  0  0  0
  7  8  1  0  0  0  0
  7  9  1  0  0  0  0
  7 10  1  0  0  0  0
 10 11  1  0  0  0  0
 10 12  1  0  0  0  0
 10 13  1  0  0  0  0
 13 14  1  0  0  0  0
 13 15  1  0  0  0  0
 13 16  1  0  0  0  0
M  END
> <VConfSearch Rank>
49

> <Conf_Id>
47

> <Delta U+W>
2.301

> <U+W>
-54.603

> <U>
11.258

> <W>
-65.861

> <W(PB)>
-67.702

> <W(SA)>
1.841

> <Valence>
8.169

> <Coulomb>
2.735

> <VdW>
0.355

> <VdW6>
-6.245

> <VdW12>
6.600

> <Bond>
0.149

> <Angle>
3.168

> <Pdih>
4.840

> <Idih>
0.011

> <Tether>
0.000

$$$$
VeraChem MOL file


 16 15  0  0  0  0  0  0  0  0999 V2000     
   18.7551   19.2229   23.9124 C   0  0  0  0  0  0  0  0  0  0  0  0
   18.0697   18.2217   23.9833 O   0  5  0  0  0  0  0  0  0  0  0  0
   18.3176   20.3453   24.0726 O   0  0  0  0  0  0  0  0  0  0  0  0
   20.2590   19.0587   23.7005 C   0  0  0  0  0  0  0  0  0  0  0  0
   20.6326   18.4946   24.5630 H   0  0  0  0  0  0  0  0  0  0  0  0
   20.7351   20.0459   23.7418 H   0  0  0  0  0  0  0  0  0  0  0  0
   20.6693   18.3177   22.3968 C   0  0  0  0  0  0  0  0  0  0  0  0
   21.6945   17.9454   22.5269 H   0  0  0  0  0  0  0  0  0  0  0  0
   20.0395   17.4281   22.2576 H   0  0  0  0  0  0  0  0  0  0  0  0
   20.6433   19.1922   21.1200 C   0  0  0  0  0  0  0  0  0  0  0  0
   21.0989   18.6216   20.2990 H   0  0  0  0  0  0  0  0  0  0  0  0
   21.2726   20.0813   21.2639 H   0  0  0  0  0  0  0  0  0  0  0  0
   19.2264   19.6236   20.6881 C   0  0  0  0  0  0  0  0  0  0  0  0
   19.2575   20.1181   19.7087 H   0  0  0  0  0  0  0  0  0  0  0  0
   18.7899   20.3329   21.4017 H   0  0  0  0  0  0  0  0  0  0  0  0
   18.5572   18.7568   20.6096 H   0  0  0  0  0  0  0  0  0  0  0  0
  1  2  1  0  0  0  0
  1  3  2  0  0  0  0
  1  4  1  0  0  0  0
  4  5  1  0  0  0  0
  4  6  1  0  0  0  0
  4  7  1  0  0  0  0
  7  8  1  0  0  0  0
  7  9  1  0  0  0  0
  7 10  1  0  0  0  0
 10 11  1  0  0  0  0
 10 12  1  0  0  0  0
 10 13  1  0  0  0  0
 13 14  1  0  0  0  0
 13 15  1  0  0  0  0
 13 16  1  0  0  0  0
M  END
> <VConfSearch Rank>
50

> <Conf_Id>
45

> <Delta U+W>
2.303

> <U+W>
-54.601

> <U>
11.258

> <W>
-65.860

> <W(PB)>
-67.709

> <W(SA)>
1.849

> <Valence>
8.169

> <Coulomb>
2.735

> <VdW>
0.355

> <VdW6>
-6.245

> <VdW12>
6.600

> <Bond>
0.149

> <Angle>
3.168

> <Pdih>
4.840

> <Idih>
0.011

> <Tether>
0.000

$$$$
VeraChem MOL file


 16 15  0  0  0  0  0  0  0  0999 V2000     
   18.4327   17.2965   23.2833 C   0  0  0  0  0  0  0  0  0  0  0  0
   17.7089   18.1392   23.7769 O   0  5  0  0  0  0  0  0  0  0  0  0
   18.2958   16.1063   23.4834 O   0  0  0  0  0  0  0  0  0  0  0  0
   19.5782   17.7226   22.3633 C   0  0  0  0  0  0  0  0  0  0  0  0
   19.4299   17.2186   21.4010 H   0  0  0  0  0  0  0  0  0  0  0  0
   20.5067   17.3277   22.7924 H   0  0  0  0  0  0  0  0  0  0  0  0
   19.7146   19.2519   22.1378 C   0  0  0  0  0  0  0  0  0  0  0  0
   18.7796   19.6427   21.7130 H   0  0  0  0  0  0  0  0  0  0  0  0
   19.8576   19.7520   23.1058 H   0  0  0  0  0  0  0  0  0  0  0  0
   20.8922   19.5905   21.1998 C   0  0  0  0  0  0  0  0  0  0  0  0
   20.7496   19.0925   20.2308 H   0  0  0  0  0  0  0  0  0  0  0  0
   21.8282   19.2018   21.6244 H   0  0  0  0  0  0  0  0  0  0  0  0
   21.0225   21.1107   20.9798 C   0  0  0  0  0  0  0  0  0  0  0  0
   20.1108   21.5214   20.5264 H   0  0  0  0  0  0  0  0  0  0  0  0
   21.8640   21.3340   20.3110 H   0  0  0  0  0  0  0  0  0  0  0  0
   21.1974   21.6315   21.9303 H   0  0  0  0  0  0  0  0  0  0  0  0
  1  2  1  0  0  0  0
  1  3  2  0  0  0  0
  1  4  1  0  0  0  0
  4  5  1  0  0  0  0
  4  6  1  0  0  0  0
  4  7  1  0  0  0  0
  7  8  1  0  0  0  0
  7  9  1  0  0  0  0
  7 10  1  0  0  0  0
 10 11  1  0  0  0  0
 10 12  1  0  0  0  0
 10 13  1  0  0  0  0
 13 14  1  0  0  0  0
 13 15  1  0  0  0  0
 13 16  1  0  0  0  0
M  END
> <VConfSearch Rank>
51

> <Conf_Id>
0

> <Delta U+W>
0.000

> <U+W>
-56.904

> <U>
7.329

> <W>
-64.233

> <W(PB)>
-66.148

> <W(SA)>
1.915

> <Valence>
6.755

> <Coulomb>
-0.421

> <VdW>
0.995

> <VdW6>
-4.495

> <VdW12>
5.490

> <Bond>
0.106

> <Angle>
2.715

> <Pdih>
3.934

> <Idih>
0.000

> <Tether>
0.000

$$$$
VeraChem MOL file


 16 15  0  0  0  0  0  0  0  0999 V2000     
   20.0129   20.8791   19.8488 C   0  0  0  0  0  0  0  0  0  0  0  0
   20.3596   22.0093   20.1287 O   0  5  0  0  0  0  0  0  0  0  0  0
   20.1871   20.3735   18.7580 O   0  0  0  0  0  0  0  0  0  0  0  0
   19.3388   20.0432   20.9312 C   0  0  0  0  0  0  0  0  0  0  0  0
   18.6215   19.3706   20.4454 H   0  0  0  0  0  0  0  0  0  0  0  0
   18.7638   20.7192   21.5756 H   0  0  0  0  0  0  0  0  0  0  0  0
   20.3465   19.2274   21.7779 C   0  0  0  0  0  0  0  0  0  0  0  0
   20.9228   18.5646   21.1174 H   0  0  0  0  0  0  0  0  0  0  0  0
   21.0652   19.9133   22.2475 H   0  0  0  0  0  0  0  0  0  0  0  0
   19.6390   18.3914   22.8646 C   0  0  0  0  0  0  0  0  0  0  0  0
   18.9207   17.7048   22.3954 H   0  0  0  0  0  0  0  0  0  0  0  0
   19.0631   19.0538   23.5258 H   0  0  0  0  0  0  0  0  0  0  0  0
   20.6480   17.5822   23.7033 C   0  0  0  0  0  0  0  0  0  0  0  0
   21.3602   18.2468   24.2097 H   0  0  0  0  0  0  0  0  0  0  0  0
   21.2168   16.8878   23.0709 H   0  0  0  0  0  0  0  0  0  0  0  0
   20.1288   16.9937   24.4709 H   0  0  0  0  0  0  0  0  0  0  0  0
  1  2  1  0  0  0  0
  1  3  2  0  0  0  0
  1  4  1  0  0  0  0
  4  5  1  0  0  0  0
  4  6  1  0  0  0  0
  4  7  1  0  0  0  0
  7  8  1  0  0  0  0
  7  9  1  0  0  0  0
  7 10  1  0  0  0  0
 10 11  1  0  0  0  0
 10 12  1  0  0  0  0
 10 13  1  0  0  0  0
 13 14  1  0  0  0  0
 13 15  1  0  0  0  0
 13 16  1  0  0  0  0
M  END
> <VConfSearch Rank>
52

> <Conf_Id>
22

> <Delta U+W>
-1.185

> <U+W>
-58.089

> <U>
6.298

> <W>
-64.387

> <W(PB)>
-66.329

> <W(SA)>
1.942

> <Valence>
6.246

> <Coulomb>
-0.408

> <VdW>
0.460

> <VdW6>
-4.207

> <VdW12>
4.667

> <Bond>
0.072

> <Angle>
2.246

> <Pdih>
3.928

> <Idih>
0.001

> <Tether>
0.000

$$$$
VeraChem MOL file


 16 15  0  0  0  0  0  0  0  0999 V2000     
   19.4982   21.2041   23.4870 C   0  0  0  0  0  0  0  0  0  0  0  0
   19.9332   21.2975   24.6175 O   0  5  0  0  0  0  0  0  0  0  0  0
   18.5436   21.8362   23.0805 O   0  0  0  0  0  0  0  0  0  0  0  0
   20.1747   20.2258   22.5333 C   0  0  0  0  0  0  0  0  0  0  0  0
   21.2407   20.1844   22.7875 H   0  0  0  0  0  0  0  0  0  0  0  0
   20.0977   20.6383   21.5208 H   0  0  0  0  0  0  0  0  0  0  0  0
   19.5562   18.8048   22.5911 C   0  0  0  0  0  0  0  0  0  0  0  0
   19.5700   18.4558   23.6330 H   0  0  0  0  0  0  0  0  0  0  0  0
   18.4996   18.8526   22.2935 H   0  0  0  0  0  0  0  0  0  0  0  0
   20.3003   17.7735   21.7119 C   0  0  0  0  0  0  0  0  0  0  0  0
   19.8704   16.7788   21.8939 H   0  0  0  0  0  0  0  0  0  0  0  0
   21.3543   17.7170   22.0173 H   0  0  0  0  0  0  0  0  0  0  0  0
   20.2130   18.0849   20.2025 C   0  0  0  0  0  0  0  0  0  0  0  0
   20.7318   19.0195   19.9553 H   0  0  0  0  0  0  0  0  0  0  0  0
   19.1676   18.1748   19.8797 H   0  0  0  0  0  0  0  0  0  0  0  0
   20.6794   17.2815   19.6176 H   0  0  0  0  0  0  0  0  0  0  0  0
  1  2  1  0  0  0  0
  1  3  2  0  0  0  0
  1  4  1  0  0  0  0
  4  5  1  0  0  0  0
  4  6  1  0  0  0  0
  4  7  1  0  0  0  0
  7  8  1  0  0  0  0
  7  9  1  0  0  0  0
  7 10  1  0  0  0  0
 10 11  1  0  0  0  0
 10 12  1  0  0  0  0
 10 13  1  0  0  0  0
 13 14  1  0  0  0  0
 13 15  1  0  0  0  0
 13 16  1  0  0  0  0
M  END
> <VConfSearch Rank>
53

> <Conf_Id>
36

> <Delta U+W>
-0.427

> <U+W>
-57.331

> <U>
7.263

> <W>
-64.594

> <W(PB)>
-66.513

> <W(SA)>
1.920

> <Valence>
6.734

> <Coulomb>
-0.068

> <VdW>
0.598

> <VdW6>
-4.819

> <VdW12>
5.417

> <Bond>
0.107

> <Angle>
2.469

> <Pdih>
4.157

> <Idih>
0.001

> <Tether>
0.000

$$$$
VeraChem MOL file


 16 15  0  0  0  0  0  0  0  0999 V2000     
   19.5802   20.5604   19.8590 C   0  0  0  0  0  0  0  0  0  0  0  0
   18.6310   20.1488   19.2223 O   0  5  0  0  0  0  0  0  0  0  0  0
   20.4418   21.2783   19.3917 O   0  0  0  0  0  0  0  0  0  0  0  0
   19.7084   20.1371   21.3181 C   0  0  0  0  0  0  0  0  0  0  0  0
   18.6966   20.0294   21.7252 H   0  0  0  0  0  0  0  0  0  0  0  0
   20.1950   20.9519   21.8675 H   0  0  0  0  0  0  0  0  0  0  0  0
   20.5096   18.8210   21.4940 C   0  0  0  0  0  0  0  0  0  0  0  0
   19.9901   18.0035   20.9752 H   0  0  0  0  0  0  0  0  0  0  0  0
   21.4848   18.9325   21.0000 H   0  0  0  0  0  0  0  0  0  0  0  0
   20.7432   18.4358   22.9730 C   0  0  0  0  0  0  0  0  0  0  0  0
   21.2731   19.2484   23.4891 H   0  0  0  0  0  0  0  0  0  0  0  0
   21.4060   17.5602   23.0095 H   0  0  0  0  0  0  0  0  0  0  0  0
   19.4387   18.1044   23.7290 C   0  0  0  0  0  0  0  0  0  0  0  0
   18.7913   18.9857   23.8169 H   0  0  0  0  0  0  0  0  0  0  0  0
   19.6626   17.7541   24.7449 H   0  0  0  0  0  0  0  0  0  0  0  0
   18.8769   17.3135   23.2150 H   0  0  0  0  0  0  0  0  0  0  0  0
  1  2  1  0  0  0  0
  1  3  2  0  0  0  0
  1  4  1  0  0  0  0
  4  5  1  0  0  0  0
  4  6  1  0  0  0  0
  4  7  1  0  0  0  0
  7  8  1  0  0  0  0
  7  9  1  0  0  0  0
  7 10  1  0  0  0  0
 10 11  1  0  0  0  0
 10 12  1  0  0  0  0
 10 13  1  0  0  0  0
 13 14  1  0  0  0  0
 13 15  1  0  0  0  0
 13 16  1  0  0  0  0
M  END
> <VConfSearch Rank>
54

> <Conf_Id>
17

> <Delta U+W>
-0.432

> <U+W>
-57.336

> <U>
7.263

> <W>
-64.599

> <W(PB)>
-66.503

> <W(SA)>
1.904

> <Valence>
6.734

> <Coulomb>
-0.068

> <VdW>
0.598

> <VdW6>
-4.819

> <VdW12>
5.417

> <Bond>
0.107

> <Angle>
2.469

> <Pdih>
4.157

> <Idih>
0.001

> <Tether>
0.000

$$$$
VeraChem MOL file


 16 15  0  0  0  0  0  0  0  0999 V2000     
   22.1886   20.2565   22.4614 C   0  0  0  0  0  0  0  0  0  0  0  0
   22.9401   19.6611   23.2077 O   0  5  0  0  0  0  0  0  0  0  0  0
   22.5303   20.7117   21.3879 O   0  0  0  0  0  0  0  0  0  0  0  0
   20.7442   20.4636   22.9091 C   0  0  0  0  0  0  0  0  0  0  0  0
   20.3104   21.2845   22.3251 H   0  0  0  0  0  0  0  0  0  0  0  0
   20.7689   20.7962   23.9536 H   0  0  0  0  0  0  0  0  0  0  0  0
   19.8580   19.1965   22.7908 C   0  0  0  0  0  0  0  0  0  0  0  0
   20.3194   18.3752   23.3568 H   0  0  0  0  0  0  0  0  0  0  0  0
   18.8854   19.3967   23.2603 H   0  0  0  0  0  0  0  0  0  0  0  0
   19.6358   18.7618   21.3259 C   0  0  0  0  0  0  0  0  0  0  0  0
   20.6017   18.5388   20.8515 H   0  0  0  0  0  0  0  0  0  0  0  0
   19.1859   19.5881   20.7583 H   0  0  0  0  0  0  0  0  0  0  0  0
   18.7250   17.5214   21.2352 C   0  0  0  0  0  0  0  0  0  0  0  0
   19.1670   16.6701   21.7694 H   0  0  0  0  0  0  0  0  0  0  0  0
   18.5781   17.2254   20.1883 H   0  0  0  0  0  0  0  0  0  0  0  0
   17.7383   17.7255   21.6714 H   0  0  0  0  0  0  0  0  0  0  0  0
  1  2  1  0  0  0  0
  1  3  2  0  0  0  0
  1  4  1  0  0  0  0
  4  5  1  0  0  0  0
  4  6  1  0  0  0  0
  4  7  1  0  0  0  0
  7  8  1  0  0  0  0
  7  9  1  0  0  0  0
  7 10  1  0  0  0  0
 10 11  1  0  0  0  0
 10 12  1  0  0  0  0
 10 13  1  0  0  0  0
 13 14  1  0  0  0  0
 13 15  1  0  0  0  0
 13 16  1  0  0  0  0
M  END
> <VConfSearch Rank>
55

> <Conf_Id>
19

> <Delta U+W>
0.048

> <U+W>
-56.856

> <U>
8.276

> <W>
-65.132

> <W(PB)>
-67.031

> <W(SA)>
1.899

> <Valence>
6.513

> <Coulomb>
1.428

> <VdW>
0.335

> <VdW6>
-5.021

> <VdW12>
5.356

> <Bond>
0.092

> <Angle>
2.417

> <Pdih>
4.003

> <Idih>
0.001

> <Tether>
0.000

$$$$
VeraChem MOL file


 16 15  0  0  0  0  0  0  0  0999 V2000     
   21.3600   19.8220   20.3775 C   0  0  0  0  0  0  0  0  0  0  0  0
   22.5304   19.6908   20.6765 O   0  5  0  0  0  0  0  0  0  0  0  0
   20.9008   20.8374   19.8933 O   0  0  0  0  0  0  0  0  0  0  0  0
   20.4229   18.6383   20.6013 C   0  0  0  0  0  0  0  0  0  0  0  0
   20.9309   17.7420   20.2259 H   0  0  0  0  0  0  0  0  0  0  0  0
   19.5279   18.7779   19.9828 H   0  0  0  0  0  0  0  0  0  0  0  0
   20.0205   18.4220   22.0833 C   0  0  0  0  0  0  0  0  0  0  0  0
   19.4660   17.4776   22.1678 H   0  0  0  0  0  0  0  0  0  0  0  0
   20.9271   18.3123   22.6945 H   0  0  0  0  0  0  0  0  0  0  0  0
   19.1526   19.5728   22.6370 C   0  0  0  0  0  0  0  0  0  0  0  0
   18.2526   19.6893   22.0175 H   0  0  0  0  0  0  0  0  0  0  0  0
   19.7055   20.5205   22.5763 H   0  0  0  0  0  0  0  0  0  0  0  0
   18.7389   19.3167   24.0997 C   0  0  0  0  0  0  0  0  0  0  0  0
   18.1537   18.3918   24.1866 H   0  0  0  0  0  0  0  0  0  0  0  0
   18.1238   20.1436   24.4779 H   0  0  0  0  0  0  0  0  0  0  0  0
   19.6211   19.2268   24.7471 H   0  0  0  0  0  0  0  0  0  0  0  0
  1  2  1  0  0  0  0
  1  3  2  0  0  0  0
  1  4  1  0  0  0  0
  4  5  1  0  0  0  0
  4  6  1  0  0  0  0
  4  7  1  0  0  0  0
  7  8  1  0  0  0  0
  7  9  1  0  0  0  0
  7 10  1  0  0  0  0
 10 11  1  0  0  0  0
 10 12  1  0  0  0  0
 10 13  1  0  0  0  0
 13 14  1  0  0  0  0
 13 15  1  0  0  0  0
 13 16  1  0  0  0  0
M  END
> <VConfSearch Rank>
56

> <Conf_Id>
20

> <Delta U+W>
-0.010

> <U+W>
-56.914

> <U>
8.277

> <W>
-65.191

> <W(PB)>
-67.081

> <W(SA)>
1.890

> <Valence>
6.513

> <Coulomb>
1.429

> <VdW>
0.335

> <VdW6>
-5.021

> <VdW12>
5.356

> <Bond>
0.092

> <Angle>
2.417

> <Pdih>
4.002

> <Idih>
0.001

> <Tether>
0.000

$$$$
VeraChem MOL file


 16 15  0  0  0  0  0  0  0  0999 V2000     
   18.9518   18.8715   24.0970 C   0  0  0  0  0  0  0  0  0  0  0  0
   18.4552   17.8185   24.4456 O   0  5  0  0  0  0  0  0  0  0  0  0
   18.4141   19.9500   24.2523 O   0  0  0  0  0  0  0  0  0  0  0  0
   20.3393   18.8375   23.4619 C   0  0  0  0  0  0  0  0  0  0  0  0
   20.9840   18.2433   24.1199 H   0  0  0  0  0  0  0  0  0  0  0  0
   20.7505   19.8535   23.4600 H   0  0  0  0  0  0  0  0  0  0  0  0
   20.3694   18.2321   22.0317 C   0  0  0  0  0  0  0  0  0  0  0  0
   21.4107   18.1736   21.6873 H   0  0  0  0  0  0  0  0  0  0  0  0
   20.0020   17.1976   22.0788 H   0  0  0  0  0  0  0  0  0  0  0  0
   19.5322   19.0129   20.9909 C   0  0  0  0  0  0  0  0  0  0  0  0
   18.4803   19.0486   21.3070 H   0  0  0  0  0  0  0  0  0  0  0  0
   19.5505   18.4631   20.0398 H   0  0  0  0  0  0  0  0  0  0  0  0
   20.0479   20.4471   20.7470 C   0  0  0  0  0  0  0  0  0  0  0  0
   19.9319   21.0696   21.6434 H   0  0  0  0  0  0  0  0  0  0  0  0
   19.4832   20.9251   19.9361 H   0  0  0  0  0  0  0  0  0  0  0  0
   21.1085   20.4417   20.4638 H   0  0  0  0  0  0  0  0  0  0  0  0
  1  2  1  0  0  0  0
  1  3  2  0  0  0  0
  1  4  1  0  0  0  0
  4  5  1  0  0  0  0
  4  6  1  0  0  0  0
  4  7  1  0  0  0  0
  7  8  1  0  0  0  0
  7  9  1  0  0  0  0
  7 10  1  0  0  0  0
 10 11  1  0  0  0  0
 10 12  1  0  0  0  0
 10 13  1  0  0  0  0
 13 14  1  0  0  0  0
 13 15  1  0  0  0  0
 13 16  1  0  0  0  0
M  END
> <VConfSearch Rank>
57

> <Conf_Id>
37

> <Delta U+W>
1.063

> <U+W>
-55.841

> <U>
9.719

> <W>
-65.560

> <W(PB)>
-67.414

> <W(SA)>
1.854

> <Valence>
7.002

> <Coulomb>
2.402

> <VdW>
0.314

> <VdW6>
-5.861

> <VdW12>
6.175

> <Bond>
0.134

> <Angle>
2.733

> <Pdih>
4.133

> <Idih>
0.002

> <Tether>
0.000

$$$$
VeraChem MOL file


 16 15  0  0  0  0  0  0  0  0999 V2000     
   20.6581   18.9715   20.0948 C   0  0  0  0  0  0  0  0  0  0  0  0
   20.1150   19.6172   19.2202 O   0  5  0  0  0  0  0  0  0  0  0  0
   21.8627   18.8362   20.1782 O   0  0  0  0  0  0  0  0  0  0  0  0
   19.7762   18.2657   21.1214 C   0  0  0  0  0  0  0  0  0  0  0  0
   20.3819   17.5248   21.6556 H   0  0  0  0  0  0  0  0  0  0  0  0
   19.0167   17.7031   20.5660 H   0  0  0  0  0  0  0  0  0  0  0  0
   19.0743   19.2237   22.1226 C   0  0  0  0  0  0  0  0  0  0  0  0
   18.4349   19.9167   21.5585 H   0  0  0  0  0  0  0  0  0  0  0  0
   18.4028   18.6413   22.7678 H   0  0  0  0  0  0  0  0  0  0  0  0
   20.0436   20.0447   23.0061 C   0  0  0  0  0  0  0  0  0  0  0  0
   19.4569   20.7457   23.6156 H   0  0  0  0  0  0  0  0  0  0  0  0
   20.6985   20.6590   22.3726 H   0  0  0  0  0  0  0  0  0  0  0  0
   20.9030   19.1692   23.9427 C   0  0  0  0  0  0  0  0  0  0  0  0
   20.2725   18.5187   24.5628 H   0  0  0  0  0  0  0  0  0  0  0  0
   21.5026   19.7986   24.6130 H   0  0  0  0  0  0  0  0  0  0  0  0
   21.5964   18.5380   23.3724 H   0  0  0  0  0  0  0  0  0  0  0  0
  1  2  1  0  0  0  0
  1  3  2  0  0  0  0
  1  4  1  0  0  0  0
  4  5  1  0  0  0  0
  4  6  1  0  0  0  0
  4  7  1  0  0  0  0
  7  8  1  0  0  0  0
  7  9  1  0  0  0  0
  7 10  1  0  0  0  0
 10 11  1  0  0  0  0
 10 12  1  0  0  0  0
 10 13  1  0  0  0  0
 13 14  1  0  0  0  0
 13 15  1  0  0  0  0
 13 16  1  0  0  0  0
M  END
> <VConfSearch Rank>
58

> <Conf_Id>
39

> <Delta U+W>
1.129

> <U+W>
-55.775

> <U>
9.718

> <W>
-65.493

> <W(PB)>
-67.361

> <W(SA)>
1.869

> <Valence>
7.002

> <Coulomb>
2.402

> <VdW>
0.314

> <VdW6>
-5.861

> <VdW12>
6.175

> <Bond>
0.134

> <Angle>
2.734

> <Pdih>
4.133

> <Idih>
0.002

> <Tether>
0.000

$$$$
VeraChem MOL file


 16 15  0  0  0  0  0  0  0  0999 V2000     
   21.6527   18.5918   21.4528 C   0  0  0  0  0  0  0  0  0  0  0  0
   22.5745   18.8583   22.1986 O   0  5  0  0  0  0  0  0  0  0  0  0
   21.6333   18.8998   20.2773 O   0  0  0  0  0  0  0  0  0  0  0  0
   20.5026   17.7489   22.0008 C   0  0  0  0  0  0  0  0  0  0  0  0
   20.7143   17.4929   23.0461 H   0  0  0  0  0  0  0  0  0  0  0  0
   20.5147   16.8075   21.4392 H   0  0  0  0  0  0  0  0  0  0  0  0
   19.0918   18.3908   21.8795 C   0  0  0  0  0  0  0  0  0  0  0  0
   18.9648   18.8297   20.8801 H   0  0  0  0  0  0  0  0  0  0  0  0
   18.3464   17.5875   21.9542 H   0  0  0  0  0  0  0  0  0  0  0  0
   18.7635   19.4419   22.9670 C   0  0  0  0  0  0  0  0  0  0  0  0
   18.8935   18.9999   23.9645 H   0  0  0  0  0  0  0  0  0  0  0  0
   17.7005   19.7075   22.8836 H   0  0  0  0  0  0  0  0  0  0  0  0
   19.5999   20.7338   22.8588 C   0  0  0  0  0  0  0  0  0  0  0  0
   20.6539   20.5485   23.0990 H   0  0  0  0  0  0  0  0  0  0  0  0
   19.2295   21.4910   23.5618 H   0  0  0  0  0  0  0  0  0  0  0  0
   19.5454   21.1550   21.8464 H   0  0  0  0  0  0  0  0  0  0  0  0
  1  2  1  0  0  0  0
  1  3  2  0  0  0  0
  1  4  1  0  0  0  0
  4  5  1  0  0  0  0
  4  6  1  0  0  0  0
  4  7  1  0  0  0  0
  7  8  1  0  0  0  0
  7  9  1  0  0  0  0
  7 10  1  0  0  0  0
 10 11  1  0  0  0  0
 10 12  1  0  0  0  0
 10 13  1  0  0  0  0
 13 14  1  0  0  0  0
 13 15  1  0  0  0  0
 13 16  1  0  0  0  0
M  END
> <VConfSearch Rank>
59

> <Conf_Id>
47

> <Delta U+W>
2.301

> <U+W>
-54.603

> <U>
11.258

> <W>
-65.861

> <W(PB)>
-67.702

> <W(SA)>
1.841

> <Valence>
8.169

> <Coulomb>
2.735

> <VdW>
0.355

> <VdW6>
-6.245

> <VdW12>
6.600

> <Bond>
0.149

> <Angle>
3.168

> <Pdih>
4.840

> <Idih>
0.011

> <Tether>
0.000

$$$$
VeraChem MOL file


 16 15  0  0  0  0  0  0  0  0999 V2000     
   18.4131   20.2166   23.0547 C   0  0  0  0  0  0  0  0  0  0  0  0
   18.2369   19.8632   24.2041 O   0  5  0  0  0  0  0  0  0  0  0  0
   17.5087   20.3815   22.2598 O   0  0  0  0  0  0  0  0  0  0  0  0
   19.8344   20.5580   22.6108 C   0  0  0  0  0  0  0  0  0  0  0  0
   20.1620   21.3938   23.2399 H   0  0  0  0  0  0  0  0  0  0  0  0
   19.8060   20.9334   21.5807 H   0  0  0  0  0  0  0  0  0  0  0  0
   20.8648   19.4002   22.7331 C   0  0  0  0  0  0  0  0  0  0  0  0
   21.8706   19.8414   22.7440 H   0  0  0  0  0  0  0  0  0  0  0  0
   20.7458   18.8937   23.7010 H   0  0  0  0  0  0  0  0  0  0  0  0
   20.8157   18.3661   21.5826 C   0  0  0  0  0  0  0  0  0  0  0  0
   21.6789   17.6937   21.6829 H   0  0  0  0  0  0  0  0  0  0  0  0
   20.9331   18.8766   20.6168 H   0  0  0  0  0  0  0  0  0  0  0  0
   19.5306   17.5124   21.5655 C   0  0  0  0  0  0  0  0  0  0  0  0
   19.6129   16.7096   20.8216 H   0  0  0  0  0  0  0  0  0  0  0  0
   18.6534   18.1163   21.3032 H   0  0  0  0  0  0  0  0  0  0  0  0
   19.3513   17.0504   22.5452 H   0  0  0  0  0  0  0  0  0  0  0  0
  1  2  1  0  0  0  0
  1  3  2  0  0  0  0
  1  4  1  0  0  0  0
  4  5  1  0  0  0  0
  4  6  1  0  0  0  0
  4  7  1  0  0  0  0
  7  8  1  0  0  0  0
  7  9  1  0  0  0  0
  7 10  1  0  0  0  0
 10 11  1  0  0  0  0
 10 12  1  0  0  0  0
 10 13  1  0  0  0  0
 13 14  1  0  0  0  0
 13 15  1  0  0  0  0
 13 16  1  0  0  0  0
M  END
> <VConfSearch Rank>
60

> <Conf_Id>
45

> <Delta U+W>
2.303

> <U+W>
-54.601

> <U>
11.258

> <W>
-65.860

> <W(PB)>
-67.709

> <W(SA)>
1.849

> <Valence>
8.169

> <Coulomb>
2.735

> <VdW>
0.355

> <VdW6>
-6.245

> <VdW12>
6.600

> <Bond>
0.149

> <Angle>
3.168

> <Pdih>
4.840

> <Idih>
0.011

> <Tether>
0.000

$$$$
VeraChem MOL file


 16 15  0  0  0  0  0  0  0  0999 V2000     
   21.1787   16.6301   21.8073 C   0  0  0  0  0  0  0  0  0  0  0  0
   22.2889   17.0365   22.0901 O   0  5  0  0  0  0  0  0  0  0  0  0
   20.9376   15.4597   21.5893 O   0  0  0  0  0  0  0  0  0  0  0  0
   20.0103   17.6129   21.7137 C   0  0  0  0  0  0  0  0  0  0  0  0
   19.2410   17.2749   22.4180 H   0  0  0  0  0  0  0  0  0  0  0  0
   19.5858   17.5217   20.7069 H   0  0  0  0  0  0  0  0  0  0  0  0
   20.3662   19.0962   21.9993 C   0  0  0  0  0  0  0  0  0  0  0  0
   20.7960   19.1806   23.0071 H   0  0  0  0  0  0  0  0  0  0  0  0
   21.1412   19.4276   21.2942 H   0  0  0  0  0  0  0  0  0  0  0  0
   19.1317   20.0148   21.8831 C   0  0  0  0  0  0  0  0  0  0  0  0
   18.3566   19.6856   22.5889 H   0  0  0  0  0  0  0  0  0  0  0  0
   18.7019   19.9327   20.8751 H   0  0  0  0  0  0  0  0  0  0  0  0
   19.4915   21.4864   22.1678 C   0  0  0  0  0  0  0  0  0  0  0  0
   19.8952   21.6028   23.1822 H   0  0  0  0  0  0  0  0  0  0  0  0
   18.6032   22.1256   22.0810 H   0  0  0  0  0  0  0  0  0  0  0  0
   20.2430   21.8518   21.4557 H   0  0  0  0  0  0  0  0  0  0  0  0
  1  2  1  0  0  0  0
  1  3  2  0  0  0  0
  1  4  1  0  0  0  0
  4  5  1  0  0  0  0
  4  6  1  0  0  0  0
  4  7  1  0  0  0  0
  7  8  1  0  0  0  0
  7  9  1  0  0  0  0
  7 10  1  0  0  0  0
 10 11  1  0  0  0  0
 10 12  1  0  0  0  0
 10 13  1  0  0  0  0
 13 14  1  0  0  0  0
 13 15  1  0  0  0  0
 13 16  1  0  0  0  0
M  END
> <VConfSearch Rank>
61

> <Conf_Id>
0

> <Delta U+W>
0.000

> <U+W>
-56.904

> <U>
7.329

> <W>
-64.233

> <W(PB)>
-66.148

> <W(SA)>
1.915

> <Valence>
6.755

> <Coulomb>
-0.421

> <VdW>
0.995

> <VdW6>
-4.495

> <VdW12>
5.490

> <Bond>
0.106

> <Angle>
2.715

> <Pdih>
3.934

> <Idih>
0.000

> <Tether>
0.000

$$$$
VeraChem MOL file


 16 15  0  0  0  0  0  0  0  0999 V2000     
   17.4051   18.9632   22.6588 C   0  0  0  0  0  0  0  0  0  0  0  0
   16.6864   18.4246   21.8407 O   0  5  0  0  0  0  0  0  0  0  0  0
   17.2051   18.9267   23.8565 O   0  0  0  0  0  0  0  0  0  0  0  0
   18.6353   19.7106   22.1561 C   0  0  0  0  0  0  0  0  0  0  0  0
   18.8254   20.5503   22.8354 H   0  0  0  0  0  0  0  0  0  0  0  0
   18.3979   20.1362   21.1736 H   0  0  0  0  0  0  0  0  0  0  0  0
   19.8902   18.8086   22.0580 C   0  0  0  0  0  0  0  0  0  0  0  0
   20.1076   18.3804   23.0464 H   0  0  0  0  0  0  0  0  0  0  0  0
   19.6800   17.9662   21.3844 H   0  0  0  0  0  0  0  0  0  0  0  0
   21.1195   19.5887   21.5473 C   0  0  0  0  0  0  0  0  0  0  0  0
   21.3304   20.4309   22.2210 H   0  0  0  0  0  0  0  0  0  0  0  0
   20.9027   20.0166   20.5587 H   0  0  0  0  0  0  0  0  0  0  0  0
   22.3646   18.6848   21.4522 C   0  0  0  0  0  0  0  0  0  0  0  0
   22.1922   17.8504   20.7598 H   0  0  0  0  0  0  0  0  0  0  0  0
   22.6230   18.2677   22.4344 H   0  0  0  0  0  0  0  0  0  0  0  0
   23.2292   19.2546   21.0878 H   0  0  0  0  0  0  0  0  0  0  0  0
  1  2  1  0  0  0  0
  1  3  2  0  0  0  0
  1  4  1  0  0  0  0
  4  5  1  0  0  0  0
  4  6  1  0  0  0  0
  4  7  1  0  0  0  0
  7  8  1  0  0  0  0
  7  9  1  0  0  0  0
  7 10  1  0  0  0  0
 10 11  1  0  0  0  0
 10 12  1  0  0  0  0
 10 13  1  0  0  0  0
 13 14  1  0  0  0  0
 13 15  1  0  0  0  0
 13 16  1  0  0  0  0
M  END
> <VConfSearch Rank>
62

> <Conf_Id>
22

> <Delta U+W>
-1.185

> <U+W>
-58.089

> <U>
6.298

> <W>
-64.387

> <W(PB)>
-66.329

> <W(SA)>
1.942

> <Valence>
6.246

> <Coulomb>
-0.408

> <VdW>
0.460

> <VdW6>
-4.207

> <VdW12>
4.667

> <Bond>
0.072

> <Angle>
2.246

> <Pdih>
3.928

> <Idih>
0.001

> <Tether>
0.000

$$$$
VeraChem MOL file


 16 15  0  0  0  0  0  0  0  0999 V2000     
   18.3886   17.1779   22.5756 C   0  0  0  0  0  0  0  0  0  0  0  0
   17.7513   17.1411   23.6092 O   0  5  0  0  0  0  0  0  0  0  0  0
   18.6478   16.1944   21.9111 O   0  0  0  0  0  0  0  0  0  0  0  0
   18.9082   18.5291   22.0972 C   0  0  0  0  0  0  0  0  0  0  0  0
   18.1897   19.2984   22.4045 H   0  0  0  0  0  0  0  0  0  0  0  0
   18.9198   18.5141   21.0014 H   0  0  0  0  0  0  0  0  0  0  0  0
   20.3174   18.8620   22.6525 C   0  0  0  0  0  0  0  0  0  0  0  0
   20.2928   18.7836   23.7483 H   0  0  0  0  0  0  0  0  0  0  0  0
   21.0366   18.1082   22.3032 H   0  0  0  0  0  0  0  0  0  0  0  0
   20.8129   20.2748   22.2667 C   0  0  0  0  0  0  0  0  0  0  0  0
   21.7610   20.4707   22.7864 H   0  0  0  0  0  0  0  0  0  0  0  0
   20.0998   21.0295   22.6263 H   0  0  0  0  0  0  0  0  0  0  0  0
   21.0322   20.4494   20.7487 C   0  0  0  0  0  0  0  0  0  0  0  0
   20.0874   20.3745   20.1959 H   0  0  0  0  0  0  0  0  0  0  0  0
   21.7202   19.6868   20.3608 H   0  0  0  0  0  0  0  0  0  0  0  0
   21.4650   21.4352   20.5345 H   0  0  0  0  0  0  0  0  0  0  0  0
  1  2  1  0  0  0  0
  1  3  2  0  0  0  0
  1  4  1  0  0  0  0
  4  5  1  0  0  0  0
  4  6  1  0  0  0  0
  4  7  1  0  0  0  0
  7  8  1  0  0  0  0
  7  9  1  0  0  0  0
  7 10  1  0  0  0  0
 10 11  1  0  0  0  0
 10 12  1  0  0  0  0
 10 13  1  0  0  0  0
 13 14  1  0  0  0  0
 13 15  1  0  0  0  0
 13 16  1  0  0  0  0
M  END
> <VConfSearch Rank>
63

> <Conf_Id>
36

> <Delta U+W>
-0.427

> <U+W>
-57.331

> <U>
7.263

> <W>
-64.594

> <W(PB)>
-66.513

> <W(SA)>
1.920

> <Valence>
6.734

> <Coulomb>
-0.068

> <VdW>
0.598

> <VdW6>
-4.819

> <VdW12>
5.417

> <Bond>
0.107

> <Angle>
2.469

> <Pdih>
4.157

> <Idih>
0.001

> <Tether>
0.000

$$$$
VeraChem MOL file


 16 15  0  0  0  0  0  0  0  0999 V2000     
   18.0920   20.5713   23.0616 C   0  0  0  0  0  0  0  0  0  0  0  0
   17.8128   21.5250   22.3627 O   0  5  0  0  0  0  0  0  0  0  0  0
   17.8144   20.4998   24.2422 O   0  0  0  0  0  0  0  0  0  0  0  0
   18.8493   19.4097   22.4279 C   0  0  0  0  0  0  0  0  0  0  0  0
   18.5287   19.3318   21.3827 H   0  0  0  0  0  0  0  0  0  0  0  0
   18.5407   18.4862   22.9324 H   0  0  0  0  0  0  0  0  0  0  0  0
   20.3887   19.5770   22.5146 C   0  0  0  0  0  0  0  0  0  0  0  0
   20.6903   20.4821   21.9695 H   0  0  0  0  0  0  0  0  0  0  0  0
   20.6676   19.7394   23.5650 H   0  0  0  0  0  0  0  0  0  0  0  0
   21.1715   18.3576   21.9756 C   0  0  0  0  0  0  0  0  0  0  0  0
   20.8786   17.4543   22.5285 H   0  0  0  0  0  0  0  0  0  0  0  0
   22.2417   18.5095   22.1732 H   0  0  0  0  0  0  0  0  0  0  0  0
   20.9727   18.1272   20.4622 C   0  0  0  0  0  0  0  0  0  0  0  0
   19.9344   17.8588   20.2306 H   0  0  0  0  0  0  0  0  0  0  0  0
   21.6136   17.3079   20.1115 H   0  0  0  0  0  0  0  0  0  0  0  0
   21.2322   19.0276   19.8903 H   0  0  0  0  0  0  0  0  0  0  0  0
  1  2  1  0  0  0  0
  1  3  2  0  0  0  0
  1  4  1  0  0  0  0
  4  5  1  0  0  0  0
  4  6  1  0  0  0  0
  4  7  1  0  0  0  0
  7  8  1  0  0  0  0
  7  9  1  0  0  0  0
  7 10  1  0  0  0  0
 10 11  1  0  0  0  0
 10 12  1  0  0  0  0
 10 13  1  0  0  0  0
 13 14  1  0  0  0  0
 13 15  1  0  0  0  0
 13 16  1  0  0  0  0
M  END
> <VConfSearch Rank>
64

> <Conf_Id>
17

> <Delta U+W>
-0.432

> <U+W>
-57.336

> <U>
7.263

> <W>
-64.599

> <W(PB)>
-66.503

> <W(SA)>
1.904

> <Valence>
6.734

> <Coulomb>
-0.068

> <VdW>
0.598

> <VdW6>
-4.819

> <VdW12>
5.417

> <Bond>
0.107

> <Angle>
2.469

> <Pdih>
4.157

> <Idih>
0.001

> <Tether>
0.000

$$$$
VeraChem MOL file


 16 15  0  0  0  0  0  0  0  0999 V2000     
   19.2188   16.9530   22.0809 C   0  0  0  0  0  0  0  0  0  0  0  0
   18.0832   16.9045   21.6513 O   0  5  0  0  0  0  0  0  0  0  0  0
   20.1069   16.2087   21.7155 O   0  0  0  0  0  0  0  0  0  0  0  0
   19.5385   17.9896   23.1545 C   0  0  0  0  0  0  0  0  0  0  0  0
   20.4571   17.6869   23.6717 H   0  0  0  0  0  0  0  0  0  0  0  0
   18.7312   17.9543   23.8956 H   0  0  0  0  0  0  0  0  0  0  0  0
   19.6810   19.4362   22.6139 C   0  0  0  0  0  0  0  0  0  0  0  0
   18.7653   19.7152   22.0742 H   0  0  0  0  0  0  0  0  0  0  0  0
   19.7703   20.1269   23.4634 H   0  0  0  0  0  0  0  0  0  0  0  0
   20.9056   19.6065   21.6890 C   0  0  0  0  0  0  0  0  0  0  0  0
   20.8172   18.9343   20.8241 H   0  0  0  0  0  0  0  0  0  0  0  0
   21.8190   19.3154   22.2260 H   0  0  0  0  0  0  0  0  0  0  0  0
   21.0431   21.0597   21.1933 C   0  0  0  0  0  0  0  0  0  0  0  0
   20.1548   21.3664   20.6257 H   0  0  0  0  0  0  0  0  0  0  0  0
   21.9171   21.1632   20.5371 H   0  0  0  0  0  0  0  0  0  0  0  0
   21.1680   21.7523   22.0360 H   0  0  0  0  0  0  0  0  0  0  0  0
  1  2  1  0  0  0  0
  1  3  2  0  0  0  0
  1  4  1  0  0  0  0
  4  5  1  0  0  0  0
  4  6  1  0  0  0  0
  4  7  1  0  0  0  0
  7  8  1  0  0  0  0
  7  9  1  0  0  0  0
  7 10  1  0  0  0  0
 10 11  1  0  0  0  0
 10 12  1  0  0  0  0
 10 13  1  0  0  0  0
 13 14  1  0  0  0  0
 13 15  1  0  0  0  0
 13 16  1  0  0  0  0
M  END
> <VConfSearch Rank>
65

> <Conf_Id>
19

> <Delta U+W>
0.048

> <U+W>
-56.856

> <U>
8.276

> <W>
-65.132

> <W(PB)>
-67.031

> <W(SA)>
1.899

> <Valence>
6.513

> <Coulomb>
1.428

> <VdW>
0.335

> <VdW6>
-5.021

> <VdW12>
5.356

> <Bond>
0.092

> <Angle>
2.417

> <Pdih>
4.003

> <Idih>
0.001

> <Tether>
0.000

$$$$
VeraChem MOL file


 16 15  0  0  0  0  0  0  0  0999 V2000     
   19.0078   20.7047   20.5123 C   0  0  0  0  0  0  0  0  0  0  0  0
   19.7419   21.6516   20.3102 O   0  5  0  0  0  0  0  0  0  0  0  0
   17.8209   20.8141   20.7483 O   0  0  0  0  0  0  0  0  0  0  0  0
   19.6061   19.3023   20.4424 C   0  0  0  0  0  0  0  0  0  0  0  0
   20.2336   19.2577   19.5443 H   0  0  0  0  0  0  0  0  0  0  0  0
   18.7927   18.5810   20.2969 H   0  0  0  0  0  0  0  0  0  0  0  0
   20.4508   18.9129   21.6832 C   0  0  0  0  0  0  0  0  0  0  0  0
   20.9515   17.9550   21.4872 H   0  0  0  0  0  0  0  0  0  0  0  0
   21.2433   19.6592   21.8331 H   0  0  0  0  0  0  0  0  0  0  0  0
   19.6000   18.7889   22.9658 C   0  0  0  0  0  0  0  0  0  0  0  0
   18.8004   18.0514   22.8103 H   0  0  0  0  0  0  0  0  0  0  0  0
   19.1100   19.7482   23.1834 H   0  0  0  0  0  0  0  0  0  0  0  0
   20.4575   18.3684   24.1758 C   0  0  0  0  0  0  0  0  0  0  0  0
   20.9333   17.3946   24.0009 H   0  0  0  0  0  0  0  0  0  0  0  0
   19.8382   18.2859   25.0785 H   0  0  0  0  0  0  0  0  0  0  0  0
   21.2469   19.1057   24.3725 H   0  0  0  0  0  0  0  0  0  0  0  0
  1  2  1  0  0  0  0
  1  3  2  0  0  0  0
  1  4  1  0  0  0  0
  4  5  1  0  0  0  0
  4  6  1  0  0  0  0
  4  7  1  0  0  0  0
  7  8  1  0  0  0  0
  7  9  1  0  0  0  0
  7 10  1  0  0  0  0
 10 11  1  0  0  0  0
 10 12  1  0  0  0  0
 10 13  1  0  0  0  0
 13 14  1  0  0  0  0
 13 15  1  0  0  0  0
 13 16  1  0  0  0  0
M  END
> <VConfSearch Rank>
66

> <Conf_Id>
20

> <Delta U+W>
-0.010

> <U+W>
-56.914

> <U>
8.277

> <W>
-65.191

> <W(PB)>
-67.081

> <W(SA)>
1.890

> <Valence>
6.513

> <Coulomb>
1.429

> <VdW>
0.335

> <VdW6>
-5.021

> <VdW12>
5.356

> <Bond>
0.092

> <Angle>
2.417

> <Pdih>
4.002

> <Idih>
0.001

> <Tether>
0.000

$$$$
VeraChem MOL file


 16 15  0  0  0  0  0  0  0  0999 V2000     
   18.2751   18.4428   23.4293 C   0  0  0  0  0  0  0  0  0  0  0  0
   18.4682   17.8924   24.4955 O   0  5  0  0  0  0  0  0  0  0  0  0
   17.5003   18.0268   22.5910 O   0  0  0  0  0  0  0  0  0  0  0  0
   19.0214   19.7436   23.1454 C   0  0  0  0  0  0  0  0  0  0  0  0
   18.8746   20.3989   24.0120 H   0  0  0  0  0  0  0  0  0  0  0  0
   18.5452   20.2439   22.2943 H   0  0  0  0  0  0  0  0  0  0  0  0
   20.5430   19.5617   22.8923 C   0  0  0  0  0  0  0  0  0  0  0  0
   21.0097   20.5494   22.7777 H   0  0  0  0  0  0  0  0  0  0  0  0
   20.9972   19.1080   23.7840 H   0  0  0  0  0  0  0  0  0  0  0  0
   20.8849   18.6913   21.6596 C   0  0  0  0  0  0  0  0  0  0  0  0
   20.4525   17.6880   21.7780 H   0  0  0  0  0  0  0  0  0  0  0  0
   21.9743   18.5551   21.6155 H   0  0  0  0  0  0  0  0  0  0  0  0
   20.4058   19.3072   20.3278 C   0  0  0  0  0  0  0  0  0  0  0  0
   19.3101   19.3474   20.2793 H   0  0  0  0  0  0  0  0  0  0  0  0
   20.7533   18.7038   19.4792 H   0  0  0  0  0  0  0  0  0  0  0  0
   20.7959   20.3255   20.2016 H   0  0  0  0  0  0  0  0  0  0  0  0
  1  2  1  0  0  0  0
  1  3  2  0  0  0  0
  1  4  1  0  0  0  0
  4  5  1  0  0  0  0
  4  6  1  0  0  0  0
  4  7  1  0  0  0  0
  7  8  1  0  0  0  0
  7  9  1  0  0  0  0
  7 10  1  0  0  0  0
 10 11  1  0  0  0  0
 10 12  1  0  0  0  0
 10 13  1  0  0  0  0
 13 14  1  0  0  0  0
 13 15  1  0  0  0  0
 13 16  1  0  0  0  0
M  END
> <VConfSearch Rank>
67

> <Conf_Id>
37

> <Delta U+W>
1.063

> <U+W>
-55.841

> <U>
9.719

> <W>
-65.560

> <W(PB)>
-67.414

> <W(SA)>
1.854

> <Valence>
7.002

> <Coulomb>
2.402

> <VdW>
0.314

> <VdW6>
-5.861

> <VdW12>
6.175

> <Bond>
0.134

> <Angle>
2.733

> <Pdih>
4.133

> <Idih>
0.002

> <Tether>
0.000

$$$$
VeraChem MOL file


 16 15  0  0  0  0  0  0  0  0999 V2000     
   21.5481   20.1740   20.9283 C   0  0  0  0  0  0  0  0  0  0  0  0
   22.2520   21.0784   21.3325 O   0  5  0  0  0  0  0  0  0  0  0  0
   21.9612   19.2558   20.2481 O   0  0  0  0  0  0  0  0  0  0  0  0
   20.0600   20.2146   21.2653 C   0  0  0  0  0  0  0  0  0  0  0  0
   19.5328   19.5053   20.6170 H   0  0  0  0  0  0  0  0  0  0  0  0
   19.6926   21.2120   20.9970 H   0  0  0  0  0  0  0  0  0  0  0  0
   19.7383   19.9345   22.7589 C   0  0  0  0  0  0  0  0  0  0  0  0
   20.2376   20.6944   23.3758 H   0  0  0  0  0  0  0  0  0  0  0  0
   18.6602   20.0627   22.9253 H   0  0  0  0  0  0  0  0  0  0  0  0
   20.1658   18.5313   23.2512 C   0  0  0  0  0  0  0  0  0  0  0  0
   19.9727   18.4625   24.3306 H   0  0  0  0  0  0  0  0  0  0  0  0
   21.2496   18.4034   23.1222 H   0  0  0  0  0  0  0  0  0  0  0  0
   19.4209   17.3829   22.5379 C   0  0  0  0  0  0  0  0  0  0  0  0
   18.3334   17.5066   22.6216 H   0  0  0  0  0  0  0  0  0  0  0  0
   19.6874   16.4167   22.9853 H   0  0  0  0  0  0  0  0  0  0  0  0
   19.6836   17.3389   21.4732 H   0  0  0  0  0  0  0  0  0  0  0  0
  1  2  1  0  0  0  0
  1  3  2  0  0  0  0
  1  4  1  0  0  0  0
  4  5  1  0  0  0  0
  4  6  1  0  0  0  0
  4  7  1  0  0  0  0
  7  8  1  0  0  0  0
  7  9  1  0  0  0  0
  7 10  1  0  0  0  0
 10 11  1  0  0  0  0
 10 12  1  0  0  0  0
 10 13  1  0  0  0  0
 13 14  1  0  0  0  0
 13 15  1  0  0  0  0
 13 16  1  0  0  0  0
M  END
> <VConfSearch Rank>
68

> <Conf_Id>
39

> <Delta U+W>
1.129

> <U+W>
-55.775

> <U>
9.718

> <W>
-65.493

> <W(PB)>
-67.361

> <W(SA)>
1.869

> <Valence>
7.002

> <Coulomb>
2.402

> <VdW>
0.314

> <VdW6>
-5.861

> <VdW12>
6.175

> <Bond>
0.134

> <Angle>
2.734

> <Pdih>
4.133

> <Idih>
0.002

> <Tether>
0.000

$$$$
VeraChem MOL file


 16 15  0  0  0  0  0  0  0  0999 V2000     
   18.1737   18.3680   22.9751 C   0  0  0  0  0  0  0  0  0  0  0  0
   17.7472   17.4728   22.2726 O   0  5  0  0  0  0  0  0  0  0  0  0
   17.4941   19.3015   23.3546 O   0  0  0  0  0  0  0  0  0  0  0  0
   19.6121   18.2659   23.4792 C   0  0  0  0  0  0  0  0  0  0  0  0
   20.0539   17.3321   23.1108 H   0  0  0  0  0  0  0  0  0  0  0  0
   19.5513   18.1746   24.5700 H   0  0  0  0  0  0  0  0  0  0  0  0
   20.5278   19.4710   23.1240 C   0  0  0  0  0  0  0  0  0  0  0  0
   19.9940   20.4138   23.3076 H   0  0  0  0  0  0  0  0  0  0  0  0
   21.3796   19.4655   23.8175 H   0  0  0  0  0  0  0  0  0  0  0  0
   21.0924   19.4520   21.6831 C   0  0  0  0  0  0  0  0  0  0  0  0
   21.6236   18.5072   21.5029 H   0  0  0  0  0  0  0  0  0  0  0  0
   21.8429   20.2495   21.5936 H   0  0  0  0  0  0  0  0  0  0  0  0
   20.0230   19.6626   20.5912 C   0  0  0  0  0  0  0  0  0  0  0  0
   19.3412   18.8057   20.5293 H   0  0  0  0  0  0  0  0  0  0  0  0
   20.4963   19.7791   19.6077 H   0  0  0  0  0  0  0  0  0  0  0  0
   19.4281   20.5635   20.7906 H   0  0  0  0  0  0  0  0  0  0  0  0
  1  2  1  0  0  0  0
  1  3  2  0  0  0  0
  1  4  1  0  0  0  0
  4  5  1  0  0  0  0
  4  6  1  0  0  0  0
  4  7  1  0  0  0  0
  7  8  1  0  0  0  0
  7  9  1  0  0  0  0
  7 10  1  0  0  0  0
 10 11  1  0  0  0  0
 10 12  1  0  0  0  0
 10 13  1  0  0  0  0
 13 14  1  0  0  0  0
 13 15  1  0  0  0  0
 13 16  1  0  0  0  0
M  END
> <VConfSearch Rank>
69

> <Conf_Id>
47

> <Delta U+W>
2.301

> <U+W>
-54.603

> <U>
11.258

> <W>
-65.861

> <W(PB)>
-67.702

> <W(SA)>
1.841

> <Valence>
8.169

> <Coulomb>
2.735

> <VdW>
0.355

> <VdW6>
-6.245

> <VdW12>
6.600

> <Bond>
0.149

> <Angle>
3.168

> <Pdih>
4.840

> <Idih>
0.011

> <Tether>
0.000

$$$$
VeraChem MOL file


 16 15  0  0  0  0  0  0  0  0999 V2000     
   19.9282   20.7060   21.0650 C   0  0  0  0  0  0  0  0  0  0  0  0
   20.6281   20.4469   20.1058 O   0  5  0  0  0  0  0  0  0  0  0  0
   20.0239   21.7353   21.7039 O   0  0  0  0  0  0  0  0  0  0  0  0
   18.8114   19.7306   21.4324 C   0  0  0  0  0  0  0  0  0  0  0  0
   18.1394   19.6905   20.5672 H   0  0  0  0  0  0  0  0  0  0  0  0
   18.2294   20.1504   22.2619 H   0  0  0  0  0  0  0  0  0  0  0  0
   19.2762   18.2878   21.7776 C   0  0  0  0  0  0  0  0  0  0  0  0
   18.4137   17.6174   21.6635 H   0  0  0  0  0  0  0  0  0  0  0  0
   20.0218   17.9492   21.0448 H   0  0  0  0  0  0  0  0  0  0  0  0
   19.8246   18.1109   23.2141 C   0  0  0  0  0  0  0  0  0  0  0  0
   19.9700   17.0379   23.4006 H   0  0  0  0  0  0  0  0  0  0  0  0
   19.0771   18.4522   23.9434 H   0  0  0  0  0  0  0  0  0  0  0  0
   21.1630   18.8363   23.4646 C   0  0  0  0  0  0  0  0  0  0  0  0
   21.5702   18.5625   24.4464 H   0  0  0  0  0  0  0  0  0  0  0  0
   21.0354   19.9256   23.4528 H   0  0  0  0  0  0  0  0  0  0  0  0
   21.9058   18.5675   22.7021 H   0  0  0  0  0  0  0  0  0  0  0  0
  1  2  1  0  0  0  0
  1  3  2  0  0  0  0
  1  4  1  0  0  0  0
  4  5  1  0  0  0  0
  4  6  1  0  0  0  0
  4  7  1  0  0  0  0
  7  8  1  0  0  0  0
  7  9  1  0  0  0  0
  7 10  1  0  0  0  0
 10 11  1  0  0  0  0
 10 12  1  0  0  0  0
 10 13  1  0  0  0  0
 13 14  1  0  0  0  0
 13 15  1  0  0  0  0
 13 16  1  0  0  0  0
M  END
> <VConfSearch Rank>
70

> <Conf_Id>
45

> <Delta U+W>
2.303

> <U+W>
-54.601

> <U>
11.258

> <W>
-65.860

> <W(PB)>
-67.709

> <W(SA)>
1.849

> <Valence>
8.169

> <Coulomb>
2.735

> <VdW>
0.355

> <VdW6>
-6.245

> <VdW12>
6.600

> <Bond>
0.149

> <Angle>
3.168

> <Pdih>
4.840

> <Idih>
0.011

> <Tether>
0.000

$$$$
VeraChem MOL file


 16 15  0  0  0  0  0  0  0  0999 V2000     
   22.3030   17.9609   22.9062 C   0  0  0  0  0  0  0  0  0  0  0  0
   22.2644   18.5513   23.9681 O   0  5  0  0  0  0  0  0  0  0  0  0
   23.1800   17.1711   22.6191 O   0  0  0  0  0  0  0  0  0  0  0  0
   21.2115   18.2023   21.8620 C   0  0  0  0  0  0  0  0  0  0  0  0
   20.7522   17.2322   21.6384 H   0  0  0  0  0  0  0  0  0  0  0  0
   21.7060   18.5421   20.9443 H   0  0  0  0  0  0  0  0  0  0  0  0
   20.1135   19.2193   22.2725 C   0  0  0  0  0  0  0  0  0  0  0  0
   19.6255   18.8764   23.1953 H   0  0  0  0  0  0  0  0  0  0  0  0
   20.5803   20.1877   22.5005 H   0  0  0  0  0  0  0  0  0  0  0  0
   19.0565   19.4010   21.1630 C   0  0  0  0  0  0  0  0  0  0  0  0
   18.5877   18.4336   20.9353 H   0  0  0  0  0  0  0  0  0  0  0  0
   19.5431   19.7457   20.2400 H   0  0  0  0  0  0  0  0  0  0  0  0
   17.9689   20.4121   21.5766 C   0  0  0  0  0  0  0  0  0  0  0  0
   17.4441   20.0765   22.4807 H   0  0  0  0  0  0  0  0  0  0  0  0
   17.2258   20.5295   20.7771 H   0  0  0  0  0  0  0  0  0  0  0  0
   18.4065   21.3982   21.7803 H   0  0  0  0  0  0  0  0  0  0  0  0
  1  2  1  0  0  0  0
  1  3  2  0  0  0  0
  1  4  1  0  0  0  0
  4  5  1  0  0  0  0
  4  6  1  0  0  0  0
  4  7  1  0  0  0  0
  7  8  1  0  0  0  0
  7  9  1  0  0  0  0
  7 10  1  0  0  0  0
 10 11  1  0  0  0  0
 10 12  1  0  0  0  0
 10 13  1  0  0  0  0
 13 14  1  0  0  0  0
 13 15  1  0  0  0  0
 13 16  1  0  0  0  0
M  END
> <VConfSearch Rank>
71

> <Conf_Id>
0

> <Delta U+W>
0.000

> <U+W>
-56.904

> <U>
7.329

> <W>
-64.233

> <W(PB)>
-66.148

> <W(SA)>
1.915

> <Valence>
6.755

> <Coulomb>
-0.421

> <VdW>
0.995

> <VdW6>
-4.495

> <VdW12>
5.490

> <Bond>
0.106

> <Angle>
2.715

> <Pdih>
3.934

> <Idih>
0.000

> <Tether>
0.000

$$$$
VeraChem MOL file


 16 15  0  0  0  0  0  0  0  0999 V2000     
   20.3156   20.6713   19.7079 C   0  0  0  0  0  0  0  0  0  0  0  0
   19.5869   20.3682   18.7844 O   0  5  0  0  0  0  0  0  0  0  0  0
   20.6967   21.8053   19.9190 O   0  0  0  0  0  0  0  0  0  0  0  0
   20.7616   19.5713   20.6649 C   0  0  0  0  0  0  0  0  0  0  0  0
   21.7645   19.8231   21.0304 H   0  0  0  0  0  0  0  0  0  0  0  0
   20.8493   18.6384   20.0950 H   0  0  0  0  0  0  0  0  0  0  0  0
   19.7916   19.3795   21.8567 C   0  0  0  0  0  0  0  0  0  0  0  0
   19.7047   20.3251   22.4099 H   0  0  0  0  0  0  0  0  0  0  0  0
   18.7895   19.1403   21.4744 H   0  0  0  0  0  0  0  0  0  0  0  0
   20.2657   18.2617   22.8087 C   0  0  0  0  0  0  0  0  0  0  0  0
   21.2675   18.5009   23.1918 H   0  0  0  0  0  0  0  0  0  0  0  0
   20.3521   17.3158   22.2561 H   0  0  0  0  0  0  0  0  0  0  0  0
   19.2957   18.0765   23.9923 C   0  0  0  0  0  0  0  0  0  0  0  0
   18.2921   17.8054   23.6390 H   0  0  0  0  0  0  0  0  0  0  0  0
   19.2142   18.9993   24.5815 H   0  0  0  0  0  0  0  0  0  0  0  0
   19.6472   17.2784   24.6592 H   0  0  0  0  0  0  0  0  0  0  0  0
  1  2  1  0  0  0  0
  1  3  2  0  0  0  0
  1  4  1  0  0  0  0
  4  5  1  0  0  0  0
  4  6  1  0  0  0  0
  4  7  1  0  0  0  0
  7  8  1  0  0  0  0
  7  9  1  0  0  0  0
  7 10  1  0  0  0  0
 10 11  1  0  0  0  0
 10 12  1  0  0  0  0
 10 13  1  0  0  0  0
 13 14  1  0  0  0  0
 13 15  1  0  0  0  0
 13 16  1  0  0  0  0
M  END
> <VConfSearch Rank>
72

> <Conf_Id>
22

> <Delta U+W>
-1.185

> <U+W>
-58.089

> <U>
6.298

> <W>
-64.387

> <W(PB)>
-66.329

> <W(SA)>
1.942

> <Valence>
6.246

> <Coulomb>
-0.408

> <VdW>
0.460

> <VdW6>
-4.207

> <VdW12>
4.667

> <Bond>
0.072

> <Angle>
2.246

> <Pdih>
3.928

> <Idih>
0.001

> <Tether>
0.000

$$$$
VeraChem MOL file


 16 15  0  0  0  0  0  0  0  0999 V2000     
   18.1023   20.6640   21.0265 C   0  0  0  0  0  0  0  0  0  0  0  0
   18.2696   21.3519   20.0392 O   0  5  0  0  0  0  0  0  0  0  0  0
   17.2359   20.8736   21.8520 O   0  0  0  0  0  0  0  0  0  0  0  0
   19.0435   19.4858   21.2517 C   0  0  0  0  0  0  0  0  0  0  0  0
   19.3381   19.0931   20.2712 H   0  0  0  0  0  0  0  0  0  0  0  0
   18.4769   18.6978   21.7608 H   0  0  0  0  0  0  0  0  0  0  0  0
   20.3015   19.8700   22.0732 C   0  0  0  0  0  0  0  0  0  0  0  0
   20.7981   20.7186   21.5827 H   0  0  0  0  0  0  0  0  0  0  0  0
   19.9961   20.2217   23.0684 H   0  0  0  0  0  0  0  0  0  0  0  0
   21.3188   18.7147   22.2172 C   0  0  0  0  0  0  0  0  0  0  0  0
   22.2213   19.0986   22.7128 H   0  0  0  0  0  0  0  0  0  0  0  0
   21.6333   18.3707   21.2222 H   0  0  0  0  0  0  0  0  0  0  0  0
   20.7737   17.5215   23.0307 C   0  0  0  0  0  0  0  0  0  0  0  0
   19.9376   17.0331   22.5148 H   0  0  0  0  0  0  0  0  0  0  0  0
   20.4260   17.8465   24.0200 H   0  0  0  0  0  0  0  0  0  0  0  0
   21.5581   16.7680   23.1791 H   0  0  0  0  0  0  0  0  0  0  0  0
  1  2  1  0  0  0  0
  1  3  2  0  0  0  0
  1  4  1  0  0  0  0
  4  5  1  0  0  0  0
  4  6  1  0  0  0  0
  4  7  1  0  0  0  0
  7  8  1  0  0  0  0
  7  9  1  0  0  0  0
  7 10  1  0  0  0  0
 10 11  1  0  0  0  0
 10 12  1  0  0  0  0
 10 13  1  0  0  0  0
 13 14  1  0  0  0  0
 13 15  1  0  0  0  0
 13 16  1  0  0  0  0
M  END
> <VConfSearch Rank>
73

> <Conf_Id>
36

> <Delta U+W>
-0.427

> <U+W>
-57.331

> <U>
7.263

> <W>
-64.594

> <W(PB)>
-66.513

> <W(SA)>
1.920

> <Valence>
6.734

> <Coulomb>
-0.068

> <VdW>
0.598

> <VdW6>
-4.819

> <VdW12>
5.417

> <Bond>
0.107

> <Angle>
2.469

> <Pdih>
4.157

> <Idih>
0.001

> <Tether>
0.000

$$$$
VeraChem MOL file


 16 15  0  0  0  0  0  0  0  0999 V2000     
   21.4020   18.1960   23.9229 C   0  0  0  0  0  0  0  0  0  0  0  0
   22.4447   18.8092   24.0355 O   0  5  0  0  0  0  0  0  0  0  0  0
   21.2219   17.0870   24.3850 O   0  0  0  0  0  0  0  0  0  0  0  0
   20.2643   18.8448   23.1423 C   0  0  0  0  0  0  0  0  0  0  0  0
   20.3256   19.9276   23.2997 H   0  0  0  0  0  0  0  0  0  0  0  0
   19.3163   18.5061   23.5774 H   0  0  0  0  0  0  0  0  0  0  0  0
   20.3069   18.5108   21.6285 C   0  0  0  0  0  0  0  0  0  0  0  0
   21.2416   18.8925   21.1951 H   0  0  0  0  0  0  0  0  0  0  0  0
   20.3318   17.4188   21.5083 H   0  0  0  0  0  0  0  0  0  0  0  0
   19.0996   19.0697   20.8408 C   0  0  0  0  0  0  0  0  0  0  0  0
   18.1651   18.6788   21.2668 H   0  0  0  0  0  0  0  0  0  0  0  0
   19.1493   18.6984   19.8079 H   0  0  0  0  0  0  0  0  0  0  0  0
   19.0522   20.6124   20.8135 C   0  0  0  0  0  0  0  0  0  0  0  0
   18.8883   21.0263   21.8163 H   0  0  0  0  0  0  0  0  0  0  0  0
   18.2313   20.9596   20.1727 H   0  0  0  0  0  0  0  0  0  0  0  0
   19.9884   21.0273   20.4177 H   0  0  0  0  0  0  0  0  0  0  0  0
  1  2  1  0  0  0  0
  1  3  2  0  0  0  0
  1  4  1  0  0  0  0
  4  5  1  0  0  0  0
  4  6  1  0  0  0  0
  4  7  1  0  0  0  0
  7  8  1  0  0  0  0
  7  9  1  0  0  0  0
  7 10  1  0  0  0  0
 10 11  1  0  0  0  0
 10 12  1  0  0  0  0
 10 13  1  0  0  0  0
 13 14  1  0  0  0  0
 13 15  1  0  0  0  0
 13 16  1  0  0  0  0
M  END
> <VConfSearch Rank>
74

> <Conf_Id>
17

> <Delta U+W>
-0.432

> <U+W>
-57.336

> <U>
7.263

> <W>
-64.599

> <W(PB)>
-66.503

> <W(SA)>
1.904

> <Valence>
6.734

> <Coulomb>
-0.068

> <VdW>
0.598

> <VdW6>
-4.819

> <VdW12>
5.417

> <Bond>
0.107

> <Angle>
2.469

> <Pdih>
4.157

> <Idih>
0.001

> <Tether>
0.000

$$$$
VeraChem MOL file


 16 15  0  0  0  0  0  0  0  0999 V2000     
   21.0466   17.3041   20.8984 C   0  0  0  0  0  0  0  0  0  0  0  0
   20.2077   16.6058   20.3645 O   0  5  0  0  0  0  0  0  0  0  0  0
   22.0339   17.7226   20.3270 O   0  0  0  0  0  0  0  0  0  0  0  0
   20.8605   17.6532   22.3725 C   0  0  0  0  0  0  0  0  0  0  0  0
   21.8275   17.9688   22.7828 H   0  0  0  0  0  0  0  0  0  0  0  0
   20.5801   16.7311   22.8953 H   0  0  0  0  0  0  0  0  0  0  0  0
   19.7877   18.7422   22.6336 C   0  0  0  0  0  0  0  0  0  0  0  0
   18.8323   18.4254   22.1925 H   0  0  0  0  0  0  0  0  0  0  0  0
   19.6230   18.8280   23.7162 H   0  0  0  0  0  0  0  0  0  0  0  0
   20.1921   20.1215   22.0697 C   0  0  0  0  0  0  0  0  0  0  0  0
   20.3398   20.0524   20.9829 H   0  0  0  0  0  0  0  0  0  0  0  0
   21.1536   20.4313   22.5022 H   0  0  0  0  0  0  0  0  0  0  0  0
   19.1249   21.1920   22.3722 C   0  0  0  0  0  0  0  0  0  0  0  0
   18.1598   20.9216   21.9240 H   0  0  0  0  0  0  0  0  0  0  0  0
   19.4273   22.1653   21.9643 H   0  0  0  0  0  0  0  0  0  0  0  0
   18.9803   21.3081   23.4543 H   0  0  0  0  0  0  0  0  0  0  0  0
  1  2  1  0  0  0  0
  1  3  2  0  0  0  0
  1  4  1  0  0  0  0
  4  5  1  0  0  0  0
  4  6  1  0  0  0  0
  4  7  1  0  0  0  0
  7  8  1  0  0  0  0
  7  9  1  0  0  0  0
  7 10  1  0  0  0  0
 10 11  1  0  0  0  0
 10 12  1  0  0  0  0
 10 13  1  0  0  0  0
 13 14  1  0  0  0  0
 13 15  1  0  0  0  0
 13 16  1  0  0  0  0
M  END
> <VConfSearch Rank>
75

> <Conf_Id>
19

> <Delta U+W>
0.048

> <U+W>
-56.856

> <U>
8.276

> <W>
-65.132

> <W(PB)>
-67.031

> <W(SA)>
1.899

> <Valence>
6.513

> <Coulomb>
1.428

> <VdW>
0.335

> <VdW6>
-5.021

> <VdW12>
5.356

> <Bond>
0.092

> <Angle>
2.417

> <Pdih>
4.003

> <Idih>
0.001

> <Tether>
0.000

$$$$
VeraChem MOL file


 16 15  0  0  0  0  0  0  0  0999 V2000     
   18.1700   18.2599   23.4766 C   0  0  0  0  0  0  0  0  0  0  0  0
   18.2578   18.6043   24.6384 O   0  5  0  0  0  0  0  0  0  0  0  0
   18.0192   17.1056   23.1284 O   0  0  0  0  0  0  0  0  0  0  0  0
   18.2290   19.3394   22.3993 C   0  0  0  0  0  0  0  0  0  0  0  0
   17.5776   20.1605   22.7214 H   0  0  0  0  0  0  0  0  0  0  0  0
   17.7976   18.9363   21.4749 H   0  0  0  0  0  0  0  0  0  0  0  0
   19.6550   19.8863   22.1299 C   0  0  0  0  0  0  0  0  0  0  0  0
   19.5844   20.7462   21.4501 H   0  0  0  0  0  0  0  0  0  0  0  0
   20.0852   20.2602   23.0694 H   0  0  0  0  0  0  0  0  0  0  0  0
   20.5911   18.8250   21.5121 C   0  0  0  0  0  0  0  0  0  0  0  0
   20.1538   18.4431   20.5792 H   0  0  0  0  0  0  0  0  0  0  0  0
   20.6856   17.9679   22.1934 H   0  0  0  0  0  0  0  0  0  0  0  0
   21.9905   19.4035   21.2234 C   0  0  0  0  0  0  0  0  0  0  0  0
   21.9313   20.2417   20.5168 H   0  0  0  0  0  0  0  0  0  0  0  0
   22.6431   18.6368   20.7859 H   0  0  0  0  0  0  0  0  0  0  0  0
   22.4636   19.7651   22.1459 H   0  0  0  0  0  0  0  0  0  0  0  0
  1  2  1  0  0  0  0
  1  3  2  0  0  0  0
  1  4  1  0  0  0  0
  4  5  1  0  0  0  0
  4  6  1  0  0  0  0
  4  7  1  0  0  0  0
  7  8  1  0  0  0  0
  7  9  1  0  0  0  0
  7 10  1  0  0  0  0
 10 11  1  0  0  0  0
 10 12  1  0  0  0  0
 10 13  1  0  0  0  0
 13 14  1  0  0  0  0
 13 15  1  0  0  0  0
 13 16  1  0  0  0  0
M  END
> <VConfSearch Rank>
76

> <Conf_Id>
20

> <Delta U+W>
-0.010

> <U+W>
-56.914

> <U>
8.277

> <W>
-65.191

> <W(PB)>
-67.081

> <W(SA)>
1.890

> <Valence>
6.513

> <Coulomb>
1.429

> <VdW>
0.335

> <VdW6>
-5.021

> <VdW12>
5.356

> <Bond>
0.092

> <Angle>
2.417

> <Pdih>
4.002

> <Idih>
0.001

> <Tether>
0.000

$$$$
VeraChem MOL file


 16 15  0  0  0  0  0  0  0  0999 V2000     
   17.9496   19.9597   22.7375 C   0  0  0  0  0  0  0  0  0  0  0  0
   17.3356   20.7586   22.0581 O   0  5  0  0  0  0  0  0  0  0  0  0
   18.1047   20.0792   23.9367 O   0  0  0  0  0  0  0  0  0  0  0  0
   18.5262   18.7243   22.0512 C   0  0  0  0  0  0  0  0  0  0  0  0
   17.7193   18.2728   21.4622 H   0  0  0  0  0  0  0  0  0  0  0  0
   18.7982   17.9902   22.8182 H   0  0  0  0  0  0  0  0  0  0  0  0
   19.7356   19.0192   21.1222 C   0  0  0  0  0  0  0  0  0  0  0  0
   20.0322   18.0928   20.6121 H   0  0  0  0  0  0  0  0  0  0  0  0
   19.4143   19.7150   20.3349 H   0  0  0  0  0  0  0  0  0  0  0  0
   20.9651   19.6173   21.8464 C   0  0  0  0  0  0  0  0  0  0  0  0
   20.6898   20.5637   22.3324 H   0  0  0  0  0  0  0  0  0  0  0  0
   21.7293   19.8656   21.0970 H   0  0  0  0  0  0  0  0  0  0  0  0
   21.5823   18.6609   22.8889 C   0  0  0  0  0  0  0  0  0  0  0  0
   20.8924   18.4834   23.7238 H   0  0  0  0  0  0  0  0  0  0  0  0
   22.5030   19.0898   23.3052 H   0  0  0  0  0  0  0  0  0  0  0  0
   21.8341   17.6933   22.4357 H   0  0  0  0  0  0  0  0  0  0  0  0
  1  2  1  0  0  0  0
  1  3  2  0  0  0  0
  1  4  1  0  0  0  0
  4  5  1  0  0  0  0
  4  6  1  0  0  0  0
  4  7  1  0  0  0  0
  7  8  1  0  0  0  0
  7  9  1  0  0  0  0
  7 10  1  0  0  0  0
 10 11  1  0  0  0  0
 10 12  1  0  0  0  0
 10 13  1  0  0  0  0
 13 14  1  0  0  0  0
 13 15  1  0  0  0  0
 13 16  1  0  0  0  0
M  END
> <VConfSearch Rank>
77

> <Conf_Id>
37

> <Delta U+W>
1.063

> <U+W>
-55.841

> <U>
9.719

> <W>
-65.560

> <W(PB)>
-67.414

> <W(SA)>
1.854

> <Valence>
7.002

> <Coulomb>
2.402

> <VdW>
0.314

> <VdW6>
-5.861

> <VdW12>
6.175

> <Bond>
0.134

> <Angle>
2.733

> <Pdih>
4.133

> <Idih>
0.002

> <Tether>
0.000

$$$$
VeraChem MOL file


 16 15  0  0  0  0  0  0  0  0999 V2000     
   19.3198   18.1745   23.9124 C   0  0  0  0  0  0  0  0  0  0  0  0
   18.7332   17.1110   23.8703 O   0  5  0  0  0  0  0  0  0  0  0  0
   20.1769   18.4351   24.7333 O   0  0  0  0  0  0  0  0  0  0  0  0
   18.9329   19.2503   22.9012 C   0  0  0  0  0  0  0  0  0  0  0  0
   19.3397   20.2112   23.2366 H   0  0  0  0  0  0  0  0  0  0  0  0
   17.8414   19.3481   22.9316 H   0  0  0  0  0  0  0  0  0  0  0  0
   19.3798   18.9448   21.4453 C   0  0  0  0  0  0  0  0  0  0  0  0
   18.9118   18.0044   21.1226 H   0  0  0  0  0  0  0  0  0  0  0  0
   18.9921   19.7264   20.7781 H   0  0  0  0  0  0  0  0  0  0  0  0
   20.9115   18.8305   21.2590 C   0  0  0  0  0  0  0  0  0  0  0  0
   21.1192   18.5330   20.2219 H   0  0  0  0  0  0  0  0  0  0  0  0
   21.3073   18.0273   21.8961 H   0  0  0  0  0  0  0  0  0  0  0  0
   21.6611   20.1459   21.5593 C   0  0  0  0  0  0  0  0  0  0  0  0
   21.2600   20.9737   20.9601 H   0  0  0  0  0  0  0  0  0  0  0  0
   22.7279   20.0421   21.3225 H   0  0  0  0  0  0  0  0  0  0  0  0
   21.5818   20.4159   22.6201 H   0  0  0  0  0  0  0  0  0  0  0  0
  1  2  1  0  0  0  0
  1  3  2  0  0  0  0
  1  4  1  0  0  0  0
  4  5  1  0  0  0  0
  4  6  1  0  0  0  0
  4  7  1  0  0  0  0
  7  8  1  0  0  0  0
  7  9  1  0  0  0  0
  7 10  1  0  0  0  0
 10 11  1  0  0  0  0
 10 12  1  0  0  0  0
 10 13  1  0  0  0  0
 13 14  1  0  0  0  0
 13 15  1  0  0  0  0
 13 16  1  0  0  0  0
M  END
> <VConfSearch Rank>
78

> <Conf_Id>
39

> <Delta U+W>
1.129

> <U+W>
-55.775

> <U>
9.718

> <W>
-65.493

> <W(PB)>
-67.361

> <W(SA)>
1.869

> <Valence>
7.002

> <Coulomb>
2.402

> <VdW>
0.314

> <VdW6>
-5.861

> <VdW12>
6.175

> <Bond>
0.134

> <Angle>
2.734

> <Pdih>
4.133

> <Idih>
0.002

> <Tether>
0.000

$$$$
VeraChem MOL file


 16 15  0  0  0  0  0  0  0  0999 V2000     
   21.4773   20.2550   21.9377 C   0  0  0  0  0  0  0  0  0  0  0  0
   22.4765   19.5982   21.7206 O   0  5  0  0  0  0  0  0  0  0  0  0
   21.4440   21.1817   22.7233 O   0  0  0  0  0  0  0  0  0  0  0  0
   20.2256   19.9568   21.1143 C   0  0  0  0  0  0  0  0  0  0  0  0
   20.4492   19.1517   20.4038 H   0  0  0  0  0  0  0  0  0  0  0  0
   20.0272   20.8549   20.5177 H   0  0  0  0  0  0  0  0  0  0  0  0
   18.9549   19.6084   21.9395 C   0  0  0  0  0  0  0  0  0  0  0  0
   18.8513   20.3077   22.7808 H   0  0  0  0  0  0  0  0  0  0  0  0
   18.0785   19.7742   21.2985 H   0  0  0  0  0  0  0  0  0  0  0  0
   18.8958   18.1489   22.4513 C   0  0  0  0  0  0  0  0  0  0  0  0
   19.0017   17.4531   21.6076 H   0  0  0  0  0  0  0  0  0  0  0  0
   17.8982   17.9698   22.8755 H   0  0  0  0  0  0  0  0  0  0  0  0
   19.9507   17.8225   23.5287 C   0  0  0  0  0  0  0  0  0  0  0  0
   20.9642   17.8260   23.1095 H   0  0  0  0  0  0  0  0  0  0  0  0
   19.7721   16.8253   23.9513 H   0  0  0  0  0  0  0  0  0  0  0  0
   19.9142   18.5506   24.3496 H   0  0  0  0  0  0  0  0  0  0  0  0
  1  2  1  0  0  0  0
  1  3  2  0  0  0  0
  1  4  1  0  0  0  0
  4  5  1  0  0  0  0
  4  6  1  0  0  0  0
  4  7  1  0  0  0  0
  7  8  1  0  0  0  0
  7  9  1  0  0  0  0
  7 10  1  0  0  0  0
 10 11  1  0  0  0  0
 10 12  1  0  0  0  0
 10 13  1  0  0  0  0
 13 14  1  0  0  0  0
 13 15  1  0  0  0  0
 13 16  1  0  0  0  0
M  END
> <VConfSearch Rank>
79

> <Conf_Id>
47

> <Delta U+W>
2.301

> <U+W>
-54.603

> <U>
11.258

> <W>
-65.861

> <W(PB)>
-67.702

> <W(SA)>
1.841

> <Valence>
8.169

> <Coulomb>
2.735

> <VdW>
0.355

> <VdW6>
-6.245

> <VdW12>
6.600

> <Bond>
0.149

> <Angle>
3.168

> <Pdih>
4.840

> <Idih>
0.011

> <Tether>
0.000

$$$$
VeraChem MOL file


 16 15  0  0  0  0  0  0  0  0999 V2000     
   21.7256   19.3161   22.9864 C   0  0  0  0  0  0  0  0  0  0  0  0
   22.0499   18.2748   23.5228 O   0  5  0  0  0  0  0  0  0  0  0  0
   21.8813   20.4078   23.4969 O   0  0  0  0  0  0  0  0  0  0  0  0
   21.1773   19.2578   21.5617 C   0  0  0  0  0  0  0  0  0  0  0  0
   21.9742   18.8312   20.9414 H   0  0  0  0  0  0  0  0  0  0  0  0
   21.0126   20.2803   21.2007 H   0  0  0  0  0  0  0  0  0  0  0  0
   19.8874   18.4091   21.3803 C   0  0  0  0  0  0  0  0  0  0  0  0
   19.8031   18.1435   20.3179 H   0  0  0  0  0  0  0  0  0  0  0  0
   19.9851   17.4587   21.9232 H   0  0  0  0  0  0  0  0  0  0  0  0
   18.5786   19.1248   21.7931 C   0  0  0  0  0  0  0  0  0  0  0  0
   17.7289   18.5042   21.4767 H   0  0  0  0  0  0  0  0  0  0  0  0
   18.4857   20.0752   21.2497 H   0  0  0  0  0  0  0  0  0  0  0  0
   18.4591   19.3804   23.3099 C   0  0  0  0  0  0  0  0  0  0  0  0
   17.4592   19.7594   23.5577 H   0  0  0  0  0  0  0  0  0  0  0  0
   19.1876   20.1275   23.6477 H   0  0  0  0  0  0  0  0  0  0  0  0
   18.6227   18.4563   23.8795 H   0  0  0  0  0  0  0  0  0  0  0  0
  1  2  1  0  0  0  0
  1  3  2  0  0  0  0
  1  4  1  0  0  0  0
  4  5  1  0  0  0  0
  4  6  1  0  0  0  0
  4  7  1  0  0  0  0
  7  8  1  0  0  0  0
  7  9  1  0  0  0  0
  7 10  1  0  0  0  0
 10 11  1  0  0  0  0
 10 12  1  0  0  0  0
 10 13  1  0  0  0  0
 13 14  1  0  0  0  0
 13 15  1  0  0  0  0
 13 16  1  0  0  0  0
M  END
> <VConfSearch Rank>
80

> <Conf_Id>
45

> <Delta U+W>
2.303

> <U+W>
-54.601

> <U>
11.258

> <W>
-65.860

> <W(PB)>
-67.709

> <W(SA)>
1.849

> <Valence>
8.169

> <Coulomb>
2.735

> <VdW>
0.355

> <VdW6>
-6.245

> <VdW12>
6.600

> <Bond>
0.149

> <Angle>
3.168

> <Pdih>
4.840

> <Idih>
0.011

> <Tether>
0.000

$$$$
VeraChem MOL file


 16 15  0  0  0  0  0  0  0  0999 V2000     
   20.6347   16.6474   20.8849 C   0  0  0  0  0  0  0  0  0  0  0  0
   21.6386   17.0371   20.3208 O   0  5  0  0  0  0  0  0  0  0  0  0
   20.2569   15.4938   20.8427 O   0  0  0  0  0  0  0  0  0  0  0  0
   19.7863   17.6310   21.6928 C   0  0  0  0  0  0  0  0  0  0  0  0
   19.7225   17.2438   22.7166 H   0  0  0  0  0  0  0  0  0  0  0  0
   18.7721   17.6067   21.2770 H   0  0  0  0  0  0  0  0  0  0  0  0
   20.3073   19.0926   21.7173 C   0  0  0  0  0  0  0  0  0  0  0  0
   21.3257   19.1099   22.1298 H   0  0  0  0  0  0  0  0  0  0  0  0
   20.3743   19.4732   20.6887 H   0  0  0  0  0  0  0  0  0  0  0  0
   19.3933   20.0133   22.5529 C   0  0  0  0  0  0  0  0  0  0  0  0
   19.3268   19.6348   23.5823 H   0  0  0  0  0  0  0  0  0  0  0  0
   18.3749   19.9983   22.1403 H   0  0  0  0  0  0  0  0  0  0  0  0
   19.9159   21.4633   22.5734 C   0  0  0  0  0  0  0  0  0  0  0  0
   20.9218   21.5121   23.0106 H   0  0  0  0  0  0  0  0  0  0  0  0
   19.2549   22.1043   23.1713 H   0  0  0  0  0  0  0  0  0  0  0  0
   19.9629   21.8783   21.5580 H   0  0  0  0  0  0  0  0  0  0  0  0
  1  2  1  0  0  0  0
  1  3  2  0  0  0  0
  1  4  1  0  0  0  0
  4  5  1  0  0  0  0
  4  6  1  0  0  0  0
  4  7  1  0  0  0  0
  7  8  1  0  0  0  0
  7  9  1  0  0  0  0
  7 10  1  0  0  0  0
 10 11  1  0  0  0  0
 10 12  1  0  0  0  0
 10 13  1  0  0  0  0
 13 14  1  0  0  0  0
 13 15  1  0  0  0  0
 13 16  1  0  0  0  0
M  END
> <VConfSearch Rank>
81

> <Conf_Id>
0

> <Delta U+W>
0.000

> <U+W>
-56.904

> <U>
7.329

> <W>
-64.233

> <W(PB)>
-66.148

> <W(SA)>
1.915

> <Valence>
6.755

> <Coulomb>
-0.421

> <VdW>
0.995

> <VdW6>
-4.495

> <VdW12>
5.490

> <Bond>
0.106

> <Angle>
2.715

> <Pdih>
3.934

> <Idih>
0.000

> <Tether>
0.000

$$$$
VeraChem MOL file


 16 15  0  0  0  0  0  0  0  0999 V2000     
   17.8895   18.1040   20.5939 C   0  0  0  0  0  0  0  0  0  0  0  0
   17.3070   17.2061   21.1686 O   0  5  0  0  0  0  0  0  0  0  0  0
   17.3433   18.8860   19.8415 O   0  0  0  0  0  0  0  0  0  0  0  0
   19.3842   18.2699   20.8448 C   0  0  0  0  0  0  0  0  0  0  0  0
   19.8425   18.6610   19.9284 H   0  0  0  0  0  0  0  0  0  0  0  0
   19.8125   17.2760   21.0226 H   0  0  0  0  0  0  0  0  0  0  0  0
   19.6947   19.2063   22.0385 C   0  0  0  0  0  0  0  0  0  0  0  0
   19.2490   20.1931   21.8513 H   0  0  0  0  0  0  0  0  0  0  0  0
   19.2190   18.8082   22.9455 H   0  0  0  0  0  0  0  0  0  0  0  0
   21.2126   19.3567   22.2705 C   0  0  0  0  0  0  0  0  0  0  0  0
   21.6887   19.7554   21.3639 H   0  0  0  0  0  0  0  0  0  0  0  0
   21.6586   18.3701   22.4584 H   0  0  0  0  0  0  0  0  0  0  0  0
   21.5142   20.2898   23.4599 C   0  0  0  0  0  0  0  0  0  0  0  0
   21.0757   19.8983   24.3872 H   0  0  0  0  0  0  0  0  0  0  0  0
   21.1060   21.2939   23.2847 H   0  0  0  0  0  0  0  0  0  0  0  0
   22.5972   20.3859   23.6112 H   0  0  0  0  0  0  0  0  0  0  0  0
  1  2  1  0  0  0  0
  1  3  2  0  0  0  0
  1  4  1  0  0  0  0
  4  5  1  0  0  0  0
  4  6  1  0  0  0  0
  4  7  1  0  0  0  0
  7  8  1  0  0  0  0
  7  9  1  0  0  0  0
  7 10  1  0  0  0  0
 10 11  1  0  0  0  0
 10 12  1  0  0  0  0
 10 13  1  0  0  0  0
 13 14  1  0  0  0  0
 13 15  1  0  0  0  0
 13 16  1  0  0  0  0
M  END
> <VConfSearch Rank>
82

> <Conf_Id>
22

> <Delta U+W>
-1.185

> <U+W>
-58.089

> <U>
6.298

> <W>
-64.387

> <W(PB)>
-66.329

> <W(SA)>
1.942

> <Valence>
6.246

> <Coulomb>
-0.408

> <VdW>
0.460

> <VdW6>
-4.207

> <VdW12>
4.667

> <Bond>
0.072

> <Angle>
2.246

> <Pdih>
3.928

> <Idih>
0.001

> <Tether>
0.000

$$$$
VeraChem MOL file


 16 15  0  0  0  0  0  0  0  0999 V2000     
   22.4804   19.3154   22.5723 C   0  0  0  0  0  0  0  0  0  0  0  0
   22.8932   20.0195   23.4722 O   0  5  0  0  0  0  0  0  0  0  0  0
   23.1720   18.9281   21.6516 O   0  0  0  0  0  0  0  0  0  0  0  0
   21.0099   18.9129   22.5890 C   0  0  0  0  0  0  0  0  0  0  0  0
   20.6935   18.8227   23.6351 H   0  0  0  0  0  0  0  0  0  0  0  0
   20.9307   17.9171   22.1383 H   0  0  0  0  0  0  0  0  0  0  0  0
   20.1016   19.9233   21.8414 C   0  0  0  0  0  0  0  0  0  0  0  0
   20.2692   20.9255   22.2596 H   0  0  0  0  0  0  0  0  0  0  0  0
   20.4007   19.9734   20.7853 H   0  0  0  0  0  0  0  0  0  0  0  0
   18.5955   19.5886   21.9422 C   0  0  0  0  0  0  0  0  0  0  0  0
   18.0207   20.4054   21.4843 H   0  0  0  0  0  0  0  0  0  0  0  0
   18.2936   19.5500   22.9980 H   0  0  0  0  0  0  0  0  0  0  0  0
   18.2186   18.2635   21.2458 C   0  0  0  0  0  0  0  0  0  0  0  0
   18.6827   17.4028   21.7435 H   0  0  0  0  0  0  0  0  0  0  0  0
   18.5370   18.2674   20.1952 H   0  0  0  0  0  0  0  0  0  0  0  0
   17.1314   18.1138   21.2688 H   0  0  0  0  0  0  0  0  0  0  0  0
  1  2  1  0  0  0  0
  1  3  2  0  0  0  0
  1  4  1  0  0  0  0
  4  5  1  0  0  0  0
  4  6  1  0  0  0  0
  4  7  1  0  0  0  0
  7  8  1  0  0  0  0
  7  9  1  0  0  0  0
  7 10  1  0  0  0  0
 10 11  1  0  0  0  0
 10 12  1  0  0  0  0
 10 13  1  0  0  0  0
 13 14  1  0  0  0  0
 13 15  1  0  0  0  0
 13 16  1  0  0  0  0
M  END
> <VConfSearch Rank>
83

> <Conf_Id>
36

> <Delta U+W>
-0.427

> <U+W>
-57.331

> <U>
7.263

> <W>
-64.594

> <W(PB)>
-66.513

> <W(SA)>
1.920

> <Valence>
6.734

> <Coulomb>
-0.068

> <VdW>
0.598

> <VdW6>
-4.819

> <VdW12>
5.417

> <Bond>
0.107

> <Angle>
2.469

> <Pdih>
4.157

> <Idih>
0.001

> <Tether>
0.000

$$$$
VeraChem MOL file


 16 15  0  0  0  0  0  0  0  0999 V2000     
   21.5122   18.5073   23.9646 C   0  0  0  0  0  0  0  0  0  0  0  0
   21.0378   17.6020   24.6213 O   0  5  0  0  0  0  0  0  0  0  0  0
   22.3805   19.2512   24.3751 O   0  0  0  0  0  0  0  0  0  0  0  0
   20.9748   18.7353   22.5561 C   0  0  0  0  0  0  0  0  0  0  0  0
   20.6936   17.7597   22.1435 H   0  0  0  0  0  0  0  0  0  0  0  0
   21.7926   19.1261   21.9388 H   0  0  0  0  0  0  0  0  0  0  0  0
   19.7683   19.7091   22.5232 C   0  0  0  0  0  0  0  0  0  0  0  0
   18.9406   19.2870   23.1098 H   0  0  0  0  0  0  0  0  0  0  0  0
   20.0564   20.6452   23.0213 H   0  0  0  0  0  0  0  0  0  0  0  0
   19.2810   20.0370   21.0931 C   0  0  0  0  0  0  0  0  0  0  0  0
   20.1055   20.4700   20.5100 H   0  0  0  0  0  0  0  0  0  0  0  0
   18.5034   20.8110   21.1537 H   0  0  0  0  0  0  0  0  0  0  0  0
   18.7068   18.8119   20.3499 C   0  0  0  0  0  0  0  0  0  0  0  0
   19.4805   18.0562   20.1652 H   0  0  0  0  0  0  0  0  0  0  0  0
   18.2961   19.1114   19.3769 H   0  0  0  0  0  0  0  0  0  0  0  0
   17.8991   18.3446   20.9282 H   0  0  0  0  0  0  0  0  0  0  0  0
  1  2  1  0  0  0  0
  1  3  2  0  0  0  0
  1  4  1  0  0  0  0
  4  5  1  0  0  0  0
  4  6  1  0  0  0  0
  4  7  1  0  0  0  0
  7  8  1  0  0  0  0
  7  9  1  0  0  0  0
  7 10  1  0  0  0  0
 10 11  1  0  0  0  0
 10 12  1  0  0  0  0
 10 13  1  0  0  0  0
 13 14  1  0  0  0  0
 13 15  1  0  0  0  0
 13 16  1  0  0  0  0
M  END
> <VConfSearch Rank>
84

> <Conf_Id>
17

> <Delta U+W>
-0.432

> <U+W>
-57.336

> <U>
7.263

> <W>
-64.599

> <W(PB)>
-66.503

> <W(SA)>
1.904

> <Valence>
6.734

> <Coulomb>
-0.068

> <VdW>
0.598

> <VdW6>
-4.819

> <VdW12>
5.417

> <Bond>
0.107

> <Angle>
2.469

> <Pdih>
4.157

> <Idih>
0.001

> <Tether>
0.000

$$$$
VeraChem MOL file


 16 15  0  0  0  0  0  0  0  0999 V2000     
   18.9942   19.8897   20.1584 C   0  0  0  0  0  0  0  0  0  0  0  0
   19.3994   20.9556   19.7388 O   0  5  0  0  0  0  0  0  0  0  0  0
   18.8247   18.9127   19.4563 O   0  0  0  0  0  0  0  0  0  0  0  0
   18.6579   19.7816   21.6433 C   0  0  0  0  0  0  0  0  0  0  0  0
   17.9996   18.9169   21.7916 H   0  0  0  0  0  0  0  0  0  0  0  0
   18.0777   20.6717   21.9140 H   0  0  0  0  0  0  0  0  0  0  0  0
   19.8994   19.6733   22.5663 C   0  0  0  0  0  0  0  0  0  0  0  0
   20.5629   20.5306   22.3863 H   0  0  0  0  0  0  0  0  0  0  0  0
   19.5724   19.7407   23.6128 H   0  0  0  0  0  0  0  0  0  0  0  0
   20.6790   18.3564   22.3608 C   0  0  0  0  0  0  0  0  0  0  0  0
   21.0290   18.2875   21.3214 H   0  0  0  0  0  0  0  0  0  0  0  0
   20.0111   17.5002   22.5290 H   0  0  0  0  0  0  0  0  0  0  0  0
   21.8873   18.2592   23.3131 C   0  0  0  0  0  0  0  0  0  0  0  0
   22.5875   19.0879   23.1445 H   0  0  0  0  0  0  0  0  0  0  0  0
   22.4305   17.3186   23.1537 H   0  0  0  0  0  0  0  0  0  0  0  0
   21.5646   18.2906   24.3621 H   0  0  0  0  0  0  0  0  0  0  0  0
  1  2  1  0  0  0  0
  1  3  2  0  0  0  0
  1  4  1  0  0  0  0
  4  5  1  0  0  0  0
  4  6  1  0  0  0  0
  4  7  1  0  0  0  0
  7  8  1  0  0  0  0
  7  9  1  0  0  0  0
  7 10  1  0  0  0  0
 10 11  1  0  0  0  0
 10 12  1  0  0  0  0
 10 13  1  0  0  0  0
 13 14  1  0  0  0  0
 13 15  1  0  0  0  0
 13 16  1  0  0  0  0
M  END
> <VConfSearch Rank>
85

> <Conf_Id>
19

> <Delta U+W>
0.048

> <U+W>
-56.856

> <U>
8.276

> <W>
-65.132

> <W(PB)>
-67.031

> <W(SA)>
1.899

> <Valence>
6.513

> <Coulomb>
1.428

> <VdW>
0.335

> <VdW6>
-5.021

> <VdW12>
5.356

> <Bond>
0.092

> <Angle>
2.417

> <Pdih>
4.003

> <Idih>
0.001

> <Tether>
0.000

$$$$
VeraChem MOL file


 16 15  0  0  0  0  0  0  0  0999 V2000     
   17.8751   18.6744   20.9025 C   0  0  0  0  0  0  0  0  0  0  0  0
   17.5485   19.5470   20.1226 O   0  5  0  0  0  0  0  0  0  0  0  0
   17.1125   18.1691   21.7021 O   0  0  0  0  0  0  0  0  0  0  0  0
   19.3153   18.1710   20.8574 C   0  0  0  0  0  0  0  0  0  0  0  0
   19.5754   18.0143   19.8039 H   0  0  0  0  0  0  0  0  0  0  0  0
   19.3589   17.1891   21.3443 H   0  0  0  0  0  0  0  0  0  0  0  0
   20.3425   19.1353   21.5055 C   0  0  0  0  0  0  0  0  0  0  0  0
   21.3564   18.7631   21.3052 H   0  0  0  0  0  0  0  0  0  0  0  0
   20.2676   20.1220   21.0275 H   0  0  0  0  0  0  0  0  0  0  0  0
   20.1445   19.2766   23.0303 C   0  0  0  0  0  0  0  0  0  0  0  0
   20.2073   18.2878   23.5054 H   0  0  0  0  0  0  0  0  0  0  0  0
   19.1397   19.6680   23.2421 H   0  0  0  0  0  0  0  0  0  0  0  0
   21.1983   20.2131   23.6538 C   0  0  0  0  0  0  0  0  0  0  0  0
   22.2132   19.8287   23.4878 H   0  0  0  0  0  0  0  0  0  0  0  0
   21.0429   20.3032   24.7368 H   0  0  0  0  0  0  0  0  0  0  0  0
   21.1366   21.2188   23.2177 H   0  0  0  0  0  0  0  0  0  0  0  0
  1  2  1  0  0  0  0
  1  3  2  0  0  0  0
  1  4  1  0  0  0  0
  4  5  1  0  0  0  0
  4  6  1  0  0  0  0
  4  7  1  0  0  0  0
  7  8  1  0  0  0  0
  7  9  1  0  0  0  0
  7 10  1  0  0  0  0
 10 11  1  0  0  0  0
 10 12  1  0  0  0  0
 10 13  1  0  0  0  0
 13 14  1  0  0  0  0
 13 15  1  0  0  0  0
 13 16  1  0  0  0  0
M  END
> <VConfSearch Rank>
86

> <Conf_Id>
20

> <Delta U+W>
-0.010

> <U+W>
-56.914

> <U>
8.277

> <W>
-65.191

> <W(PB)>
-67.081

> <W(SA)>
1.890

> <Valence>
6.513

> <Coulomb>
1.429

> <VdW>
0.335

> <VdW6>
-5.021

> <VdW12>
5.356

> <Bond>
0.092

> <Angle>
2.417

> <Pdih>
4.002

> <Idih>
0.001

> <Tether>
0.000

$$$$
VeraChem MOL file


 16 15  0  0  0  0  0  0  0  0999 V2000     
   19.3855   17.0668   22.1349 C   0  0  0  0  0  0  0  0  0  0  0  0
   20.1013   16.2128   22.6198 O   0  5  0  0  0  0  0  0  0  0  0  0
   18.8838   16.9738   21.0322 O   0  0  0  0  0  0  0  0  0  0  0  0
   19.0744   18.3051   22.9713 C   0  0  0  0  0  0  0  0  0  0  0  0
   18.7400   17.9573   23.9557 H   0  0  0  0  0  0  0  0  0  0  0  0
   18.2229   18.8286   22.5217 H   0  0  0  0  0  0  0  0  0  0  0  0
   20.2781   19.2703   23.1504 C   0  0  0  0  0  0  0  0  0  0  0  0
   19.9884   20.0856   23.8270 H   0  0  0  0  0  0  0  0  0  0  0  0
   21.0927   18.7292   23.6514 H   0  0  0  0  0  0  0  0  0  0  0  0
   20.8155   19.8716   21.8299 C   0  0  0  0  0  0  0  0  0  0  0  0
   21.1416   19.0662   21.1572 H   0  0  0  0  0  0  0  0  0  0  0  0
   21.7101   20.4691   22.0531 H   0  0  0  0  0  0  0  0  0  0  0  0
   19.7872   20.7662   21.1056 C   0  0  0  0  0  0  0  0  0  0  0  0
   18.9279   20.1807   20.7543 H   0  0  0  0  0  0  0  0  0  0  0  0
   20.2440   21.2432   20.2289 H   0  0  0  0  0  0  0  0  0  0  0  0
   19.4182   21.5592   21.7689 H   0  0  0  0  0  0  0  0  0  0  0  0
  1  2  1  0  0  0  0
  1  3  2  0  0  0  0
  1  4  1  0  0  0  0
  4  5  1  0  0  0  0
  4  6  1  0  0  0  0
  4  7  1  0  0  0  0
  7  8  1  0  0  0  0
  7  9  1  0  0  0  0
  7 10  1  0  0  0  0
 10 11  1  0  0  0  0
 10 12  1  0  0  0  0
 10 13  1  0  0  0  0
 13 14  1  0  0  0  0
 13 15  1  0  0  0  0
 13 16  1  0  0  0  0
M  END
> <VConfSearch Rank>
87

> <Conf_Id>
37

> <Delta U+W>
1.063

> <U+W>
-55.841

> <U>
9.719

> <W>
-65.560

> <W(PB)>
-67.414

> <W(SA)>
1.854

> <Valence>
7.002

> <Coulomb>
2.402

> <VdW>
0.314

> <VdW6>
-5.861

> <VdW12>
6.175

> <Bond>
0.134

> <Angle>
2.733

> <Pdih>
4.133

> <Idih>
0.002

> <Tether>
0.000

$$$$
VeraChem MOL file


 16 15  0  0  0  0  0  0  0  0999 V2000     
   21.4030   20.8571   21.9425 C   0  0  0  0  0  0  0  0  0  0  0  0
   21.6908   21.5986   22.8612 O   0  5  0  0  0  0  0  0  0  0  0  0
   22.2153   20.4299   21.1462 O   0  0  0  0  0  0  0  0  0  0  0  0
   19.9373   20.4715   21.7610 C   0  0  0  0  0  0  0  0  0  0  0  0
   19.8077   20.0418   20.7611 H   0  0  0  0  0  0  0  0  0  0  0  0
   19.3523   21.3985   21.7784 H   0  0  0  0  0  0  0  0  0  0  0  0
   19.3953   19.5029   22.8476 C   0  0  0  0  0  0  0  0  0  0  0  0
   19.4907   19.9858   23.8299 H   0  0  0  0  0  0  0  0  0  0  0  0
   18.3206   19.3448   22.6854 H   0  0  0  0  0  0  0  0  0  0  0  0
   20.1102   18.1314   22.8934 C   0  0  0  0  0  0  0  0  0  0  0  0
   19.7143   17.5558   23.7414 H   0  0  0  0  0  0  0  0  0  0  0  0
   21.1819   18.2742   23.0901 H   0  0  0  0  0  0  0  0  0  0  0  0
   19.9267   17.3060   21.6022 C   0  0  0  0  0  0  0  0  0  0  0  0
   18.8628   17.1789   21.3634 H   0  0  0  0  0  0  0  0  0  0  0  0
   20.3692   16.3082   21.7187 H   0  0  0  0  0  0  0  0  0  0  0  0
   20.4182   17.7888   20.7479 H   0  0  0  0  0  0  0  0  0  0  0  0
  1  2  1  0  0  0  0
  1  3  2  0  0  0  0
  1  4  1  0  0  0  0
  4  5  1  0  0  0  0
  4  6  1  0  0  0  0
  4  7  1  0  0  0  0
  7  8  1  0  0  0  0
  7  9  1  0  0  0  0
  7 10  1  0  0  0  0
 10 11  1  0  0  0  0
 10 12  1  0  0  0  0
 10 13  1  0  0  0  0
 13 14  1  0  0  0  0
 13 15  1  0  0  0  0
 13 16  1  0  0  0  0
M  END
> <VConfSearch Rank>
88

> <Conf_Id>
39

> <Delta U+W>
1.129

> <U+W>
-55.775

> <U>
9.718

> <W>
-65.493

> <W(PB)>
-67.361

> <W(SA)>
1.869

> <Valence>
7.002

> <Coulomb>
2.402

> <VdW>
0.314

> <VdW6>
-5.861

> <VdW12>
6.175

> <Bond>
0.134

> <Angle>
2.734

> <Pdih>
4.133

> <Idih>
0.002

> <Tether>
0.000

$$$$
VeraChem MOL file


 16 15  0  0  0  0  0  0  0  0999 V2000     
   20.8229   19.0386   24.0374 C   0  0  0  0  0  0  0  0  0  0  0  0
   21.7414   19.8334   24.0724 O   0  5  0  0  0  0  0  0  0  0  0  0
   20.9259   17.8815   24.3947 O   0  0  0  0  0  0  0  0  0  0  0  0
   19.4473   19.5449   23.6071 C   0  0  0  0  0  0  0  0  0  0  0  0
   19.5124   20.6193   23.3964 H   0  0  0  0  0  0  0  0  0  0  0  0
   18.7916   19.4358   24.4788 H   0  0  0  0  0  0  0  0  0  0  0  0
   18.8118   18.7979   22.4008 C   0  0  0  0  0  0  0  0  0  0  0  0
   18.9343   17.7130   22.5255 H   0  0  0  0  0  0  0  0  0  0  0  0
   17.7295   18.9842   22.4188 H   0  0  0  0  0  0  0  0  0  0  0  0
   19.3432   19.2369   21.0150 C   0  0  0  0  0  0  0  0  0  0  0  0
   19.2206   20.3222   20.8952 H   0  0  0  0  0  0  0  0  0  0  0  0
   18.7205   18.7688   20.2401 H   0  0  0  0  0  0  0  0  0  0  0  0
   20.8145   18.8494   20.7597 C   0  0  0  0  0  0  0  0  0  0  0  0
   21.4953   19.4199   21.4032 H   0  0  0  0  0  0  0  0  0  0  0  0
   21.0916   19.0591   19.7186 H   0  0  0  0  0  0  0  0  0  0  0  0
   20.9785   17.7799   20.9459 H   0  0  0  0  0  0  0  0  0  0  0  0
  1  2  1  0  0  0  0
  1  3  2  0  0  0  0
  1  4  1  0  0  0  0
  4  5  1  0  0  0  0
  4  6  1  0  0  0  0
  4  7  1  0  0  0  0
  7  8  1  0  0  0  0
  7  9  1  0  0  0  0
  7 10  1  0  0  0  0
 10 11  1  0  0  0  0
 10 12  1  0  0  0  0
 10 13  1  0  0  0  0
 13 14  1  0  0  0  0
 13 15  1  0  0  0  0
 13 16  1  0  0  0  0
M  END
> <VConfSearch Rank>
89

> <Conf_Id>
47

> <Delta U+W>
2.301

> <U+W>
-54.603

> <U>
11.258

> <W>
-65.861

> <W(PB)>
-67.702

> <W(SA)>
1.841

> <Valence>
8.169

> <Coulomb>
2.735

> <VdW>
0.355

> <VdW6>
-6.245

> <VdW12>
6.600

> <Bond>
0.149

> <Angle>
3.168

> <Pdih>
4.840

> <Idih>
0.011

> <Tether>
0.000

$$$$
VeraChem MOL file


 16 15  0  0  0  0  0  0  0  0999 V2000     
   18.5023   17.9550   21.3974 C   0  0  0  0  0  0  0  0  0  0  0  0
   17.4964   18.6132   21.2185 O   0  5  0  0  0  0  0  0  0  0  0  0
   18.4949   16.8413   21.8836 O   0  0  0  0  0  0  0  0  0  0  0  0
   19.8342   18.5175   20.9042 C   0  0  0  0  0  0  0  0  0  0  0  0
   19.7366   18.6354   19.8187 H   0  0  0  0  0  0  0  0  0  0  0  0
   20.6201   17.7703   21.0688 H   0  0  0  0  0  0  0  0  0  0  0  0
   20.2501   19.8810   21.5245 C   0  0  0  0  0  0  0  0  0  0  0  0
   20.9906   20.3446   20.8587 H   0  0  0  0  0  0  0  0  0  0  0  0
   19.3888   20.5632   21.5411 H   0  0  0  0  0  0  0  0  0  0  0  0
   20.8791   19.7850   22.9354 C   0  0  0  0  0  0  0  0  0  0  0  0
   21.2776   20.7726   23.2060 H   0  0  0  0  0  0  0  0  0  0  0  0
   21.7386   19.1008   22.9150 H   0  0  0  0  0  0  0  0  0  0  0  0
   19.8881   19.3409   24.0313 C   0  0  0  0  0  0  0  0  0  0  0  0
   20.3497   19.4258   25.0236 H   0  0  0  0  0  0  0  0  0  0  0  0
   19.5861   18.2952   23.8967 H   0  0  0  0  0  0  0  0  0  0  0  0
   18.9850   19.9651   24.0225 H   0  0  0  0  0  0  0  0  0  0  0  0
  1  2  1  0  0  0  0
  1  3  2  0  0  0  0
  1  4  1  0  0  0  0
  4  5  1  0  0  0  0
  4  6  1  0  0  0  0
  4  7  1  0  0  0  0
  7  8  1  0  0  0  0
  7  9  1  0  0  0  0
  7 10  1  0  0  0  0
 10 11  1  0  0  0  0
 10 12  1  0  0  0  0
 10 13  1  0  0  0  0
 13 14  1  0  0  0  0
 13 15  1  0  0  0  0
 13 16  1  0  0  0  0
M  END
> <VConfSearch Rank>
90

> <Conf_Id>
45

> <Delta U+W>
2.303

> <U+W>
-54.601

> <U>
11.258

> <W>
-65.860

> <W(PB)>
-67.709

> <W(SA)>
1.849

> <Valence>
8.169

> <Coulomb>
2.735

> <VdW>
0.355

> <VdW6>
-6.245

> <VdW12>
6.600

> <Bond>
0.149

> <Angle>
3.168

> <Pdih>
4.840

> <Idih>
0.011

> <Tether>
0.000

$$$$
VeraChem MOL file


 16 15  0  0  0  0  0  0  0  0999 V2000     
   21.7804   17.5579   23.3407 C   0  0  0  0  0  0  0  0  0  0  0  0
   22.7606   17.9823   22.7602 O   0  5  0  0  0  0  0  0  0  0  0  0
   21.8414   16.7197   24.2176 O   0  0  0  0  0  0  0  0  0  0  0  0
   20.3919   18.0836   22.9725 C   0  0  0  0  0  0  0  0  0  0  0  0
   19.9454   18.4958   23.8851 H   0  0  0  0  0  0  0  0  0  0  0  0
   19.7825   17.2206   22.6789 H   0  0  0  0  0  0  0  0  0  0  0  0
   20.3635   19.1518   21.8471 C   0  0  0  0  0  0  0  0  0  0  0  0
   20.9800   20.0113   22.1446 H   0  0  0  0  0  0  0  0  0  0  0  0
   20.8169   18.7349   20.9371 H   0  0  0  0  0  0  0  0  0  0  0  0
   18.9268   19.6246   21.5413 C   0  0  0  0  0  0  0  0  0  0  0  0
   18.4728   20.0434   22.4502 H   0  0  0  0  0  0  0  0  0  0  0  0
   18.3096   18.7661   21.2420 H   0  0  0  0  0  0  0  0  0  0  0  0
   18.9051   20.6853   20.4230 C   0  0  0  0  0  0  0  0  0  0  0  0
   19.4898   21.5695   20.7090 H   0  0  0  0  0  0  0  0  0  0  0  0
   17.8768   21.0105   20.2181 H   0  0  0  0  0  0  0  0  0  0  0  0
   19.3254   20.2829   19.4919 H   0  0  0  0  0  0  0  0  0  0  0  0
  1  2  1  0  0  0  0
  1  3  2  0  0  0  0
  1  4  1  0  0  0  0
  4  5  1  0  0  0  0
  4  6  1  0  0  0  0
  4  7  1  0  0  0  0
  7  8  1  0  0  0  0
  7  9  1  0  0  0  0
  7 10  1  0  0  0  0
 10 11  1  0  0  0  0
 10 12  1  0  0  0  0
 10 13  1  0  0  0  0
 13 14  1  0  0  0  0
 13 15  1  0  0  0  0
 13 16  1  0  0  0  0
M  END
> <VConfSearch Rank>
91

> <Conf_Id>
0

> <Delta U+W>
0.000

> <U+W>
-56.904

> <U>
7.329

> <W>
-64.233

> <W(PB)>
-66.148

> <W(SA)>
1.915

> <Valence>
6.755

> <Coulomb>
-0.421

> <VdW>
0.995

> <VdW6>
-4.495

> <VdW12>
5.490

> <Bond>
0.106

> <Angle>
2.715

> <Pdih>
3.934

> <Idih>
0.000

> <Tether>
0.000

$$$$
VeraChem MOL file


 16 15  0  0  0  0  0  0  0  0999 V2000     
   17.7371   18.1338   23.0370 C   0  0  0  0  0  0  0  0  0  0  0  0
   17.6861   18.1887   24.2496 O   0  5  0  0  0  0  0  0  0  0  0  0
   16.7596   18.2062   22.3194 O   0  0  0  0  0  0  0  0  0  0  0  0
   19.1045   17.9842   22.3794 C   0  0  0  0  0  0  0  0  0  0  0  0
   18.9774   17.4061   21.4561 H   0  0  0  0  0  0  0  0  0  0  0  0
   19.7413   17.3918   23.0475 H   0  0  0  0  0  0  0  0  0  0  0  0
   19.7762   19.3446   22.0692 C   0  0  0  0  0  0  0  0  0  0  0  0
   19.1213   19.9308   21.4097 H   0  0  0  0  0  0  0  0  0  0  0  0
   19.8851   19.9166   23.0011 H   0  0  0  0  0  0  0  0  0  0  0  0
   21.1571   19.1649   21.4048 C   0  0  0  0  0  0  0  0  0  0  0  0
   21.0485   18.5935   20.4724 H   0  0  0  0  0  0  0  0  0  0  0  0
   21.8125   18.5792   22.0643 H   0  0  0  0  0  0  0  0  0  0  0  0
   21.8196   20.5227   21.0990 C   0  0  0  0  0  0  0  0  0  0  0  0
   21.9690   21.1029   22.0191 H   0  0  0  0  0  0  0  0  0  0  0  0
   21.1993   21.1173   20.4155 H   0  0  0  0  0  0  0  0  0  0  0  0
   22.8000   20.3772   20.6271 H   0  0  0  0  0  0  0  0  0  0  0  0
  1  2  1  0  0  0  0
  1  3  2  0  0  0  0
  1  4  1  0  0  0  0
  4  5  1  0  0  0  0
  4  6  1  0  0  0  0
  4  7  1  0  0  0  0
  7  8  1  0  0  0  0
  7  9  1  0  0  0  0
  7 10  1  0  0  0  0
 10 11  1  0  0  0  0
 10 12  1  0  0  0  0
 10 13  1  0  0  0  0
 13 14  1  0  0  0  0
 13 15  1  0  0  0  0
 13 16  1  0  0  0  0
M  END
> <VConfSearch Rank>
92

> <Conf_Id>
22

> <Delta U+W>
-1.185

> <U+W>
-58.089

> <U>
6.298

> <W>
-64.387

> <W(PB)>
-66.329

> <W(SA)>
1.942

> <Valence>
6.246

> <Coulomb>
-0.408

> <VdW>
0.460

> <VdW6>
-4.207

> <VdW12>
4.667

> <Bond>
0.072

> <Angle>
2.246

> <Pdih>
3.928

> <Idih>
0.001

> <Tether>
0.000

$$$$
VeraChem MOL file


 16 15  0  0  0  0  0  0  0  0999 V2000     
   18.8729   21.1643   23.1859 C   0  0  0  0  0  0  0  0  0  0  0  0
   17.8644   21.6992   22.7702 O   0  5  0  0  0  0  0  0  0  0  0  0
   19.6571   21.7041   23.9406 O   0  0  0  0  0  0  0  0  0  0  0  0
   19.1809   19.7459   22.7190 C   0  0  0  0  0  0  0  0  0  0  0  0
   18.2289   19.2252   22.5609 H   0  0  0  0  0  0  0  0  0  0  0  0
   19.7016   19.2311   23.5345 H   0  0  0  0  0  0  0  0  0  0  0  0
   20.0306   19.7112   21.4222 C   0  0  0  0  0  0  0  0  0  0  0  0
   19.5233   20.3080   20.6515 H   0  0  0  0  0  0  0  0  0  0  0  0
   20.9985   20.1980   21.6049 H   0  0  0  0  0  0  0  0  0  0  0  0
   20.2593   18.2836   20.8743 C   0  0  0  0  0  0  0  0  0  0  0  0
   20.7707   18.3552   19.9045 H   0  0  0  0  0  0  0  0  0  0  0  0
   19.2914   17.8008   20.6804 H   0  0  0  0  0  0  0  0  0  0  0  0
   21.1016   17.3977   21.8169 C   0  0  0  0  0  0  0  0  0  0  0  0
   20.5766   17.2040   22.7607 H   0  0  0  0  0  0  0  0  0  0  0  0
   22.0633   17.8739   22.0485 H   0  0  0  0  0  0  0  0  0  0  0  0
   21.3095   16.4274   21.3474 H   0  0  0  0  0  0  0  0  0  0  0  0
  1  2  1  0  0  0  0
  1  3  2  0  0  0  0
  1  4  1  0  0  0  0
  4  5  1  0  0  0  0
  4  6  1  0  0  0  0
  4  7  1  0  0  0  0
  7  8  1  0  0  0  0
  7  9  1  0  0  0  0
  7 10  1  0  0  0  0
 10 11  1  0  0  0  0
 10 12  1  0  0  0  0
 10 13  1  0  0  0  0
 13 14  1  0  0  0  0
 13 15  1  0  0  0  0
 13 16  1  0  0  0  0
M  END
> <VConfSearch Rank>
93

> <Conf_Id>
36

> <Delta U+W>
-0.427

> <U+W>
-57.331

> <U>
7.263

> <W>
-64.594

> <W(PB)>
-66.513

> <W(SA)>
1.920

> <Valence>
6.734

> <Coulomb>
-0.068

> <VdW>
0.598

> <VdW6>
-4.819

> <VdW12>
5.417

> <Bond>
0.107

> <Angle>
2.469

> <Pdih>
4.157

> <Idih>
0.001

> <Tether>
0.000

$$$$
VeraChem MOL file


 16 15  0  0  0  0  0  0  0  0999 V2000     
   18.8820   18.4400   24.2335 C   0  0  0  0  0  0  0  0  0  0  0  0
   19.4749   18.9235   25.1772 O   0  5  0  0  0  0  0  0  0  0  0  0
   18.1387   17.4835   24.3260 O   0  0  0  0  0  0  0  0  0  0  0  0
   19.0978   19.0541   22.8547 C   0  0  0  0  0  0  0  0  0  0  0  0
   19.2643   20.1289   22.9896 H   0  0  0  0  0  0  0  0  0  0  0  0
   18.1702   18.9380   22.2813 H   0  0  0  0  0  0  0  0  0  0  0  0
   20.2831   18.4109   22.0890 C   0  0  0  0  0  0  0  0  0  0  0  0
   21.2131   18.5706   22.6521 H   0  0  0  0  0  0  0  0  0  0  0  0
   20.1282   17.3238   22.0470 H   0  0  0  0  0  0  0  0  0  0  0  0
   20.4471   18.9453   20.6475 C   0  0  0  0  0  0  0  0  0  0  0  0
   19.5212   18.7750   20.0808 H   0  0  0  0  0  0  0  0  0  0  0  0
   21.2315   18.3647   20.1427 H   0  0  0  0  0  0  0  0  0  0  0  0
   20.8218   20.4418   20.5921 C   0  0  0  0  0  0  0  0  0  0  0  0
   20.0139   21.0721   20.9842 H   0  0  0  0  0  0  0  0  0  0  0  0
   21.0118   20.7515   19.5563 H   0  0  0  0  0  0  0  0  0  0  0  0
   21.7296   20.6413   21.1764 H   0  0  0  0  0  0  0  0  0  0  0  0
  1  2  1  0  0  0  0
  1  3  2  0  0  0  0
  1  4  1  0  0  0  0
  4  5  1  0  0  0  0
  4  6  1  0  0  0  0
  4  7  1  0  0  0  0
  7  8  1  0  0  0  0
  7  9  1  0  0  0  0
  7 10  1  0  0  0  0
 10 11  1  0  0  0  0
 10 12  1  0  0  0  0
 10 13  1  0  0  0  0
 13 14  1  0  0  0  0
 13 15  1  0  0  0  0
 13 16  1  0  0  0  0
M  END
> <VConfSearch Rank>
94

> <Conf_Id>
17

> <Delta U+W>
-0.432

> <U+W>
-57.336

> <U>
7.263

> <W>
-64.599

> <W(PB)>
-66.503

> <W(SA)>
1.904

> <Valence>
6.734

> <Coulomb>
-0.068

> <VdW>
0.598

> <VdW6>
-4.819

> <VdW12>
5.417

> <Bond>
0.107

> <Angle>
2.469

> <Pdih>
4.157

> <Idih>
0.001

> <Tether>
0.000

$$$$
VeraChem MOL file


 16 15  0  0  0  0  0  0  0  0999 V2000     
   20.0153   17.5337   23.8300 C   0  0  0  0  0  0  0  0  0  0  0  0
   20.2004   16.3931   23.4544 O   0  5  0  0  0  0  0  0  0  0  0  0
   20.5778   18.0242   24.7888 O   0  0  0  0  0  0  0  0  0  0  0  0
   19.0034   18.3866   23.0696 C   0  0  0  0  0  0  0  0  0  0  0  0
   18.6972   19.2223   23.7107 H   0  0  0  0  0  0  0  0  0  0  0  0
   18.1118   17.7698   22.9055 H   0  0  0  0  0  0  0  0  0  0  0  0
   19.5216   18.9188   21.7083 C   0  0  0  0  0  0  0  0  0  0  0  0
   19.8511   18.0734   21.0883 H   0  0  0  0  0  0  0  0  0  0  0  0
   18.6906   19.3982   21.1733 H   0  0  0  0  0  0  0  0  0  0  0  0
   20.6760   19.9319   21.8672 C   0  0  0  0  0  0  0  0  0  0  0  0
   21.5218   19.4568   22.3835 H   0  0  0  0  0  0  0  0  0  0  0  0
   20.3489   20.7705   22.4976 H   0  0  0  0  0  0  0  0  0  0  0  0
   21.1490   20.4702   20.5024 C   0  0  0  0  0  0  0  0  0  0  0  0
   21.5107   19.6543   19.8628 H   0  0  0  0  0  0  0  0  0  0  0  0
   21.9696   21.1876   20.6331 H   0  0  0  0  0  0  0  0  0  0  0  0
   20.3320   20.9817   19.9769 H   0  0  0  0  0  0  0  0  0  0  0  0
  1  2  1  0  0  0  0
  1  3  2  0  0  0  0
  1  4  1  0  0  0  0
  4  5  1  0  0  0  0
  4  6  1  0  0  0  0
  4  7  1  0  0  0  0
  7  8  1  0  0  0  0
  7  9  1  0  0  0  0
  7 10  1  0  0  0  0
 10 11  1  0  0  0  0
 10 12  1  0  0  0  0
 10 13  1  0  0  0  0
 13 14  1  0  0  0  0
 13 15  1  0  0  0  0
 13 16  1  0  0  0  0
M  END
> <VConfSearch Rank>
95

> <Conf_Id>
19

> <Delta U+W>
0.048

> <U+W>
-56.856

> <U>
8.276

> <W>
-65.132

> <W(PB)>
-67.031

> <W(SA)>
1.899

> <Valence>
6.513

> <Coulomb>
1.428

> <VdW>
0.335

> <VdW6>
-5.021

> <VdW12>
5.356

> <Bond>
0.092

> <Angle>
2.417

> <Pdih>
4.003

> <Idih>
0.001

> <Tether>
0.000

$$$$
VeraChem MOL file


 16 15  0  0  0  0  0  0  0  0999 V2000     
   19.0502   19.0151   24.3088 C   0  0  0  0  0  0  0  0  0  0  0  0
   19.8580   19.3628   25.1472 O   0  5  0  0  0  0  0  0  0  0  0  0
   18.4177   17.9799   24.3750 O   0  0  0  0  0  0  0  0  0  0  0  0
   18.8012   19.9413   23.1215 C   0  0  0  0  0  0  0  0  0  0  0  0
   18.6967   20.9592   23.5155 H   0  0  0  0  0  0  0  0  0  0  0  0
   17.8388   19.6771   22.6665 H   0  0  0  0  0  0  0  0  0  0  0  0
   19.9239   19.9137   22.0519 C   0  0  0  0  0  0  0  0  0  0  0  0
   19.7319   20.7036   21.3132 H   0  0  0  0  0  0  0  0  0  0  0  0
   20.8856   20.1521   22.5272 H   0  0  0  0  0  0  0  0  0  0  0  0
   20.0213   18.5532   21.3282 C   0  0  0  0  0  0  0  0  0  0  0  0
   19.0554   18.3104   20.8639 H   0  0  0  0  0  0  0  0  0  0  0  0
   20.2338   17.7573   22.0555 H   0  0  0  0  0  0  0  0  0  0  0  0
   21.1213   18.5638   20.2482 C   0  0  0  0  0  0  0  0  0  0  0  0
   20.9173   19.3280   19.4868 H   0  0  0  0  0  0  0  0  0  0  0  0
   21.1779   17.5901   19.7445 H   0  0  0  0  0  0  0  0  0  0  0  0
   22.1038   18.7741   20.6909 H   0  0  0  0  0  0  0  0  0  0  0  0
  1  2  1  0  0  0  0
  1  3  2  0  0  0  0
  1  4  1  0  0  0  0
  4  5  1  0  0  0  0
  4  6  1  0  0  0  0
  4  7  1  0  0  0  0
  7  8  1  0  0  0  0
  7  9  1  0  0  0  0
  7 10  1  0  0  0  0
 10 11  1  0  0  0  0
 10 12  1  0  0  0  0
 10 13  1  0  0  0  0
 13 14  1  0  0  0  0
 13 15  1  0  0  0  0
 13 16  1  0  0  0  0
M  END
> <VConfSearch Rank>
96

> <Conf_Id>
20

> <Delta U+W>
-0.010

> <U+W>
-56.914

> <U>
8.277

> <W>
-65.191

> <W(PB)>
-67.081

> <W(SA)>
1.890

> <Valence>
6.513

> <Coulomb>
1.429

> <VdW>
0.335

> <VdW6>
-5.021

> <VdW12>
5.356

> <Bond>
0.092

> <Angle>
2.417

> <Pdih>
4.002

> <Idih>
0.001

> <Tether>
0.000

$$$$
VeraChem MOL file


 16 15  0  0  0  0  0  0  0  0999 V2000     
   19.6351   21.0523   23.1684 C   0  0  0  0  0  0  0  0  0  0  0  0
   20.1079   21.2887   24.2626 O   0  5  0  0  0  0  0  0  0  0  0  0
   18.4941   21.3304   22.8569 O   0  0  0  0  0  0  0  0  0  0  0  0
   20.5351   20.4024   22.1207 C   0  0  0  0  0  0  0  0  0  0  0  0
   21.4633   20.9845   22.0828 H   0  0  0  0  0  0  0  0  0  0  0  0
   20.0629   20.5074   21.1372 H   0  0  0  0  0  0  0  0  0  0  0  0
   20.8747   18.9144   22.4089 C   0  0  0  0  0  0  0  0  0  0  0  0
   21.5861   18.5545   21.6534 H   0  0  0  0  0  0  0  0  0  0  0  0
   21.3939   18.8518   23.3753 H   0  0  0  0  0  0  0  0  0  0  0  0
   19.6462   17.9743   22.4399 C   0  0  0  0  0  0  0  0  0  0  0  0
   18.9421   18.3036   23.2166 H   0  0  0  0  0  0  0  0  0  0  0  0
   19.9793   16.9686   22.7311 H   0  0  0  0  0  0  0  0  0  0  0  0
   18.9150   17.8834   21.0836 C   0  0  0  0  0  0  0  0  0  0  0  0
   18.4580   18.8437   20.8127 H   0  0  0  0  0  0  0  0  0  0  0  0
   18.1126   17.1358   21.1298 H   0  0  0  0  0  0  0  0  0  0  0  0
   19.6056   17.5900   20.2824 H   0  0  0  0  0  0  0  0  0  0  0  0
  1  2  1  0  0  0  0
  1  3  2  0  0  0  0
  1  4  1  0  0  0  0
  4  5  1  0  0  0  0
  4  6  1  0  0  0  0
  4  7  1  0  0  0  0
  7  8  1  0  0  0  0
  7  9  1  0  0  0  0
  7 10  1  0  0  0  0
 10 11  1  0  0  0  0
 10 12  1  0  0  0  0
 10 13  1  0  0  0  0
 13 14  1  0  0  0  0
 13 15  1  0  0  0  0
 13 16  1  0  0  0  0
M  END
> <VConfSearch Rank>
97

> <Conf_Id>
37

> <Delta U+W>
1.063

> <U+W>
-55.841

> <U>
9.719

> <W>
-65.560

> <W(PB)>
-67.414

> <W(SA)>
1.854

> <Valence>
7.002

> <Coulomb>
2.402

> <VdW>
0.314

> <VdW6>
-5.861

> <VdW12>
6.175

> <Bond>
0.134

> <Angle>
2.733

> <Pdih>
4.133

> <Idih>
0.002

> <Tether>
0.000

$$$$
VeraChem MOL file


 16 15  0  0  0  0  0  0  0  0999 V2000     
   22.1239   18.5867   21.5654 C   0  0  0  0  0  0  0  0  0  0  0  0
   23.1196   19.1765   21.9362 O   0  5  0  0  0  0  0  0  0  0  0  0
   22.0264   17.3756   21.5572 O   0  0  0  0  0  0  0  0  0  0  0  0
   20.9480   19.4125   21.0507 C   0  0  0  0  0  0  0  0  0  0  0  0
   20.2612   18.7494   20.5122 H   0  0  0  0  0  0  0  0  0  0  0  0
   21.3443   20.1164   20.3095 H   0  0  0  0  0  0  0  0  0  0  0  0
   20.1935   20.2020   22.1553 C   0  0  0  0  0  0  0  0  0  0  0  0
   20.8975   20.8943   22.6374 H   0  0  0  0  0  0  0  0  0  0  0  0
   19.4200   20.8259   21.6874 H   0  0  0  0  0  0  0  0  0  0  0  0
   19.5424   19.3139   23.2422 C   0  0  0  0  0  0  0  0  0  0  0  0
   19.1090   19.9635   24.0151 H   0  0  0  0  0  0  0  0  0  0  0  0
   20.3119   18.7095   23.7423 H   0  0  0  0  0  0  0  0  0  0  0  0
   18.4360   18.3896   22.6908 C   0  0  0  0  0  0  0  0  0  0  0  0
   17.6714   18.9666   22.1546 H   0  0  0  0  0  0  0  0  0  0  0  0
   17.9419   17.8517   23.5101 H   0  0  0  0  0  0  0  0  0  0  0  0
   18.8494   17.6400   22.0039 H   0  0  0  0  0  0  0  0  0  0  0  0
  1  2  1  0  0  0  0
  1  3  2  0  0  0  0
  1  4  1  0  0  0  0
  4  5  1  0  0  0  0
  4  6  1  0  0  0  0
  4  7  1  0  0  0  0
  7  8  1  0  0  0  0
  7  9  1  0  0  0  0
  7 10  1  0  0  0  0
 10 11  1  0  0  0  0
 10 12  1  0  0  0  0
 10 13  1  0  0  0  0
 13 14  1  0  0  0  0
 13 15  1  0  0  0  0
 13 16  1  0  0  0  0
M  END
> <VConfSearch Rank>
98

> <Conf_Id>
39

> <Delta U+W>
1.129

> <U+W>
-55.775

> <U>
9.718

> <W>
-65.493

> <W(PB)>
-67.361

> <W(SA)>
1.869

> <Valence>
7.002

> <Coulomb>
2.402

> <VdW>
0.314

> <VdW6>
-5.861

> <VdW12>
6.175

> <Bond>
0.134

> <Angle>
2.734

> <Pdih>
4.133

> <Idih>
0.002

> <Tether>
0.000

$$$$
VeraChem MOL file


 16 15  0  0  0  0  0  0  0  0999 V2000     
   20.5852   17.6998   21.0026 C   0  0  0  0  0  0  0  0  0  0  0  0
   21.0296   18.2109   19.9936 O   0  5  0  0  0  0  0  0  0  0  0  0
   19.8112   16.7628   20.9923 O   0  0  0  0  0  0  0  0  0  0  0  0
   21.0963   18.2035   22.3512 C   0  0  0  0  0  0  0  0  0  0  0  0
   21.8410   18.9902   22.1793 H   0  0  0  0  0  0  0  0  0  0  0  0
   21.6286   17.3638   22.8129 H   0  0  0  0  0  0  0  0  0  0  0  0
   19.9995   18.7062   23.3317 C   0  0  0  0  0  0  0  0  0  0  0  0
   19.1556   18.0025   23.3423 H   0  0  0  0  0  0  0  0  0  0  0  0
   20.4193   18.6906   24.3466 H   0  0  0  0  0  0  0  0  0  0  0  0
   19.4912   20.1413   23.0533 C   0  0  0  0  0  0  0  0  0  0  0  0
   20.3379   20.8414   23.0416 H   0  0  0  0  0  0  0  0  0  0  0  0
   18.8475   20.4499   23.8887 H   0  0  0  0  0  0  0  0  0  0  0  0
   18.6886   20.2756   21.7425 C   0  0  0  0  0  0  0  0  0  0  0  0
   19.3316   20.1382   20.8646 H   0  0  0  0  0  0  0  0  0  0  0  0
   18.2383   21.2738   21.6686 H   0  0  0  0  0  0  0  0  0  0  0  0
   17.8801   19.5343   21.6977 H   0  0  0  0  0  0  0  0  0  0  0  0
  1  2  1  0  0  0  0
  1  3  2  0  0  0  0
  1  4  1  0  0  0  0
  4  5  1  0  0  0  0
  4  6  1  0  0  0  0
  4  7  1  0  0  0  0
  7  8  1  0  0  0  0
  7  9  1  0  0  0  0
  7 10  1  0  0  0  0
 10 11  1  0  0  0  0
 10 12  1  0  0  0  0
 10 13  1  0  0  0  0
 13 14  1  0  0  0  0
 13 15  1  0  0  0  0
 13 16  1  0  0  0  0
M  END
> <VConfSearch Rank>
99

> <Conf_Id>
47

> <Delta U+W>
2.301

> <U+W>
-54.603

> <U>
11.258

> <W>
-65.861

> <W(PB)>
-67.702

> <W(SA)>
1.841

> <Valence>
8.169

> <Coulomb>
2.735

> <VdW>
0.355

> <VdW6>
-6.245

> <VdW12>
6.600

> <Bond>
0.149

> <Angle>
3.168

> <Pdih>
4.840

> <Idih>
0.011

> <Tether>
0.000

$$$$
VeraChem MOL file


 16 15  0  0  0  0  0  0  0  0999 V2000     
   21.2774   18.2629   21.1271 C   0  0  0  0  0  0  0  0  0  0  0  0
   20.9659   17.1052   20.9273 O   0  5  0  0  0  0  0  0  0  0  0  0
   22.3913   18.6057   21.4713 O   0  0  0  0  0  0  0  0  0  0  0  0
   20.2431   19.3512   20.8449 C   0  0  0  0  0  0  0  0  0  0  0  0
   20.0036   19.2802   19.7775 H   0  0  0  0  0  0  0  0  0  0  0  0
   20.7075   20.3330   20.9972 H   0  0  0  0  0  0  0  0  0  0  0  0
   18.9268   19.2457   21.6654 C   0  0  0  0  0  0  0  0  0  0  0  0
   18.1529   19.8215   21.1402 H   0  0  0  0  0  0  0  0  0  0  0  0
   18.5747   18.2048   21.6763 H   0  0  0  0  0  0  0  0  0  0  0  0
   19.0202   19.7902   23.1113 C   0  0  0  0  0  0  0  0  0  0  0  0
   18.0085   19.8150   23.5390 H   0  0  0  0  0  0  0  0  0  0  0  0
   19.3743   20.8302   23.0961 H   0  0  0  0  0  0  0  0  0  0  0  0
   19.9220   18.9484   24.0378 C   0  0  0  0  0  0  0  0  0  0  0  0
   19.8392   19.2978   25.0750 H   0  0  0  0  0  0  0  0  0  0  0  0
   20.9767   19.0261   23.7471 H   0  0  0  0  0  0  0  0  0  0  0  0
   19.6340   17.8893   24.0123 H   0  0  0  0  0  0  0  0  0  0  0  0
  1  2  1  0  0  0  0
  1  3  2  0  0  0  0
  1  4  1  0  0  0  0
  4  5  1  0  0  0  0
  4  6  1  0  0  0  0
  4  7  1  0  0  0  0
  7  8  1  0  0  0  0
  7  9  1  0  0  0  0
  7 10  1  0  0  0  0
 10 11  1  0  0  0  0
 10 12  1  0  0  0  0
 10 13  1  0  0  0  0
 13 14  1  0  0  0  0
 13 15  1  0  0  0  0
 13 16  1  0  0  0  0
M  END
> <VConfSearch Rank>
100

> <Conf_Id>
45

> <Delta U+W>
2.303

> <U+W>
-54.601

> <U>
11.258

> <W>
-65.860

> <W(PB)>
-67.709

> <W(SA)>
1.849

> <Valence>
8.169

> <Coulomb>
2.735

> <VdW>
0.355

> <VdW6>
-6.245

> <VdW12>
6.600

> <Bond>
0.149

> <Angle>
3.168

> <Pdih>
4.840

> <Idih>
0.011

> <Tether>
0.000

$$$$
VeraChem MOL file


 16 15  0  0  0  0  0  0  0  0999 V2000     
   18.0319   20.9023   22.6882 C   0  0  0  0  0  0  0  0  0  0  0  0
   18.2526   20.7867   23.8780 O   0  5  0  0  0  0  0  0  0  0  0  0
   17.1691   21.6319   22.2425 O   0  0  0  0  0  0  0  0  0  0  0  0
   18.8618   20.1054   21.6802 C   0  0  0  0  0  0  0  0  0  0  0  0
   19.3279   20.8259   20.9977 H   0  0  0  0  0  0  0  0  0  0  0  0
   18.1644   19.5044   21.0846 H   0  0  0  0  0  0  0  0  0  0  0  0
   19.9509   19.1869   22.2956 C   0  0  0  0  0  0  0  0  0  0  0  0
   20.6432   19.7937   22.8955 H   0  0  0  0  0  0  0  0  0  0  0  0
   19.4785   18.4709   22.9824 H   0  0  0  0  0  0  0  0  0  0  0  0
   20.7374   18.4230   21.2098 C   0  0  0  0  0  0  0  0  0  0  0  0
   21.2118   19.1380   20.5232 H   0  0  0  0  0  0  0  0  0  0  0  0
   20.0464   17.8144   20.6102 H   0  0  0  0  0  0  0  0  0  0  0  0
   21.8174   17.5127   21.8271 C   0  0  0  0  0  0  0  0  0  0  0  0
   22.5412   18.1000   22.4074 H   0  0  0  0  0  0  0  0  0  0  0  0
   22.3670   16.9772   21.0420 H   0  0  0  0  0  0  0  0  0  0  0  0
   21.3673   16.7666   22.4950 H   0  0  0  0  0  0  0  0  0  0  0  0
  1  2  1  0  0  0  0
  1  3  2  0  0  0  0
  1  4  1  0  0  0  0
  4  5  1  0  0  0  0
  4  6  1  0  0  0  0
  4  7  1  0  0  0  0
  7  8  1  0  0  0  0
  7  9  1  0  0  0  0
  7 10  1  0  0  0  0
 10 11  1  0  0  0  0
 10 12  1  0  0  0  0
 10 13  1  0  0  0  0
 13 14  1  0  0  0  0
 13 15  1  0  0  0  0
 13 16  1  0  0  0  0
M  END
> <VConfSearch Rank>
101

> <Conf_Id>
0

> <Delta U+W>
0.000

> <U+W>
-56.904

> <U>
7.329

> <W>
-64.233

> <W(PB)>
-66.148

> <W(SA)>
1.915

> <Valence>
6.755

> <Coulomb>
-0.421

> <VdW>
0.995

> <VdW6>
-4.495

> <VdW12>
5.490

> <Bond>
0.106

> <Angle>
2.715

> <Pdih>
3.934

> <Idih>
0.000

> <Tether>
0.000

$$$$
VeraChem MOL file


 16 15  0  0  0  0  0  0  0  0999 V2000     
   18.5639   16.9851   22.7951 C   0  0  0  0  0  0  0  0  0  0  0  0
   17.6194   16.7021   22.0854 O   0  5  0  0  0  0  0  0  0  0  0  0
   19.1827   16.1683   23.4476 O   0  0  0  0  0  0  0  0  0  0  0  0
   19.0083   18.4423   22.8561 C   0  0  0  0  0  0  0  0  0  0  0  0
   19.4094   18.6349   23.8585 H   0  0  0  0  0  0  0  0  0  0  0  0
   18.1206   19.0749   22.7354 H   0  0  0  0  0  0  0  0  0  0  0  0
   20.0656   18.7955   21.7812 C   0  0  0  0  0  0  0  0  0  0  0  0
   20.9427   18.1456   21.9074 H   0  0  0  0  0  0  0  0  0  0  0  0
   19.6539   18.5856   20.7842 H   0  0  0  0  0  0  0  0  0  0  0  0
   20.4976   20.2743   21.8648 C   0  0  0  0  0  0  0  0  0  0  0  0
   20.9100   20.4844   22.8615 H   0  0  0  0  0  0  0  0  0  0  0  0
   19.6209   20.9245   21.7380 H   0  0  0  0  0  0  0  0  0  0  0  0
   21.5498   20.6186   20.7923 C   0  0  0  0  0  0  0  0  0  0  0  0
   21.1526   20.4474   19.7831 H   0  0  0  0  0  0  0  0  0  0  0  0
   22.4513   20.0040   20.9149 H   0  0  0  0  0  0  0  0  0  0  0  0
   21.8460   21.6731   20.8655 H   0  0  0  0  0  0  0  0  0  0  0  0
  1  2  1  0  0  0  0
  1  3  2  0  0  0  0
  1  4  1  0  0  0  0
  4  5  1  0  0  0  0
  4  6  1  0  0  0  0
  4  7  1  0  0  0  0
  7  8  1  0  0  0  0
  7  9  1  0  0  0  0
  7 10  1  0  0  0  0
 10 11  1  0  0  0  0
 10 12  1  0  0  0  0
 10 13  1  0  0  0  0
 13 14  1  0  0  0  0
 13 15  1  0  0  0  0
 13 16  1  0  0  0  0
M  END
> <VConfSearch Rank>
102

> <Conf_Id>
22

> <Delta U+W>
-1.185

> <U+W>
-58.089

> <U>
6.298

> <W>
-64.387

> <W(PB)>
-66.329

> <W(SA)>
1.942

> <Valence>
6.246

> <Coulomb>
-0.408

> <VdW>
0.460

> <VdW6>
-4.207

> <VdW12>
4.667

> <Bond>
0.072

> <Angle>
2.246

> <Pdih>
3.928

> <Idih>
0.001

> <Tether>
0.000

$$$$
VeraChem MOL file


 16 15  0  0  0  0  0  0  0  0999 V2000     
   21.0442   18.9817   24.3355 C   0  0  0  0  0  0  0  0  0  0  0  0
   21.9511   19.7100   24.6863 O   0  5  0  0  0  0  0  0  0  0  0  0
   20.8034   17.9107   24.8561 O   0  0  0  0  0  0  0  0  0  0  0  0
   20.1740   19.4270   23.1654 C   0  0  0  0  0  0  0  0  0  0  0  0
   20.1112   20.5216   23.1850 H   0  0  0  0  0  0  0  0  0  0  0  0
   19.1626   19.0402   23.3347 H   0  0  0  0  0  0  0  0  0  0  0  0
   20.7184   18.9475   21.7948 C   0  0  0  0  0  0  0  0  0  0  0  0
   21.7616   19.2778   21.6940 H   0  0  0  0  0  0  0  0  0  0  0  0
   20.7366   17.8492   21.7715 H   0  0  0  0  0  0  0  0  0  0  0  0
   19.9098   19.4821   20.5903 C   0  0  0  0  0  0  0  0  0  0  0  0
   20.4218   19.1892   19.6633 H   0  0  0  0  0  0  0  0  0  0  0  0
   19.9014   20.5807   20.6069 H   0  0  0  0  0  0  0  0  0  0  0  0
   18.4604   18.9524   20.5471 C   0  0  0  0  0  0  0  0  0  0  0  0
   17.8751   19.3160   21.4009 H   0  0  0  0  0  0  0  0  0  0  0  0
   18.4427   17.8548   20.5590 H   0  0  0  0  0  0  0  0  0  0  0  0
   17.9564   19.2885   19.6316 H   0  0  0  0  0  0  0  0  0  0  0  0
  1  2  1  0  0  0  0
  1  3  2  0  0  0  0
  1  4  1  0  0  0  0
  4  5  1  0  0  0  0
  4  6  1  0  0  0  0
  4  7  1  0  0  0  0
  7  8  1  0  0  0  0
  7  9  1  0  0  0  0
  7 10  1  0  0  0  0
 10 11  1  0  0  0  0
 10 12  1  0  0  0  0
 10 13  1  0  0  0  0
 13 14  1  0  0  0  0
 13 15  1  0  0  0  0
 13 16  1  0  0  0  0
M  END
> <VConfSearch Rank>
103

> <Conf_Id>
36

> <Delta U+W>
-0.427

> <U+W>
-57.331

> <U>
7.263

> <W>
-64.594

> <W(PB)>
-66.513

> <W(SA)>
1.920

> <Valence>
6.734

> <Coulomb>
-0.068

> <VdW>
0.598

> <VdW6>
-4.819

> <VdW12>
5.417

> <Bond>
0.107

> <Angle>
2.469

> <Pdih>
4.157

> <Idih>
0.001

> <Tether>
0.000

$$$$
VeraChem MOL file


 16 15  0  0  0  0  0  0  0  0999 V2000     
   21.8000   20.9554   22.1887 C   0  0  0  0  0  0  0  0  0  0  0  0
   22.8904   20.5116   21.8889 O   0  5  0  0  0  0  0  0  0  0  0  0
   21.6434   21.9706   22.8375 O   0  0  0  0  0  0  0  0  0  0  0  0
   20.5609   20.1862   21.7441 C   0  0  0  0  0  0  0  0  0  0  0  0
   20.7880   19.7141   20.7815 H   0  0  0  0  0  0  0  0  0  0  0  0
   19.7554   20.9095   21.5698 H   0  0  0  0  0  0  0  0  0  0  0  0
   20.1097   19.1233   22.7794 C   0  0  0  0  0  0  0  0  0  0  0  0
   20.9080   18.3805   22.9138 H   0  0  0  0  0  0  0  0  0  0  0  0
   19.9745   19.6139   23.7532 H   0  0  0  0  0  0  0  0  0  0  0  0
   18.7925   18.4106   22.3952 C   0  0  0  0  0  0  0  0  0  0  0  0
   17.9912   19.1523   22.2722 H   0  0  0  0  0  0  0  0  0  0  0  0
   18.4881   17.7592   23.2261 H   0  0  0  0  0  0  0  0  0  0  0  0
   18.9128   17.5588   21.1135 C   0  0  0  0  0  0  0  0  0  0  0  0
   19.1049   18.1845   20.2329 H   0  0  0  0  0  0  0  0  0  0  0  0
   17.9819   17.0062   20.9314 H   0  0  0  0  0  0  0  0  0  0  0  0
   19.7276   16.8284   21.2021 H   0  0  0  0  0  0  0  0  0  0  0  0
  1  2  1  0  0  0  0
  1  3  2  0  0  0  0
  1  4  1  0  0  0  0
  4  5  1  0  0  0  0
  4  6  1  0  0  0  0
  4  7  1  0  0  0  0
  7  8  1  0  0  0  0
  7  9  1  0  0  0  0
  7 10  1  0  0  0  0
 10 11  1  0  0  0  0
 10 12  1  0  0  0  0
 10 13  1  0  0  0  0
 13 14  1  0  0  0  0
 13 15  1  0  0  0  0
 13 16  1  0  0  0  0
M  END
> <VConfSearch Rank>
104

> <Conf_Id>
17

> <Delta U+W>
-0.432

> <U+W>
-57.336

> <U>
7.263

> <W>
-64.599

> <W(PB)>
-66.503

> <W(SA)>
1.904

> <Valence>
6.734

> <Coulomb>
-0.068

> <VdW>
0.598

> <VdW6>
-4.819

> <VdW12>
5.417

> <Bond>
0.107

> <Angle>
2.469

> <Pdih>
4.157

> <Idih>
0.001

> <Tether>
0.000

$$$$
VeraChem MOL file


 16 15  0  0  0  0  0  0  0  0999 V2000     
   19.0918   20.2277   20.2677 C   0  0  0  0  0  0  0  0  0  0  0  0
   18.4323   19.4844   19.5685 O   0  5  0  0  0  0  0  0  0  0  0  0
   18.6813   21.2895   20.6924 O   0  0  0  0  0  0  0  0  0  0  0  0
   20.5208   19.8147   20.6097 C   0  0  0  0  0  0  0  0  0  0  0  0
   21.0767   20.7053   20.9272 H   0  0  0  0  0  0  0  0  0  0  0  0
   20.9906   19.4611   19.6843 H   0  0  0  0  0  0  0  0  0  0  0  0
   20.6171   18.7096   21.6934 C   0  0  0  0  0  0  0  0  0  0  0  0
   20.0326   17.8352   21.3749 H   0  0  0  0  0  0  0  0  0  0  0  0
   21.6617   18.3794   21.7739 H   0  0  0  0  0  0  0  0  0  0  0  0
   20.1276   19.1901   23.0768 C   0  0  0  0  0  0  0  0  0  0  0  0
   19.0763   19.5040   23.0129 H   0  0  0  0  0  0  0  0  0  0  0  0
   20.7045   20.0718   23.3883 H   0  0  0  0  0  0  0  0  0  0  0  0
   20.2655   18.0842   24.1418 C   0  0  0  0  0  0  0  0  0  0  0  0
   19.6727   17.2011   23.8696 H   0  0  0  0  0  0  0  0  0  0  0  0
   19.9128   18.4415   25.1180 H   0  0  0  0  0  0  0  0  0  0  0  0
   21.3128   17.7737   24.2527 H   0  0  0  0  0  0  0  0  0  0  0  0
  1  2  1  0  0  0  0
  1  3  2  0  0  0  0
  1  4  1  0  0  0  0
  4  5  1  0  0  0  0
  4  6  1  0  0  0  0
  4  7  1  0  0  0  0
  7  8  1  0  0  0  0
  7  9  1  0  0  0  0
  7 10  1  0  0  0  0
 10 11  1  0  0  0  0
 10 12  1  0  0  0  0
 10 13  1  0  0  0  0
 13 14  1  0  0  0  0
 13 15  1  0  0  0  0
 13 16  1  0  0  0  0
M  END
> <VConfSearch Rank>
105

> <Conf_Id>
19

> <Delta U+W>
0.048

> <U+W>
-56.856

> <U>
8.276

> <W>
-65.132

> <W(PB)>
-67.031

> <W(SA)>
1.899

> <Valence>
6.513

> <Coulomb>
1.428

> <VdW>
0.335

> <VdW6>
-5.021

> <VdW12>
5.356

> <Bond>
0.092

> <Angle>
2.417

> <Pdih>
4.003

> <Idih>
0.001

> <Tether>
0.000

$$$$
VeraChem MOL file


 16 15  0  0  0  0  0  0  0  0999 V2000     
   20.3678   17.0051   22.9291 C   0  0  0  0  0  0  0  0  0  0  0  0
   21.4442   16.5788   22.5603 O   0  5  0  0  0  0  0  0  0  0  0  0
   19.3368   16.3647   22.8711 O   0  0  0  0  0  0  0  0  0  0  0  0
   20.3142   18.4120   23.5182 C   0  0  0  0  0  0  0  0  0  0  0  0
   21.1496   18.5050   24.2224 H   0  0  0  0  0  0  0  0  0  0  0  0
   19.3927   18.5117   24.1046 H   0  0  0  0  0  0  0  0  0  0  0  0
   20.4007   19.5436   22.4613 C   0  0  0  0  0  0  0  0  0  0  0  0
   20.4954   20.5080   22.9785 H   0  0  0  0  0  0  0  0  0  0  0  0
   21.3135   19.4144   21.8633 H   0  0  0  0  0  0  0  0  0  0  0  0
   19.1681   19.5837   21.5321 C   0  0  0  0  0  0  0  0  0  0  0  0
   18.2552   19.7005   22.1322 H   0  0  0  0  0  0  0  0  0  0  0  0
   19.0750   18.6304   20.9934 H   0  0  0  0  0  0  0  0  0  0  0  0
   19.2638   20.7373   20.5140 C   0  0  0  0  0  0  0  0  0  0  0  0
   19.3235   21.7077   21.0239 H   0  0  0  0  0  0  0  0  0  0  0  0
   18.3813   20.7510   19.8613 H   0  0  0  0  0  0  0  0  0  0  0  0
   20.1531   20.6278   19.8794 H   0  0  0  0  0  0  0  0  0  0  0  0
  1  2  1  0  0  0  0
  1  3  2  0  0  0  0
  1  4  1  0  0  0  0
  4  5  1  0  0  0  0
  4  6  1  0  0  0  0
  4  7  1  0  0  0  0
  7  8  1  0  0  0  0
  7  9  1  0  0  0  0
  7 10  1  0  0  0  0
 10 11  1  0  0  0  0
 10 12  1  0  0  0  0
 10 13  1  0  0  0  0
 13 14  1  0  0  0  0
 13 15  1  0  0  0  0
 13 16  1  0  0  0  0
M  END
> <VConfSearch Rank>
106

> <Conf_Id>
20

> <Delta U+W>
-0.010

> <U+W>
-56.914

> <U>
8.277

> <W>
-65.191

> <W(PB)>
-67.081

> <W(SA)>
1.890

> <Valence>
6.513

> <Coulomb>
1.429

> <VdW>
0.335

> <VdW6>
-5.021

> <VdW12>
5.356

> <Bond>
0.092

> <Angle>
2.417

> <Pdih>
4.002

> <Idih>
0.001

> <Tether>
0.000

$$$$
VeraChem MOL file


 16 15  0  0  0  0  0  0  0  0999 V2000     
   19.6140   18.7789   20.0728 C   0  0  0  0  0  0  0  0  0  0  0  0
   20.4950   18.3228   19.3709 O   0  5  0  0  0  0  0  0  0  0  0  0
   18.9280   19.7298   19.7542 O   0  0  0  0  0  0  0  0  0  0  0  0
   19.3338   18.0979   21.4098 C   0  0  0  0  0  0  0  0  0  0  0  0
   19.2283   17.0247   21.2126 H   0  0  0  0  0  0  0  0  0  0  0  0
   18.3623   18.4415   21.7830 H   0  0  0  0  0  0  0  0  0  0  0  0
   20.4394   18.3164   22.4787 C   0  0  0  0  0  0  0  0  0  0  0  0
   20.1955   17.7291   23.3743 H   0  0  0  0  0  0  0  0  0  0  0  0
   21.3864   17.9130   22.0944 H   0  0  0  0  0  0  0  0  0  0  0  0
   20.6531   19.7947   22.8823 C   0  0  0  0  0  0  0  0  0  0  0  0
   20.9321   20.3872   21.9998 H   0  0  0  0  0  0  0  0  0  0  0  0
   21.5045   19.8516   23.5745 H   0  0  0  0  0  0  0  0  0  0  0  0
   19.4178   20.4256   23.5594 C   0  0  0  0  0  0  0  0  0  0  0  0
   18.5758   20.5017   22.8597 H   0  0  0  0  0  0  0  0  0  0  0  0
   19.6491   21.4393   23.9112 H   0  0  0  0  0  0  0  0  0  0  0  0
   19.0965   19.8317   24.4249 H   0  0  0  0  0  0  0  0  0  0  0  0
  1  2  1  0  0  0  0
  1  3  2  0  0  0  0
  1  4  1  0  0  0  0
  4  5  1  0  0  0  0
  4  6  1  0  0  0  0
  4  7  1  0  0  0  0
  7  8  1  0  0  0  0
  7  9  1  0  0  0  0
  7 10  1  0  0  0  0
 10 11  1  0  0  0  0
 10 12  1  0  0  0  0
 10 13  1  0  0  0  0
 13 14  1  0  0  0  0
 13 15  1  0  0  0  0
 13 16  1  0  0  0  0
M  END
> <VConfSearch Rank>
107

> <Conf_Id>
37

> <Delta U+W>
1.063

> <U+W>
-55.841

> <U>
9.719

> <W>
-65.560

> <W(PB)>
-67.414

> <W(SA)>
1.854

> <Valence>
7.002

> <Coulomb>
2.402

> <VdW>
0.314

> <VdW6>
-5.861

> <VdW12>
6.175

> <Bond>
0.134

> <Angle>
2.733

> <Pdih>
4.133

> <Idih>
0.002

> <Tether>
0.000

$$$$
VeraChem MOL file


 16 15  0  0  0  0  0  0  0  0999 V2000     
   20.7516   17.5651   20.8417 C   0  0  0  0  0  0  0  0  0  0  0  0
   21.6915   17.6699   20.0786 O   0  5  0  0  0  0  0  0  0  0  0  0
   20.5649   16.5923   21.5453 O   0  0  0  0  0  0  0  0  0  0  0  0
   19.7345   18.7021   20.8912 C   0  0  0  0  0  0  0  0  0  0  0  0
   18.8324   18.3453   21.4013 H   0  0  0  0  0  0  0  0  0  0  0  0
   19.4405   18.9210   19.8581 H   0  0  0  0  0  0  0  0  0  0  0  0
   20.2641   20.0004   21.5595 C   0  0  0  0  0  0  0  0  0  0  0  0
   21.1339   20.3596   20.9922 H   0  0  0  0  0  0  0  0  0  0  0  0
   19.4992   20.7845   21.4794 H   0  0  0  0  0  0  0  0  0  0  0  0
   20.6693   19.8344   23.0435 C   0  0  0  0  0  0  0  0  0  0  0  0
   21.1049   20.7788   23.3977 H   0  0  0  0  0  0  0  0  0  0  0  0
   21.4598   19.0764   23.1333 H   0  0  0  0  0  0  0  0  0  0  0  0
   19.4852   19.4578   23.9592 C   0  0  0  0  0  0  0  0  0  0  0  0
   18.6656   20.1815   23.8615 H   0  0  0  0  0  0  0  0  0  0  0  0
   19.8020   19.4448   25.0101 H   0  0  0  0  0  0  0  0  0  0  0  0
   19.0969   18.4601   23.7178 H   0  0  0  0  0  0  0  0  0  0  0  0
  1  2  1  0  0  0  0
  1  3  2  0  0  0  0
  1  4  1  0  0  0  0
  4  5  1  0  0  0  0
  4  6  1  0  0  0  0
  4  7  1  0  0  0  0
  7  8  1  0  0  0  0
  7  9  1  0  0  0  0
  7 10  1  0  0  0  0
 10 11  1  0  0  0  0
 10 12  1  0  0  0  0
 10 13  1  0  0  0  0
 13 14  1  0  0  0  0
 13 15  1  0  0  0  0
 13 16  1  0  0  0  0
M  END
> <VConfSearch Rank>
108

> <Conf_Id>
39

> <Delta U+W>
1.129

> <U+W>
-55.775

> <U>
9.718

> <W>
-65.493

> <W(PB)>
-67.361

> <W(SA)>
1.869

> <Valence>
7.002

> <Coulomb>
2.402

> <VdW>
0.314

> <VdW6>
-5.861

> <VdW12>
6.175

> <Bond>
0.134

> <Angle>
2.734

> <Pdih>
4.133

> <Idih>
0.002

> <Tether>
0.000

$$$$
VeraChem MOL file


 16 15  0  0  0  0  0  0  0  0999 V2000     
   19.1490   17.2826   21.8364 C   0  0  0  0  0  0  0  0  0  0  0  0
   19.9409   16.4000   22.1024 O   0  5  0  0  0  0  0  0  0  0  0  0
   18.5574   17.3532   20.7771 O   0  0  0  0  0  0  0  0  0  0  0  0
   18.8142   18.3025   22.9234 C   0  0  0  0  0  0  0  0  0  0  0  0
   19.3711   18.0496   23.8338 H   0  0  0  0  0  0  0  0  0  0  0  0
   17.7520   18.1662   23.1580 H   0  0  0  0  0  0  0  0  0  0  0  0
   19.0593   19.7886   22.5383 C   0  0  0  0  0  0  0  0  0  0  0  0
   18.6732   19.9822   21.5278 H   0  0  0  0  0  0  0  0  0  0  0  0
   18.4644   20.4167   23.2150 H   0  0  0  0  0  0  0  0  0  0  0  0
   20.5335   20.2489   22.6411 C   0  0  0  0  0  0  0  0  0  0  0  0
   20.9162   20.0519   23.6519 H   0  0  0  0  0  0  0  0  0  0  0  0
   20.5672   21.3388   22.5056 H   0  0  0  0  0  0  0  0  0  0  0  0
   21.4646   19.5977   21.5974 C   0  0  0  0  0  0  0  0  0  0  0  0
   21.5959   18.5264   21.7925 H   0  0  0  0  0  0  0  0  0  0  0  0
   22.4585   20.0625   21.6266 H   0  0  0  0  0  0  0  0  0  0  0  0
   21.0637   19.7172   20.5824 H   0  0  0  0  0  0  0  0  0  0  0  0
  1  2  1  0  0  0  0
  1  3  2  0  0  0  0
  1  4  1  0  0  0  0
  4  5  1  0  0  0  0
  4  6  1  0  0  0  0
  4  7  1  0  0  0  0
  7  8  1  0  0  0  0
  7  9  1  0  0  0  0
  7 10  1  0  0  0  0
 10 11  1  0  0  0  0
 10 12  1  0  0  0  0
 10 13  1  0  0  0  0
 13 14  1  0  0  0  0
 13 15  1  0  0  0  0
 13 16  1  0  0  0  0
M  END
> <VConfSearch Rank>
109

> <Conf_Id>
47

> <Delta U+W>
2.301

> <U+W>
-54.603

> <U>
11.258

> <W>
-65.861

> <W(PB)>
-67.702

> <W(SA)>
1.841

> <Valence>
8.169

> <Coulomb>
2.735

> <VdW>
0.355

> <VdW6>
-6.245

> <VdW12>
6.600

> <Bond>
0.149

> <Angle>
3.168

> <Pdih>
4.840

> <Idih>
0.011

> <Tether>
0.000

$$$$
VeraChem MOL file


 16 15  0  0  0  0  0  0  0  0999 V2000     
   21.7085   19.3889   21.5252 C   0  0  0  0  0  0  0  0  0  0  0  0
   22.4935   18.7255   22.1739 O   0  5  0  0  0  0  0  0  0  0  0  0
   21.8960   20.5548   21.2380 O   0  0  0  0  0  0  0  0  0  0  0  0
   20.4657   18.6993   20.9652 C   0  0  0  0  0  0  0  0  0  0  0  0
   20.8260   17.9112   20.2937 H   0  0  0  0  0  0  0  0  0  0  0  0
   19.9118   19.4124   20.3426 H   0  0  0  0  0  0  0  0  0  0  0  0
   19.5224   18.0658   22.0263 C   0  0  0  0  0  0  0  0  0  0  0  0
   18.8984   17.3164   21.5208 H   0  0  0  0  0  0  0  0  0  0  0  0
   20.1132   17.5151   22.7714 H   0  0  0  0  0  0  0  0  0  0  0  0
   18.5775   19.0678   22.7325 C   0  0  0  0  0  0  0  0  0  0  0  0
   17.8553   18.4990   23.3343 H   0  0  0  0  0  0  0  0  0  0  0  0
   17.9901   19.6176   21.9842 H   0  0  0  0  0  0  0  0  0  0  0  0
   19.3051   20.0661   23.6568 C   0  0  0  0  0  0  0  0  0  0  0  0
   18.5796   20.6545   24.2332 H   0  0  0  0  0  0  0  0  0  0  0  0
   19.9174   20.7705   23.0808 H   0  0  0  0  0  0  0  0  0  0  0  0
   19.9578   19.5419   24.3671 H   0  0  0  0  0  0  0  0  0  0  0  0
  1  2  1  0  0  0  0
  1  3  2  0  0  0  0
  1  4  1  0  0  0  0
  4  5  1  0  0  0  0
  4  6  1  0  0  0  0
  4  7  1  0  0  0  0
  7  8  1  0  0  0  0
  7  9  1  0  0  0  0
  7 10  1  0  0  0  0
 10 11  1  0  0  0  0
 10 12  1  0  0  0  0
 10 13  1  0  0  0  0
 13 14  1  0  0  0  0
 13 15  1  0  0  0  0
 13 16  1  0  0  0  0
M  END
> <VConfSearch Rank>
110

> <Conf_Id>
45

> <Delta U+W>
2.303

> <U+W>
-54.601

> <U>
11.258

> <W>
-65.860

> <W(PB)>
-67.709

> <W(SA)>
1.849

> <Valence>
8.169

> <Coulomb>
2.735

> <VdW>
0.355

> <VdW6>
-6.245

> <VdW12>
6.600

> <Bond>
0.149

> <Angle>
3.168

> <Pdih>
4.840

> <Idih>
0.011

> <Tether>
0.000

$$$$
VeraChem MOL file


 16 15  0  0  0  0  0  0  0  0999 V2000     
   21.9263   17.1486   21.8571 C   0  0  0  0  0  0  0  0  0  0  0  0
   22.7773   17.8645   21.3660 O   0  5  0  0  0  0  0  0  0  0  0  0
   22.1202   15.9811   22.1303 O   0  0  0  0  0  0  0  0  0  0  0  0
   20.5371   17.7145   22.1567 C   0  0  0  0  0  0  0  0  0  0  0  0
   20.3474   17.5671   23.2265 H   0  0  0  0  0  0  0  0  0  0  0  0
   19.8093   17.0996   21.6142 H   0  0  0  0  0  0  0  0  0  0  0  0
   20.3361   19.2091   21.7904 C   0  0  0  0  0  0  0  0  0  0  0  0
   21.0715   19.8196   22.3327 H   0  0  0  0  0  0  0  0  0  0  0  0
   20.5328   19.3516   20.7187 H   0  0  0  0  0  0  0  0  0  0  0  0
   18.9103   19.6950   22.1254 C   0  0  0  0  0  0  0  0  0  0  0  0
   18.7129   19.5546   23.1973 H   0  0  0  0  0  0  0  0  0  0  0  0
   18.1739   19.0864   21.5824 H   0  0  0  0  0  0  0  0  0  0  0  0
   18.7169   21.1798   21.7595 C   0  0  0  0  0  0  0  0  0  0  0  0
   19.4207   21.8155   22.3127 H   0  0  0  0  0  0  0  0  0  0  0  0
   17.6985   21.5090   22.0039 H   0  0  0  0  0  0  0  0  0  0  0  0
   18.8777   21.3438   20.6858 H   0  0  0  0  0  0  0  0  0  0  0  0
  1  2  1  0  0  0  0
  1  3  2  0  0  0  0
  1  4  1  0  0  0  0
  4  5  1  0  0  0  0
  4  6  1  0  0  0  0
  4  7  1  0  0  0  0
  7  8  1  0  0  0  0
  7  9  1  0  0  0  0
  7 10  1  0  0  0  0
 10 11  1  0  0  0  0
 10 12  1  0  0  0  0
 10 13  1  0  0  0  0
 13 14  1  0  0  0  0
 13 15  1  0  0  0  0
 13 16  1  0  0  0  0
M  END
> <VConfSearch Rank>
111

> <Conf_Id>
0

> <Delta U+W>
0.000

> <U+W>
-56.904

> <U>
7.329

> <W>
-64.233

> <W(PB)>
-66.148

> <W(SA)>
1.915

> <Valence>
6.755

> <Coulomb>
-0.421

> <VdW>
0.995

> <VdW6>
-4.495

> <VdW12>
5.490

> <Bond>
0.106

> <Angle>
2.715

> <Pdih>
3.934

> <Idih>
0.000

> <Tether>
0.000

$$$$
VeraChem MOL file


 16 15  0  0  0  0  0  0  0  0999 V2000     
   18.2291   20.6664   20.5949 C   0  0  0  0  0  0  0  0  0  0  0  0
   18.4759   21.8559   20.5945 O   0  5  0  0  0  0  0  0  0  0  0  0
   17.6507   20.0998   19.6893 O   0  0  0  0  0  0  0  0  0  0  0  0
   18.6864   19.8361   21.7891 C   0  0  0  0  0  0  0  0  0  0  0  0
   17.9646   19.0235   21.9359 H   0  0  0  0  0  0  0  0  0  0  0  0
   18.6450   20.4713   22.6821 H   0  0  0  0  0  0  0  0  0  0  0  0
   20.1120   19.2580   21.6108 C   0  0  0  0  0  0  0  0  0  0  0  0
   20.1405   18.6347   20.7063 H   0  0  0  0  0  0  0  0  0  0  0  0
   20.8209   20.0826   21.4525 H   0  0  0  0  0  0  0  0  0  0  0  0
   20.5498   18.4229   22.8320 C   0  0  0  0  0  0  0  0  0  0  0  0
   19.8415   17.5978   22.9902 H   0  0  0  0  0  0  0  0  0  0  0  0
   20.5220   19.0461   23.7367 H   0  0  0  0  0  0  0  0  0  0  0  0
   21.9693   17.8509   22.6476 C   0  0  0  0  0  0  0  0  0  0  0  0
   22.7038   18.6567   22.5184 H   0  0  0  0  0  0  0  0  0  0  0  0
   22.0182   17.1978   21.7665 H   0  0  0  0  0  0  0  0  0  0  0  0
   22.2651   17.2601   23.5243 H   0  0  0  0  0  0  0  0  0  0  0  0
  1  2  1  0  0  0  0
  1  3  2  0  0  0  0
  1  4  1  0  0  0  0
  4  5  1  0  0  0  0
  4  6  1  0  0  0  0
  4  7  1  0  0  0  0
  7  8  1  0  0  0  0
  7  9  1  0  0  0  0
  7 10  1  0  0  0  0
 10 11  1  0  0  0  0
 10 12  1  0  0  0  0
 10 13  1  0  0  0  0
 13 14  1  0  0  0  0
 13 15  1  0  0  0  0
 13 16  1  0  0  0  0
M  END
> <VConfSearch Rank>
112

> <Conf_Id>
22

> <Delta U+W>
-1.185

> <U+W>
-58.089

> <U>
6.298

> <W>
-64.387

> <W(PB)>
-66.329

> <W(SA)>
1.942

> <Valence>
6.246

> <Coulomb>
-0.408

> <VdW>
0.460

> <VdW6>
-4.207

> <VdW12>
4.667

> <Bond>
0.072

> <Angle>
2.246

> <Pdih>
3.928

> <Idih>
0.001

> <Tether>
0.000

$$$$
VeraChem MOL file


 16 15  0  0  0  0  0  0  0  0999 V2000     
   22.2530   19.4103   23.1686 C   0  0  0  0  0  0  0  0  0  0  0  0
   22.5611   18.7556   24.1445 O   0  5  0  0  0  0  0  0  0  0  0  0
   22.7801   20.4643   22.8733 O   0  0  0  0  0  0  0  0  0  0  0  0
   21.1302   18.8907   22.2775 C   0  0  0  0  0  0  0  0  0  0  0  0
   21.1579   17.7947   22.2991 H   0  0  0  0  0  0  0  0  0  0  0  0
   21.3483   19.2013   21.2494 H   0  0  0  0  0  0  0  0  0  0  0  0
   19.7317   19.3985   22.7151 C   0  0  0  0  0  0  0  0  0  0  0  0
   19.5802   19.1472   23.7740 H   0  0  0  0  0  0  0  0  0  0  0  0
   19.7025   20.4948   22.6487 H   0  0  0  0  0  0  0  0  0  0  0  0
   18.5719   18.7943   21.8904 C   0  0  0  0  0  0  0  0  0  0  0  0
   17.6190   19.1172   22.3319 H   0  0  0  0  0  0  0  0  0  0  0  0
   18.5939   17.6983   21.9663 H   0  0  0  0  0  0  0  0  0  0  0  0
   18.5992   19.2124   20.4047 C   0  0  0  0  0  0  0  0  0  0  0  0
   19.4830   18.8128   19.8919 H   0  0  0  0  0  0  0  0  0  0  0  0
   18.6070   20.3056   20.3043 H   0  0  0  0  0  0  0  0  0  0  0  0
   17.7118   18.8315   19.8827 H   0  0  0  0  0  0  0  0  0  0  0  0
  1  2  1  0  0  0  0
  1  3  2  0  0  0  0
  1  4  1  0  0  0  0
  4  5  1  0  0  0  0
  4  6  1  0  0  0  0
  4  7  1  0  0  0  0
  7  8  1  0  0  0  0
  7  9  1  0  0  0  0
  7 10  1  0  0  0  0
 10 11  1  0  0  0  0
 10 12  1  0  0  0  0
 10 13  1  0  0  0  0
 13 14  1  0  0  0  0
 13 15  1  0  0  0  0
 13 16  1  0  0  0  0
M  END
> <VConfSearch Rank>
113

> <Conf_Id>
36

> <Delta U+W>
-0.427

> <U+W>
-57.331

> <U>
7.263

> <W>
-64.594

> <W(PB)>
-66.513

> <W(SA)>
1.920

> <Valence>
6.734

> <Coulomb>
-0.068

> <VdW>
0.598

> <VdW6>
-4.819

> <VdW12>
5.417

> <Bond>
0.107

> <Angle>
2.469

> <Pdih>
4.157

> <Idih>
0.001

> <Tether>
0.000

$$$$
VeraChem MOL file


 16 15  0  0  0  0  0  0  0  0999 V2000     
   19.4408   21.2825   23.3465 C   0  0  0  0  0  0  0  0  0  0  0  0
   18.7142   22.0308   22.7235 O   0  5  0  0  0  0  0  0  0  0  0  0
   20.1194   21.6366   24.2899 O   0  0  0  0  0  0  0  0  0  0  0  0
   19.5209   19.8243   22.9084 C   0  0  0  0  0  0  0  0  0  0  0  0
   18.5389   19.5391   22.5142 H   0  0  0  0  0  0  0  0  0  0  0  0
   19.7047   19.2109   23.7986 H   0  0  0  0  0  0  0  0  0  0  0  0
   20.6265   19.5746   21.8500 C   0  0  0  0  0  0  0  0  0  0  0  0
   20.4088   20.1614   20.9469 H   0  0  0  0  0  0  0  0  0  0  0  0
   21.5819   19.9503   22.2418 H   0  0  0  0  0  0  0  0  0  0  0  0
   20.7949   18.0839   21.4760 C   0  0  0  0  0  0  0  0  0  0  0  0
   21.0244   17.4986   22.3772 H   0  0  0  0  0  0  0  0  0  0  0  0
   21.6633   17.9827   20.8104 H   0  0  0  0  0  0  0  0  0  0  0  0
   19.5564   17.4893   20.7722 C   0  0  0  0  0  0  0  0  0  0  0  0
   18.6877   17.4651   21.4419 H   0  0  0  0  0  0  0  0  0  0  0  0
   19.7560   16.4591   20.4500 H   0  0  0  0  0  0  0  0  0  0  0  0
   19.2904   18.0758   19.8831 H   0  0  0  0  0  0  0  0  0  0  0  0
  1  2  1  0  0  0  0
  1  3  2  0  0  0  0
  1  4  1  0  0  0  0
  4  5  1  0  0  0  0
  4  6  1  0  0  0  0
  4  7  1  0  0  0  0
  7  8  1  0  0  0  0
  7  9  1  0  0  0  0
  7 10  1  0  0  0  0
 10 11  1  0  0  0  0
 10 12  1  0  0  0  0
 10 13  1  0  0  0  0
 13 14  1  0  0  0  0
 13 15  1  0  0  0  0
 13 16  1  0  0  0  0
M  END
> <VConfSearch Rank>
114

> <Conf_Id>
17

> <Delta U+W>
-0.432

> <U+W>
-57.336

> <U>
7.263

> <W>
-64.599

> <W(PB)>
-66.503

> <W(SA)>
1.904

> <Valence>
6.734

> <Coulomb>
-0.068

> <VdW>
0.598

> <VdW6>
-4.819

> <VdW12>
5.417

> <Bond>
0.107

> <Angle>
2.469

> <Pdih>
4.157

> <Idih>
0.001

> <Tether>
0.000

$$$$
VeraChem MOL file


 16 15  0  0  0  0  0  0  0  0999 V2000     
   19.4574   17.0017   21.3218 C   0  0  0  0  0  0  0  0  0  0  0  0
   20.1701   16.0964   21.7076 O   0  5  0  0  0  0  0  0  0  0  0  0
   18.2449   16.9794   21.3959 O   0  0  0  0  0  0  0  0  0  0  0  0
   20.1220   18.2212   20.6888 C   0  0  0  0  0  0  0  0  0  0  0  0
   19.3729   18.7605   20.0961 H   0  0  0  0  0  0  0  0  0  0  0  0
   20.8787   17.8543   19.9852 H   0  0  0  0  0  0  0  0  0  0  0  0
   20.7873   19.1799   21.7101 C   0  0  0  0  0  0  0  0  0  0  0  0
   21.5139   18.6201   22.3153 H   0  0  0  0  0  0  0  0  0  0  0  0
   21.3544   19.9454   21.1633 H   0  0  0  0  0  0  0  0  0  0  0  0
   19.7599   19.8705   22.6329 C   0  0  0  0  0  0  0  0  0  0  0  0
   19.2000   19.1143   23.2009 H   0  0  0  0  0  0  0  0  0  0  0  0
   19.0268   20.4196   22.0259 H   0  0  0  0  0  0  0  0  0  0  0  0
   20.4439   20.8424   23.6147 C   0  0  0  0  0  0  0  0  0  0  0  0
   21.1607   20.3127   24.2558 H   0  0  0  0  0  0  0  0  0  0  0  0
   19.7003   21.3237   24.2633 H   0  0  0  0  0  0  0  0  0  0  0  0
   20.9840   21.6312   23.0748 H   0  0  0  0  0  0  0  0  0  0  0  0
  1  2  1  0  0  0  0
  1  3  2  0  0  0  0
  1  4  1  0  0  0  0
  4  5  1  0  0  0  0
  4  6  1  0  0  0  0
  4  7  1  0  0  0  0
  7  8  1  0  0  0  0
  7  9  1  0  0  0  0
  7 10  1  0  0  0  0
 10 11  1  0  0  0  0
 10 12  1  0  0  0  0
 10 13  1  0  0  0  0
 13 14  1  0  0  0  0
 13 15  1  0  0  0  0
 13 16  1  0  0  0  0
M  END
> <VConfSearch Rank>
115

> <Conf_Id>
19

> <Delta U+W>
0.048

> <U+W>
-56.856

> <U>
8.276

> <W>
-65.132

> <W(PB)>
-67.031

> <W(SA)>
1.899

> <Valence>
6.513

> <Coulomb>
1.428

> <VdW>
0.335

> <VdW6>
-5.021

> <VdW12>
5.356

> <Bond>
0.092

> <Angle>
2.417

> <Pdih>
4.003

> <Idih>
0.001

> <Tether>
0.000

$$$$
VeraChem MOL file


 16 15  0  0  0  0  0  0  0  0999 V2000     
   19.7419   20.5335   24.0161 C   0  0  0  0  0  0  0  0  0  0  0  0
   20.0247   21.6959   23.8037 O   0  5  0  0  0  0  0  0  0  0  0  0
   20.2108   19.8850   24.9304 O   0  0  0  0  0  0  0  0  0  0  0  0
   18.7252   19.8606   23.0979 C   0  0  0  0  0  0  0  0  0  0  0  0
   17.8880   20.5568   22.9693 H   0  0  0  0  0  0  0  0  0  0  0  0
   18.3257   18.9748   23.6066 H   0  0  0  0  0  0  0  0  0  0  0  0
   19.2906   19.4696   21.7077 C   0  0  0  0  0  0  0  0  0  0  0  0
   18.4645   19.1243   21.0714 H   0  0  0  0  0  0  0  0  0  0  0  0
   19.7125   20.3607   21.2224 H   0  0  0  0  0  0  0  0  0  0  0  0
   20.3639   18.3629   21.7930 C   0  0  0  0  0  0  0  0  0  0  0  0
   19.9442   17.4770   22.2895 H   0  0  0  0  0  0  0  0  0  0  0  0
   21.2055   18.7052   22.4112 H   0  0  0  0  0  0  0  0  0  0  0  0
   20.8842   17.9697   20.3962 C   0  0  0  0  0  0  0  0  0  0  0  0
   20.0694   17.5903   19.7656 H   0  0  0  0  0  0  0  0  0  0  0  0
   21.6462   17.1835   20.4747 H   0  0  0  0  0  0  0  0  0  0  0  0
   21.3374   18.8318   19.8893 H   0  0  0  0  0  0  0  0  0  0  0  0
  1  2  1  0  0  0  0
  1  3  2  0  0  0  0
  1  4  1  0  0  0  0
  4  5  1  0  0  0  0
  4  6  1  0  0  0  0
  4  7  1  0  0  0  0
  7  8  1  0  0  0  0
  7  9  1  0  0  0  0
  7 10  1  0  0  0  0
 10 11  1  0  0  0  0
 10 12  1  0  0  0  0
 10 13  1  0  0  0  0
 13 14  1  0  0  0  0
 13 15  1  0  0  0  0
 13 16  1  0  0  0  0
M  END
> <VConfSearch Rank>
116

> <Conf_Id>
20

> <Delta U+W>
-0.010

> <U+W>
-56.914

> <U>
8.277

> <W>
-65.191

> <W(PB)>
-67.081

> <W(SA)>
1.890

> <Valence>
6.513

> <Coulomb>
1.429

> <VdW>
0.335

> <VdW6>
-5.021

> <VdW12>
5.356

> <Bond>
0.092

> <Angle>
2.417

> <Pdih>
4.002

> <Idih>
0.001

> <Tether>
0.000

$$$$
VeraChem MOL file


 16 15  0  0  0  0  0  0  0  0999 V2000     
   18.9730   19.9919   23.9436 C   0  0  0  0  0  0  0  0  0  0  0  0
   19.5769   20.1303   24.9890 O   0  5  0  0  0  0  0  0  0  0  0  0
   17.8559   19.5194   23.8724 O   0  0  0  0  0  0  0  0  0  0  0  0
   19.6421   20.4692   22.6574 C   0  0  0  0  0  0  0  0  0  0  0  0
   19.9900   21.4940   22.8324 H   0  0  0  0  0  0  0  0  0  0  0  0
   18.8842   20.5298   21.8680 H   0  0  0  0  0  0  0  0  0  0  0  0
   20.8399   19.5923   22.2003 C   0  0  0  0  0  0  0  0  0  0  0  0
   21.3071   20.0520   21.3190 H   0  0  0  0  0  0  0  0  0  0  0  0
   21.6027   19.5972   22.9911 H   0  0  0  0  0  0  0  0  0  0  0  0
   20.4687   18.1263   21.8730 C   0  0  0  0  0  0  0  0  0  0  0  0
   20.0316   17.6440   22.7584 H   0  0  0  0  0  0  0  0  0  0  0  0
   21.3893   17.5727   21.6425 H   0  0  0  0  0  0  0  0  0  0  0  0
   19.4975   17.9960   20.6805 C   0  0  0  0  0  0  0  0  0  0  0  0
   18.5174   18.4301   20.9161 H   0  0  0  0  0  0  0  0  0  0  0  0
   19.3399   16.9395   20.4278 H   0  0  0  0  0  0  0  0  0  0  0  0
   19.8955   18.5013   19.7909 H   0  0  0  0  0  0  0  0  0  0  0  0
  1  2  1  0  0  0  0
  1  3  2  0  0  0  0
  1  4  1  0  0  0  0
  4  5  1  0  0  0  0
  4  6  1  0  0  0  0
  4  7  1  0  0  0  0
  7  8  1  0  0  0  0
  7  9  1  0  0  0  0
  7 10  1  0  0  0  0
 10 11  1  0  0  0  0
 10 12  1  0  0  0  0
 10 13  1  0  0  0  0
 13 14  1  0  0  0  0
 13 15  1  0  0  0  0
 13 16  1  0  0  0  0
M  END
> <VConfSearch Rank>
117

> <Conf_Id>
37

> <Delta U+W>
1.063

> <U+W>
-55.841

> <U>
9.719

> <W>
-65.560

> <W(PB)>
-67.414

> <W(SA)>
1.854

> <Valence>
7.002

> <Coulomb>
2.402

> <VdW>
0.314

> <VdW6>
-5.861

> <VdW12>
6.175

> <Bond>
0.134

> <Angle>
2.733

> <Pdih>
4.133

> <Idih>
0.002

> <Tether>
0.000

$$$$
VeraChem MOL file


 16 15  0  0  0  0  0  0  0  0999 V2000     
   21.7287   20.4285   21.5297 C   0  0  0  0  0  0  0  0  0  0  0  0
   22.8612   20.0379   21.3255 O   0  5  0  0  0  0  0  0  0  0  0  0
   21.1258   21.1620   20.7716 O   0  0  0  0  0  0  0  0  0  0  0  0
   21.0427   20.0016   22.8246 C   0  0  0  0  0  0  0  0  0  0  0  0
   20.1664   20.6399   22.9857 H   0  0  0  0  0  0  0  0  0  0  0  0
   21.7367   20.2145   23.6462 H   0  0  0  0  0  0  0  0  0  0  0  0
   20.6425   18.5014   22.8676 C   0  0  0  0  0  0  0  0  0  0  0  0
   21.5495   17.8910   22.7574 H   0  0  0  0  0  0  0  0  0  0  0  0
   20.2319   18.2664   23.8588 H   0  0  0  0  0  0  0  0  0  0  0  0
   19.6229   18.0819   21.7819 C   0  0  0  0  0  0  0  0  0  0  0  0
   19.4697   16.9957   21.8432 H   0  0  0  0  0  0  0  0  0  0  0  0
   20.0366   18.2799   20.7833 H   0  0  0  0  0  0  0  0  0  0  0  0
   18.2570   18.7864   21.9250 C   0  0  0  0  0  0  0  0  0  0  0  0
   17.8378   18.6335   22.9280 H   0  0  0  0  0  0  0  0  0  0  0  0
   17.5414   18.3877   21.1944 H   0  0  0  0  0  0  0  0  0  0  0  0
   18.3454   19.8658   21.7473 H   0  0  0  0  0  0  0  0  0  0  0  0
  1  2  1  0  0  0  0
  1  3  2  0  0  0  0
  1  4  1  0  0  0  0
  4  5  1  0  0  0  0
  4  6  1  0  0  0  0
  4  7  1  0  0  0  0
  7  8  1  0  0  0  0
  7  9  1  0  0  0  0
  7 10  1  0  0  0  0
 10 11  1  0  0  0  0
 10 12  1  0  0  0  0
 10 13  1  0  0  0  0
 13 14  1  0  0  0  0
 13 15  1  0  0  0  0
 13 16  1  0  0  0  0
M  END
> <VConfSearch Rank>
118

> <Conf_Id>
39

> <Delta U+W>
1.129

> <U+W>
-55.775

> <U>
9.718

> <W>
-65.493

> <W(PB)>
-67.361

> <W(SA)>
1.869

> <Valence>
7.002

> <Coulomb>
2.402

> <VdW>
0.314

> <VdW6>
-5.861

> <VdW12>
6.175

> <Bond>
0.134

> <Angle>
2.734

> <Pdih>
4.133

> <Idih>
0.002

> <Tether>
0.000

$$$$
VeraChem MOL file


 16 15  0  0  0  0  0  0  0  0999 V2000     
   20.0774   17.1669   22.8066 C   0  0  0  0  0  0  0  0  0  0  0  0
   20.6716   16.5265   21.9618 O   0  5  0  0  0  0  0  0  0  0  0  0
   19.0308   16.8045   23.3069 O   0  0  0  0  0  0  0  0  0  0  0  0
   20.7262   18.4473   23.3295 C   0  0  0  0  0  0  0  0  0  0  0  0
   21.6946   18.5850   22.8333 H   0  0  0  0  0  0  0  0  0  0  0  0
   20.9400   18.2740   24.3906 H   0  0  0  0  0  0  0  0  0  0  0  0
   19.8637   19.7333   23.1919 C   0  0  0  0  0  0  0  0  0  0  0  0
   18.8306   19.5266   23.5043 H   0  0  0  0  0  0  0  0  0  0  0  0
   20.2507   20.4784   23.9001 H   0  0  0  0  0  0  0  0  0  0  0  0
   19.8747   20.3720   21.7821 C   0  0  0  0  0  0  0  0  0  0  0  0
   20.9092   20.5753   21.4726 H   0  0  0  0  0  0  0  0  0  0  0  0
   19.3725   21.3477   21.8389 H   0  0  0  0  0  0  0  0  0  0  0  0
   19.1688   19.5210   20.7061 C   0  0  0  0  0  0  0  0  0  0  0  0
   19.7288   18.6023   20.4926 H   0  0  0  0  0  0  0  0  0  0  0  0
   19.0853   20.0822   19.7665 H   0  0  0  0  0  0  0  0  0  0  0  0
   18.1564   19.2417   21.0259 H   0  0  0  0  0  0  0  0  0  0  0  0
  1  2  1  0  0  0  0
  1  3  2  0  0  0  0
  1  4  1  0  0  0  0
  4  5  1  0  0  0  0
  4  6  1  0  0  0  0
  4  7  1  0  0  0  0
  7  8  1  0  0  0  0
  7  9  1  0  0  0  0
  7 10  1  0  0  0  0
 10 11  1  0  0  0  0
 10 12  1  0  0  0  0
 10 13  1  0  0  0  0
 13 14  1  0  0  0  0
 13 15  1  0  0  0  0
 13 16  1  0  0  0  0
M  END
> <VConfSearch Rank>
119

> <Conf_Id>
47

> <Delta U+W>
2.301

> <U+W>
-54.603

> <U>
11.258

> <W>
-65.861

> <W(PB)>
-67.702

> <W(SA)>
1.841

> <Valence>
8.169

> <Coulomb>
2.735

> <VdW>
0.355

> <VdW6>
-6.245

> <VdW12>
6.600

> <Bond>
0.149

> <Angle>
3.168

> <Pdih>
4.840

> <Idih>
0.011

> <Tether>
0.000

$$$$
VeraChem MOL file


 16 15  0  0  0  0  0  0  0  0999 V2000     
   20.1522   20.7144   21.1075 C   0  0  0  0  0  0  0  0  0  0  0  0
   20.3522   20.3404   19.9685 O   0  5  0  0  0  0  0  0  0  0  0  0
   20.8357   21.5491   21.6668 O   0  0  0  0  0  0  0  0  0  0  0  0
   18.9265   20.1755   21.8430 C   0  0  0  0  0  0  0  0  0  0  0  0
   18.0532   20.4919   21.2609 H   0  0  0  0  0  0  0  0  0  0  0  0
   18.8492   20.6710   22.8184 H   0  0  0  0  0  0  0  0  0  0  0  0
   18.8830   18.6314   22.0192 C   0  0  0  0  0  0  0  0  0  0  0  0
   17.8414   18.3416   22.2129 H   0  0  0  0  0  0  0  0  0  0  0  0
   19.1642   18.1390   21.0779 H   0  0  0  0  0  0  0  0  0  0  0  0
   19.7480   18.0882   23.1820 C   0  0  0  0  0  0  0  0  0  0  0  0
   19.5199   17.0218   23.3158 H   0  0  0  0  0  0  0  0  0  0  0  0
   19.4651   18.5842   24.1207 H   0  0  0  0  0  0  0  0  0  0  0  0
   21.2664   18.2382   22.9530 C   0  0  0  0  0  0  0  0  0  0  0  0
   21.8266   17.7140   23.7379 H   0  0  0  0  0  0  0  0  0  0  0  0
   21.5719   19.2913   22.9772 H   0  0  0  0  0  0  0  0  0  0  0  0
   21.5626   17.8149   21.9842 H   0  0  0  0  0  0  0  0  0  0  0  0
  1  2  1  0  0  0  0
  1  3  2  0  0  0  0
  1  4  1  0  0  0  0
  4  5  1  0  0  0  0
  4  6  1  0  0  0  0
  4  7  1  0  0  0  0
  7  8  1  0  0  0  0
  7  9  1  0  0  0  0
  7 10  1  0  0  0  0
 10 11  1  0  0  0  0
 10 12  1  0  0  0  0
 10 13  1  0  0  0  0
 13 14  1  0  0  0  0
 13 15  1  0  0  0  0
 13 16  1  0  0  0  0
M  END
> <VConfSearch Rank>
120

> <Conf_Id>
45

> <Delta U+W>
2.303

> <U+W>
-54.601

> <U>
11.258

> <W>
-65.860

> <W(PB)>
-67.709

> <W(SA)>
1.849

> <Valence>
8.169

> <Coulomb>
2.735

> <VdW>
0.355

> <VdW6>
-6.245

> <VdW12>
6.600

> <Bond>
0.149

> <Angle>
3.168

> <Pdih>
4.840

> <Idih>
0.011

> <Tether>
0.000

$$$$
VeraChem MOL file


 16 15  0  0  0  0  0  0  0  0999 V2000     
   22.5682   18.1441   21.6953 C   0  0  0  0  0  0  0  0  0  0  0  0
   22.5037   17.9921   20.4910 O   0  5  0  0  0  0  0  0  0  0  0  0
   23.5587   17.8750   22.3447 O   0  0  0  0  0  0  0  0  0  0  0  0
   21.3629   18.6978   22.4573 C   0  0  0  0  0  0  0  0  0  0  0  0
   21.6949   19.6006   22.9835 H   0  0  0  0  0  0  0  0  0  0  0  0
   21.0933   17.9611   23.2233 H   0  0  0  0  0  0  0  0  0  0  0  0
   20.1209   19.0262   21.5866 C   0  0  0  0  0  0  0  0  0  0  0  0
   20.3984   19.7605   20.8178 H   0  0  0  0  0  0  0  0  0  0  0  0
   19.7962   18.1193   21.0578 H   0  0  0  0  0  0  0  0  0  0  0  0
   18.9556   19.5778   22.4347 C   0  0  0  0  0  0  0  0  0  0  0  0
   19.2785   20.4857   22.9627 H   0  0  0  0  0  0  0  0  0  0  0  0
   18.6760   18.8435   23.2029 H   0  0  0  0  0  0  0  0  0  0  0  0
   17.7252   19.9019   21.5645 C   0  0  0  0  0  0  0  0  0  0  0  0
   17.9685   20.6580   20.8065 H   0  0  0  0  0  0  0  0  0  0  0  0
   16.9064   20.2928   22.1825 H   0  0  0  0  0  0  0  0  0  0  0  0
   17.3615   19.0037   21.0484 H   0  0  0  0  0  0  0  0  0  0  0  0
  1  2  1  0  0  0  0
  1  3  2  0  0  0  0
  1  4  1  0  0  0  0
  4  5  1  0  0  0  0
  4  6  1  0  0  0  0
  4  7  1  0  0  0  0
  7  8  1  0  0  0  0
  7  9  1  0  0  0  0
  7 10  1  0  0  0  0
 10 11  1  0  0  0  0
 10 12  1  0  0  0  0
 10 13  1  0  0  0  0
 13 14  1  0  0  0  0
 13 15  1  0  0  0  0
 13 16  1  0  0  0  0
M  END
> <VConfSearch Rank>
121

> <Conf_Id>
0

> <Delta U+W>
0.000

> <U+W>
-56.904

> <U>
7.329

> <W>
-64.233

> <W(PB)>
-66.148

> <W(SA)>
1.915

> <Valence>
6.755

> <Coulomb>
-0.421

> <VdW>
0.995

> <VdW6>
-4.495

> <VdW12>
5.490

> <Bond>
0.106

> <Angle>
2.715

> <Pdih>
3.934

> <Idih>
0.000

> <Tether>
0.000

$$$$
VeraChem MOL file


 16 15  0  0  0  0  0  0  0  0999 V2000     
   20.8354   16.6193   22.6928 C   0  0  0  0  0  0  0  0  0  0  0  0
   20.6750   16.3656   23.8700 O   0  5  0  0  0  0  0  0  0  0  0  0
   20.7854   15.7837   21.8125 O   0  0  0  0  0  0  0  0  0  0  0  0
   21.0955   18.0685   22.2969 C   0  0  0  0  0  0  0  0  0  0  0  0
   21.7449   18.0693   21.4131 H   0  0  0  0  0  0  0  0  0  0  0  0
   21.6538   18.5491   23.1094 H   0  0  0  0  0  0  0  0  0  0  0  0
   19.7947   18.8562   22.0042 C   0  0  0  0  0  0  0  0  0  0  0  0
   19.2412   18.3559   21.1975 H   0  0  0  0  0  0  0  0  0  0  0  0
   19.1500   18.8357   22.8939 H   0  0  0  0  0  0  0  0  0  0  0  0
   20.0859   20.3182   21.6064 C   0  0  0  0  0  0  0  0  0  0  0  0
   20.7301   20.3390   20.7164 H   0  0  0  0  0  0  0  0  0  0  0  0
   20.6390   20.8189   22.4132 H   0  0  0  0  0  0  0  0  0  0  0  0
   18.7870   21.0959   21.3167 C   0  0  0  0  0  0  0  0  0  0  0  0
   18.1367   21.1178   22.2010 H   0  0  0  0  0  0  0  0  0  0  0  0
   18.2285   20.6343   20.4917 H   0  0  0  0  0  0  0  0  0  0  0  0
   19.0116   22.1330   21.0354 H   0  0  0  0  0  0  0  0  0  0  0  0
  1  2  1  0  0  0  0
  1  3  2  0  0  0  0
  1  4  1  0  0  0  0
  4  5  1  0  0  0  0
  4  6  1  0  0  0  0
  4  7  1  0  0  0  0
  7  8  1  0  0  0  0
  7  9  1  0  0  0  0
  7 10  1  0  0  0  0
 10 11  1  0  0  0  0
 10 12  1  0  0  0  0
 10 13  1  0  0  0  0
 13 14  1  0  0  0  0
 13 15  1  0  0  0  0
 13 16  1  0  0  0  0
M  END
> <VConfSearch Rank>
122

> <Conf_Id>
22

> <Delta U+W>
-1.185

> <U+W>
-58.089

> <U>
6.298

> <W>
-64.387

> <W(PB)>
-66.329

> <W(SA)>
1.942

> <Valence>
6.246

> <Coulomb>
-0.408

> <VdW>
0.460

> <VdW6>
-4.207

> <VdW12>
4.667

> <Bond>
0.072

> <Angle>
2.246

> <Pdih>
3.928

> <Idih>
0.001

> <Tether>
0.000

$$$$
VeraChem MOL file


 16 15  0  0  0  0  0  0  0  0999 V2000     
   20.9351   16.7601   22.2463 C   0  0  0  0  0  0  0  0  0  0  0  0
   21.6628   16.4501   23.1685 O   0  5  0  0  0  0  0  0  0  0  0  0
   20.8828   16.1489   21.1976 O   0  0  0  0  0  0  0  0  0  0  0  0
   20.0549   17.9946   22.4066 C   0  0  0  0  0  0  0  0  0  0  0  0
   19.7780   18.0804   23.4642 H   0  0  0  0  0  0  0  0  0  0  0  0
   19.1317   17.8227   21.8416 H   0  0  0  0  0  0  0  0  0  0  0  0
   20.7515   19.2955   21.9295 C   0  0  0  0  0  0  0  0  0  0  0  0
   21.7135   19.3929   22.4515 H   0  0  0  0  0  0  0  0  0  0  0  0
   20.9857   19.2145   20.8590 H   0  0  0  0  0  0  0  0  0  0  0  0
   19.9158   20.5707   22.1862 C   0  0  0  0  0  0  0  0  0  0  0  0
   20.5215   21.4488   21.9229 H   0  0  0  0  0  0  0  0  0  0  0  0
   19.6915   20.6581   23.2583 H   0  0  0  0  0  0  0  0  0  0  0  0
   18.6024   20.6110   21.3760 C   0  0  0  0  0  0  0  0  0  0  0  0
   17.9147   19.8148   21.6874 H   0  0  0  0  0  0  0  0  0  0  0  0
   18.7995   20.4962   20.3021 H   0  0  0  0  0  0  0  0  0  0  0  0
   18.0893   21.5700   21.5247 H   0  0  0  0  0  0  0  0  0  0  0  0
  1  2  1  0  0  0  0
  1  3  2  0  0  0  0
  1  4  1  0  0  0  0
  4  5  1  0  0  0  0
  4  6  1  0  0  0  0
  4  7  1  0  0  0  0
  7  8  1  0  0  0  0
  7  9  1  0  0  0  0
  7 10  1  0  0  0  0
 10 11  1  0  0  0  0
 10 12  1  0  0  0  0
 10 13  1  0  0  0  0
 13 14  1  0  0  0  0
 13 15  1  0  0  0  0
 13 16  1  0  0  0  0
M  END
> <VConfSearch Rank>
123

> <Conf_Id>
36

> <Delta U+W>
-0.427

> <U+W>
-57.331

> <U>
7.263

> <W>
-64.594

> <W(PB)>
-66.513

> <W(SA)>
1.920

> <Valence>
6.734

> <Coulomb>
-0.068

> <VdW>
0.598

> <VdW6>
-4.819

> <VdW12>
5.417

> <Bond>
0.107

> <Angle>
2.469

> <Pdih>
4.157

> <Idih>
0.001

> <Tether>
0.000

$$$$
VeraChem MOL file


 16 15  0  0  0  0  0  0  0  0999 V2000     
   20.9036   17.0597   20.7716 C   0  0  0  0  0  0  0  0  0  0  0  0
   20.0373   16.4965   20.1326 O   0  5  0  0  0  0  0  0  0  0  0  0
   21.9482   16.5318   21.0975 O   0  0  0  0  0  0  0  0  0  0  0  0
   20.6585   18.5007   21.2054 C   0  0  0  0  0  0  0  0  0  0  0  0
   20.0548   18.9854   20.4297 H   0  0  0  0  0  0  0  0  0  0  0  0
   21.6257   19.0167   21.2346 H   0  0  0  0  0  0  0  0  0  0  0  0
   19.9570   18.6021   22.5847 C   0  0  0  0  0  0  0  0  0  0  0  0
   18.9715   18.1192   22.5312 H   0  0  0  0  0  0  0  0  0  0  0  0
   20.5419   18.0337   23.3211 H   0  0  0  0  0  0  0  0  0  0  0  0
   19.7999   20.0549   23.0898 C   0  0  0  0  0  0  0  0  0  0  0  0
   20.7865   20.5343   23.1547 H   0  0  0  0  0  0  0  0  0  0  0  0
   19.3979   20.0319   24.1122 H   0  0  0  0  0  0  0  0  0  0  0  0
   18.8650   20.9086   22.2066 C   0  0  0  0  0  0  0  0  0  0  0  0
   19.2842   21.0545   21.2032 H   0  0  0  0  0  0  0  0  0  0  0  0
   18.7169   21.9009   22.6521 H   0  0  0  0  0  0  0  0  0  0  0  0
   17.8804   20.4342   22.1035 H   0  0  0  0  0  0  0  0  0  0  0  0
  1  2  1  0  0  0  0
  1  3  2  0  0  0  0
  1  4  1  0  0  0  0
  4  5  1  0  0  0  0
  4  6  1  0  0  0  0
  4  7  1  0  0  0  0
  7  8  1  0  0  0  0
  7  9  1  0  0  0  0
  7 10  1  0  0  0  0
 10 11  1  0  0  0  0
 10 12  1  0  0  0  0
 10 13  1  0  0  0  0
 13 14  1  0  0  0  0
 13 15  1  0  0  0  0
 13 16  1  0  0  0  0
M  END
> <VConfSearch Rank>
124

> <Conf_Id>
17

> <Delta U+W>
-0.432

> <U+W>
-57.336

> <U>
7.263

> <W>
-64.599

> <W(PB)>
-66.503

> <W(SA)>
1.904

> <Valence>
6.734

> <Coulomb>
-0.068

> <VdW>
0.598

> <VdW6>
-4.819

> <VdW12>
5.417

> <Bond>
0.107

> <Angle>
2.469

> <Pdih>
4.157

> <Idih>
0.001

> <Tether>
0.000

$$$$
VeraChem MOL file


 16 15  0  0  0  0  0  0  0  0999 V2000     
   21.0301   17.0189   22.6615 C   0  0  0  0  0  0  0  0  0  0  0  0
   20.6831   16.6236   23.7568 O   0  5  0  0  0  0  0  0  0  0  0  0
   20.9761   16.3404   21.6551 O   0  0  0  0  0  0  0  0  0  0  0  0
   21.5857   18.4361   22.5506 C   0  0  0  0  0  0  0  0  0  0  0  0
   22.1597   18.5158   21.6193 H   0  0  0  0  0  0  0  0  0  0  0  0
   22.2964   18.5754   23.3738 H   0  0  0  0  0  0  0  0  0  0  0  0
   20.5037   19.5456   22.6084 C   0  0  0  0  0  0  0  0  0  0  0  0
   19.9186   19.4359   23.5321 H   0  0  0  0  0  0  0  0  0  0  0  0
   20.9993   20.5244   22.6624 H   0  0  0  0  0  0  0  0  0  0  0  0
   19.5607   19.5198   21.3860 C   0  0  0  0  0  0  0  0  0  0  0  0
   19.0434   18.5516   21.3333 H   0  0  0  0  0  0  0  0  0  0  0  0
   20.1483   19.6171   20.4625 H   0  0  0  0  0  0  0  0  0  0  0  0
   18.5172   20.6525   21.4517 C   0  0  0  0  0  0  0  0  0  0  0  0
   17.8948   20.5609   22.3515 H   0  0  0  0  0  0  0  0  0  0  0  0
   17.8550   20.6193   20.5767 H   0  0  0  0  0  0  0  0  0  0  0  0
   19.0051   21.6359   21.4705 H   0  0  0  0  0  0  0  0  0  0  0  0
  1  2  1  0  0  0  0
  1  3  2  0  0  0  0
  1  4  1  0  0  0  0
  4  5  1  0  0  0  0
  4  6  1  0  0  0  0
  4  7  1  0  0  0  0
  7  8  1  0  0  0  0
  7  9  1  0  0  0  0
  7 10  1  0  0  0  0
 10 11  1  0  0  0  0
 10 12  1  0  0  0  0
 10 13  1  0  0  0  0
 13 14  1  0  0  0  0
 13 15  1  0  0  0  0
 13 16  1  0  0  0  0
M  END
> <VConfSearch Rank>
125

> <Conf_Id>
19

> <Delta U+W>
0.048

> <U+W>
-56.856

> <U>
8.276

> <W>
-65.132

> <W(PB)>
-67.031

> <W(SA)>
1.899

> <Valence>
6.513

> <Coulomb>
1.428

> <VdW>
0.335

> <VdW6>
-5.021

> <VdW12>
5.356

> <Bond>
0.092

> <Angle>
2.417

> <Pdih>
4.003

> <Idih>
0.001

> <Tether>
0.000

$$$$
VeraChem MOL file


 16 15  0  0  0  0  0  0  0  0999 V2000     
   20.0511   19.3296   19.7359 C   0  0  0  0  0  0  0  0  0  0  0  0
   20.8406   18.5421   19.2532 O   0  5  0  0  0  0  0  0  0  0  0  0
   20.0418   20.5161   19.4744 O   0  0  0  0  0  0  0  0  0  0  0  0
   19.0006   18.7932   20.7045 C   0  0  0  0  0  0  0  0  0  0  0  0
   18.5810   17.8820   20.2620 H   0  0  0  0  0  0  0  0  0  0  0  0
   18.1815   19.5197   20.7709 H   0  0  0  0  0  0  0  0  0  0  0  0
   19.5495   18.4752   22.1197 C   0  0  0  0  0  0  0  0  0  0  0  0
   18.7664   17.9690   22.7002 H   0  0  0  0  0  0  0  0  0  0  0  0
   20.3871   17.7689   22.0352 H   0  0  0  0  0  0  0  0  0  0  0  0
   20.0067   19.7405   22.8775 C   0  0  0  0  0  0  0  0  0  0  0  0
   19.1716   20.4509   22.9503 H   0  0  0  0  0  0  0  0  0  0  0  0
   20.8052   20.2447   22.3154 H   0  0  0  0  0  0  0  0  0  0  0  0
   20.5157   19.4003   24.2922 C   0  0  0  0  0  0  0  0  0  0  0  0
   19.7268   18.9254   24.8902 H   0  0  0  0  0  0  0  0  0  0  0  0
   20.8373   20.3097   24.8164 H   0  0  0  0  0  0  0  0  0  0  0  0
   21.3718   18.7144   24.2469 H   0  0  0  0  0  0  0  0  0  0  0  0
  1  2  1  0  0  0  0
  1  3  2  0  0  0  0
  1  4  1  0  0  0  0
  4  5  1  0  0  0  0
  4  6  1  0  0  0  0
  4  7  1  0  0  0  0
  7  8  1  0  0  0  0
  7  9  1  0  0  0  0
  7 10  1  0  0  0  0
 10 11  1  0  0  0  0
 10 12  1  0  0  0  0
 10 13  1  0  0  0  0
 13 14  1  0  0  0  0
 13 15  1  0  0  0  0
 13 16  1  0  0  0  0
M  END
> <VConfSearch Rank>
126

> <Conf_Id>
20

> <Delta U+W>
-0.010

> <U+W>
-56.914

> <U>
8.277

> <W>
-65.191

> <W(PB)>
-67.081

> <W(SA)>
1.890

> <Valence>
6.513

> <Coulomb>
1.429

> <VdW>
0.335

> <VdW6>
-5.021

> <VdW12>
5.356

> <Bond>
0.092

> <Angle>
2.417

> <Pdih>
4.002

> <Idih>
0.001

> <Tether>
0.000

$$$$
VeraChem MOL file


 16 15  0  0  0  0  0  0  0  0999 V2000     
   20.6057   17.4581   23.2519 C   0  0  0  0  0  0  0  0  0  0  0  0
   20.7070   17.4306   24.4626 O   0  5  0  0  0  0  0  0  0  0  0  0
   21.4806   17.0820   22.4974 O   0  0  0  0  0  0  0  0  0  0  0  0
   19.2957   17.9603   22.6506 C   0  0  0  0  0  0  0  0  0  0  0  0
   18.4812   17.4211   23.1484 H   0  0  0  0  0  0  0  0  0  0  0  0
   19.2594   17.6703   21.5943 H   0  0  0  0  0  0  0  0  0  0  0  0
   19.0690   19.4890   22.8068 C   0  0  0  0  0  0  0  0  0  0  0  0
   18.0737   19.7468   22.4206 H   0  0  0  0  0  0  0  0  0  0  0  0
   19.0576   19.7363   23.8773 H   0  0  0  0  0  0  0  0  0  0  0  0
   20.1311   20.3665   22.1025 C   0  0  0  0  0  0  0  0  0  0  0  0
   21.1287   20.1426   22.5053 H   0  0  0  0  0  0  0  0  0  0  0  0
   19.9313   21.4204   22.3400 H   0  0  0  0  0  0  0  0  0  0  0  0
   20.1422   20.1951   20.5686 C   0  0  0  0  0  0  0  0  0  0  0  0
   20.4592   19.1839   20.2833 H   0  0  0  0  0  0  0  0  0  0  0  0
   20.8426   20.9042   20.1085 H   0  0  0  0  0  0  0  0  0  0  0  0
   19.1466   20.3789   20.1443 H   0  0  0  0  0  0  0  0  0  0  0  0
  1  2  1  0  0  0  0
  1  3  2  0  0  0  0
  1  4  1  0  0  0  0
  4  5  1  0  0  0  0
  4  6  1  0  0  0  0
  4  7  1  0  0  0  0
  7  8  1  0  0  0  0
  7  9  1  0  0  0  0
  7 10  1  0  0  0  0
 10 11  1  0  0  0  0
 10 12  1  0  0  0  0
 10 13  1  0  0  0  0
 13 14  1  0  0  0  0
 13 15  1  0  0  0  0
 13 16  1  0  0  0  0
M  END
> <VConfSearch Rank>
127

> <Conf_Id>
37

> <Delta U+W>
1.063

> <U+W>
-55.841

> <U>
9.719

> <W>
-65.560

> <W(PB)>
-67.414

> <W(SA)>
1.854

> <Valence>
7.002

> <Coulomb>
2.402

> <VdW>
0.314

> <VdW6>
-5.861

> <VdW12>
6.175

> <Bond>
0.134

> <Angle>
2.733

> <Pdih>
4.133

> <Idih>
0.002

> <Tether>
0.000

$$$$
VeraChem MOL file


 16 15  0  0  0  0  0  0  0  0999 V2000     
   18.0244   18.8919   22.4797 C   0  0  0  0  0  0  0  0  0  0  0  0
   17.3346   19.7182   23.0438 O   0  5  0  0  0  0  0  0  0  0  0  0
   17.7093   18.3557   21.4359 O   0  0  0  0  0  0  0  0  0  0  0  0
   19.3395   18.4823   23.1375 C   0  0  0  0  0  0  0  0  0  0  0  0
   19.6962   17.5593   22.6662 H   0  0  0  0  0  0  0  0  0  0  0  0
   19.1171   18.2316   24.1813 H   0  0  0  0  0  0  0  0  0  0  0  0
   20.4394   19.5783   23.0968 C   0  0  0  0  0  0  0  0  0  0  0  0
   20.0696   20.4688   23.6237 H   0  0  0  0  0  0  0  0  0  0  0  0
   21.3161   19.2297   23.6591 H   0  0  0  0  0  0  0  0  0  0  0  0
   20.8791   19.9879   21.6710 C   0  0  0  0  0  0  0  0  0  0  0  0
   21.5929   20.8197   21.7476 H   0  0  0  0  0  0  0  0  0  0  0  0
   20.0164   20.3717   21.1088 H   0  0  0  0  0  0  0  0  0  0  0  0
   21.5392   18.8363   20.8832 C   0  0  0  0  0  0  0  0  0  0  0  0
   22.3839   18.4110   21.4405 H   0  0  0  0  0  0  0  0  0  0  0  0
   21.9178   19.1990   19.9189 H   0  0  0  0  0  0  0  0  0  0  0  0
   20.8209   18.0327   20.6763 H   0  0  0  0  0  0  0  0  0  0  0  0
  1  2  1  0  0  0  0
  1  3  2  0  0  0  0
  1  4  1  0  0  0  0
  4  5  1  0  0  0  0
  4  6  1  0  0  0  0
  4  7  1  0  0  0  0
  7  8  1  0  0  0  0
  7  9  1  0  0  0  0
  7 10  1  0  0  0  0
 10 11  1  0  0  0  0
 10 12  1  0  0  0  0
 10 13  1  0  0  0  0
 13 14  1  0  0  0  0
 13 15  1  0  0  0  0
 13 16  1  0  0  0  0
M  END
> <VConfSearch Rank>
128

> <Conf_Id>
39

> <Delta U+W>
1.129

> <U+W>
-55.775

> <U>
9.718

> <W>
-65.493

> <W(PB)>
-67.361

> <W(SA)>
1.869

> <Valence>
7.002

> <Coulomb>
2.402

> <VdW>
0.314

> <VdW6>
-5.861

> <VdW12>
6.175

> <Bond>
0.134

> <Angle>
2.734

> <Pdih>
4.133

> <Idih>
0.002

> <Tether>
0.000

$$$$
VeraChem MOL file


 16 15  0  0  0  0  0  0  0  0999 V2000     
   19.1468   17.2497   22.0147 C   0  0  0  0  0  0  0  0  0  0  0  0
   19.6862   16.6777   21.0880 O   0  5  0  0  0  0  0  0  0  0  0  0
   17.9410   17.3016   22.1577 O   0  0  0  0  0  0  0  0  0  0  0  0
   20.0328   17.8560   23.1015 C   0  0  0  0  0  0  0  0  0  0  0  0
   21.0832   17.6532   22.8599 H   0  0  0  0  0  0  0  0  0  0  0  0
   19.8114   17.3054   24.0232 H   0  0  0  0  0  0  0  0  0  0  0  0
   19.8236   19.3750   23.3585 C   0  0  0  0  0  0  0  0  0  0  0  0
   18.7495   19.6039   23.3964 H   0  0  0  0  0  0  0  0  0  0  0  0
   20.2180   19.6072   24.3570 H   0  0  0  0  0  0  0  0  0  0  0  0
   20.5299   20.3062   22.3439 C   0  0  0  0  0  0  0  0  0  0  0  0
   21.6030   20.0728   22.3075 H   0  0  0  0  0  0  0  0  0  0  0  0
   20.4514   21.3398   22.7081 H   0  0  0  0  0  0  0  0  0  0  0  0
   19.9365   20.2429   20.9211 C   0  0  0  0  0  0  0  0  0  0  0  0
   20.1372   19.2743   20.4473 H   0  0  0  0  0  0  0  0  0  0  0  0
   20.3806   21.0194   20.2851 H   0  0  0  0  0  0  0  0  0  0  0  0
   18.8501   20.3997   20.9398 H   0  0  0  0  0  0  0  0  0  0  0  0
  1  2  1  0  0  0  0
  1  3  2  0  0  0  0
  1  4  1  0  0  0  0
  4  5  1  0  0  0  0
  4  6  1  0  0  0  0
  4  7  1  0  0  0  0
  7  8  1  0  0  0  0
  7  9  1  0  0  0  0
  7 10  1  0  0  0  0
 10 11  1  0  0  0  0
 10 12  1  0  0  0  0
 10 13  1  0  0  0  0
 13 14  1  0  0  0  0
 13 15  1  0  0  0  0
 13 16  1  0  0  0  0
M  END
> <VConfSearch Rank>
129

> <Conf_Id>
47

> <Delta U+W>
2.301

> <U+W>
-54.603

> <U>
11.258

> <W>
-65.861

> <W(PB)>
-67.702

> <W(SA)>
1.841

> <Valence>
8.169

> <Coulomb>
2.735

> <VdW>
0.355

> <VdW6>
-6.245

> <VdW12>
6.600

> <Bond>
0.149

> <Angle>
3.168

> <Pdih>
4.840

> <Idih>
0.011

> <Tether>
0.000

$$$$
VeraChem MOL file


 16 15  0  0  0  0  0  0  0  0999 V2000     
   19.2672   17.5880   23.3990 C   0  0  0  0  0  0  0  0  0  0  0  0
   18.5868   18.0256   24.3060 O   0  5  0  0  0  0  0  0  0  0  0  0
   20.1583   16.7780   23.5625 O   0  0  0  0  0  0  0  0  0  0  0  0
   18.9274   18.0076   21.9700 C   0  0  0  0  0  0  0  0  0  0  0  0
   17.9059   17.6581   21.7802 H   0  0  0  0  0  0  0  0  0  0  0  0
   19.5787   17.4646   21.2742 H   0  0  0  0  0  0  0  0  0  0  0  0
   18.9981   19.5355   21.6915 C   0  0  0  0  0  0  0  0  0  0  0  0
   18.4038   19.7438   20.7916 H   0  0  0  0  0  0  0  0  0  0  0  0
   18.5139   20.0878   22.5088 H   0  0  0  0  0  0  0  0  0  0  0  0
   20.4254   20.0841   21.4519 C   0  0  0  0  0  0  0  0  0  0  0  0
   20.3443   21.1253   21.1101 H   0  0  0  0  0  0  0  0  0  0  0  0
   20.9066   19.5282   20.6355 H   0  0  0  0  0  0  0  0  0  0  0  0
   21.3255   20.0496   22.7044 C   0  0  0  0  0  0  0  0  0  0  0  0
   22.2698   20.5753   22.5131 H   0  0  0  0  0  0  0  0  0  0  0  0
   21.5734   19.0201   22.9899 H   0  0  0  0  0  0  0  0  0  0  0  0
   20.8332   20.5354   23.5571 H   0  0  0  0  0  0  0  0  0  0  0  0
  1  2  1  0  0  0  0
  1  3  2  0  0  0  0
  1  4  1  0  0  0  0
  4  5  1  0  0  0  0
  4  6  1  0  0  0  0
  4  7  1  0  0  0  0
  7  8  1  0  0  0  0
  7  9  1  0  0  0  0
  7 10  1  0  0  0  0
 10 11  1  0  0  0  0
 10 12  1  0  0  0  0
 10 13  1  0  0  0  0
 13 14  1  0  0  0  0
 13 15  1  0  0  0  0
 13 16  1  0  0  0  0
M  END
> <VConfSearch Rank>
130

> <Conf_Id>
45

> <Delta U+W>
2.303

> <U+W>
-54.601

> <U>
11.258

> <W>
-65.860

> <W(PB)>
-67.709

> <W(SA)>
1.849

> <Valence>
8.169

> <Coulomb>
2.735

> <VdW>
0.355

> <VdW6>
-6.245

> <VdW12>
6.600

> <Bond>
0.149

> <Angle>
3.168

> <Pdih>
4.840

> <Idih>
0.011

> <Tether>
0.000

$$$$
VeraChem MOL file


 16 15  0  0  0  0  0  0  0  0999 V2000     
   19.1600   18.0732   24.3399 C   0  0  0  0  0  0  0  0  0  0  0  0
   18.3668   18.9671   24.5623 O   0  5  0  0  0  0  0  0  0  0  0  0
   19.3346   17.1393   25.0968 O   0  0  0  0  0  0  0  0  0  0  0  0
   19.9919   18.0968   23.0565 C   0  0  0  0  0  0  0  0  0  0  0  0
   19.7885   17.1639   22.5174 H   0  0  0  0  0  0  0  0  0  0  0  0
   21.0479   18.0735   23.3505 H   0  0  0  0  0  0  0  0  0  0  0  0
   19.7354   19.3085   22.1214 C   0  0  0  0  0  0  0  0  0  0  0  0
   18.6749   19.3297   21.8346 H   0  0  0  0  0  0  0  0  0  0  0  0
   19.9357   20.2401   22.6685 H   0  0  0  0  0  0  0  0  0  0  0  0
   20.6146   19.2514   20.8545 C   0  0  0  0  0  0  0  0  0  0  0  0
   20.4140   18.3209   20.3054 H   0  0  0  0  0  0  0  0  0  0  0  0
   21.6756   19.2319   21.1398 H   0  0  0  0  0  0  0  0  0  0  0  0
   20.3553   20.4573   19.9299 C   0  0  0  0  0  0  0  0  0  0  0  0
   19.3074   20.4837   19.6035 H   0  0  0  0  0  0  0  0  0  0  0  0
   20.9880   20.4013   19.0345 H   0  0  0  0  0  0  0  0  0  0  0  0
   20.5782   21.4014   20.4441 H   0  0  0  0  0  0  0  0  0  0  0  0
  1  2  1  0  0  0  0
  1  3  2  0  0  0  0
  1  4  1  0  0  0  0
  4  5  1  0  0  0  0
  4  6  1  0  0  0  0
  4  7  1  0  0  0  0
  7  8  1  0  0  0  0
  7  9  1  0  0  0  0
  7 10  1  0  0  0  0
 10 11  1  0  0  0  0
 10 12  1  0  0  0  0
 10 13  1  0  0  0  0
 13 14  1  0  0  0  0
 13 15  1  0  0  0  0
 13 16  1  0  0  0  0
M  END
> <VConfSearch Rank>
131

> <Conf_Id>
0

> <Delta U+W>
0.000

> <U+W>
-56.904

> <U>
7.329

> <W>
-64.233

> <W(PB)>
-66.148

> <W(SA)>
1.915

> <Valence>
6.755

> <Coulomb>
-0.421

> <VdW>
0.995

> <VdW6>
-4.495

> <VdW12>
5.490

> <Bond>
0.106

> <Angle>
2.715

> <Pdih>
3.934

> <Idih>
0.000

> <Tether>
0.000

$$$$
VeraChem MOL file


 16 15  0  0  0  0  0  0  0  0999 V2000     
   19.6422   16.5871   22.8815 C   0  0  0  0  0  0  0  0  0  0  0  0
   20.5817   16.1187   23.4928 O   0  5  0  0  0  0  0  0  0  0  0  0
   18.4832   16.3039   23.1103 O   0  0  0  0  0  0  0  0  0  0  0  0
   19.9325   17.5995   21.7791 C   0  0  0  0  0  0  0  0  0  0  0  0
   19.1634   17.4905   21.0047 H   0  0  0  0  0  0  0  0  0  0  0  0
   20.8936   17.3378   21.3201 H   0  0  0  0  0  0  0  0  0  0  0  0
   19.9672   19.0592   22.2951 C   0  0  0  0  0  0  0  0  0  0  0  0
   19.0028   19.3020   22.7625 H   0  0  0  0  0  0  0  0  0  0  0  0
   20.7330   19.1494   23.0780 H   0  0  0  0  0  0  0  0  0  0  0  0
   20.2625   20.0624   21.1606 C   0  0  0  0  0  0  0  0  0  0  0  0
   19.4966   19.9730   20.3778 H   0  0  0  0  0  0  0  0  0  0  0  0
   21.2272   19.8203   20.6933 H   0  0  0  0  0  0  0  0  0  0  0  0
   20.2956   21.5128   21.6814 C   0  0  0  0  0  0  0  0  0  0  0  0
   21.0751   21.6385   22.4444 H   0  0  0  0  0  0  0  0  0  0  0  0
   19.3317   21.7924   22.1266 H   0  0  0  0  0  0  0  0  0  0  0  0
   20.5067   22.2130   20.8627 H   0  0  0  0  0  0  0  0  0  0  0  0
  1  2  1  0  0  0  0
  1  3  2  0  0  0  0
  1  4  1  0  0  0  0
  4  5  1  0  0  0  0
  4  6  1  0  0  0  0
  4  7  1  0  0  0  0
  7  8  1  0  0  0  0
  7  9  1  0  0  0  0
  7 10  1  0  0  0  0
 10 11  1  0  0  0  0
 10 12  1  0  0  0  0
 10 13  1  0  0  0  0
 13 14  1  0  0  0  0
 13 15  1  0  0  0  0
 13 16  1  0  0  0  0
M  END
> <VConfSearch Rank>
132

> <Conf_Id>
22

> <Delta U+W>
-1.185

> <U+W>
-58.089

> <U>
6.298

> <W>
-64.387

> <W(PB)>
-66.329

> <W(SA)>
1.942

> <Valence>
6.246

> <Coulomb>
-0.408

> <VdW>
0.460

> <VdW6>
-4.207

> <VdW12>
4.667

> <Bond>
0.072

> <Angle>
2.246

> <Pdih>
3.928

> <Idih>
0.001

> <Tether>
0.000

$$$$
VeraChem MOL file


 16 15  0  0  0  0  0  0  0  0999 V2000     
   18.8051   17.5852   23.6978 C   0  0  0  0  0  0  0  0  0  0  0  0
   17.7216   17.8431   24.1831 O   0  5  0  0  0  0  0  0  0  0  0  0
   19.6001   16.8161   24.2003 O   0  0  0  0  0  0  0  0  0  0  0  0
   19.1961   18.2798   22.3981 C   0  0  0  0  0  0  0  0  0  0  0  0
   18.2837   18.4456   21.8128 H   0  0  0  0  0  0  0  0  0  0  0  0
   19.8278   17.5899   21.8271 H   0  0  0  0  0  0  0  0  0  0  0  0
   19.9319   19.6246   22.6331 C   0  0  0  0  0  0  0  0  0  0  0  0
   19.3101   20.2591   23.2798 H   0  0  0  0  0  0  0  0  0  0  0  0
   20.8651   19.4406   23.1831 H   0  0  0  0  0  0  0  0  0  0  0  0
   20.2381   20.3948   21.3279 C   0  0  0  0  0  0  0  0  0  0  0  0
   20.6566   21.3770   21.5874 H   0  0  0  0  0  0  0  0  0  0  0  0
   19.3036   20.5892   20.7835 H   0  0  0  0  0  0  0  0  0  0  0  0
   21.2326   19.6579   20.4054 C   0  0  0  0  0  0  0  0  0  0  0  0
   20.8091   18.7187   20.0282 H   0  0  0  0  0  0  0  0  0  0  0  0
   22.1648   19.4270   20.9374 H   0  0  0  0  0  0  0  0  0  0  0  0
   21.4845   20.2810   19.5374 H   0  0  0  0  0  0  0  0  0  0  0  0
  1  2  1  0  0  0  0
  1  3  2  0  0  0  0
  1  4  1  0  0  0  0
  4  5  1  0  0  0  0
  4  6  1  0  0  0  0
  4  7  1  0  0  0  0
  7  8  1  0  0  0  0
  7  9  1  0  0  0  0
  7 10  1  0  0  0  0
 10 11  1  0  0  0  0
 10 12  1  0  0  0  0
 10 13  1  0  0  0  0
 13 14  1  0  0  0  0
 13 15  1  0  0  0  0
 13 16  1  0  0  0  0
M  END
> <VConfSearch Rank>
133

> <Conf_Id>
36

> <Delta U+W>
-0.427

> <U+W>
-57.331

> <U>
7.263

> <W>
-64.594

> <W(PB)>
-66.513

> <W(SA)>
1.920

> <Valence>
6.734

> <Coulomb>
-0.068

> <VdW>
0.598

> <VdW6>
-4.819

> <VdW12>
5.417

> <Bond>
0.107

> <Angle>
2.469

> <Pdih>
4.157

> <Idih>
0.001

> <Tether>
0.000

$$$$
VeraChem MOL file


 16 15  0  0  0  0  0  0  0  0999 V2000     
   21.7445   18.3305   20.2946 C   0  0  0  0  0  0  0  0  0  0  0  0
   21.6345   18.9083   19.2316 O   0  5  0  0  0  0  0  0  0  0  0  0
   22.3397   17.2800   20.4294 O   0  0  0  0  0  0  0  0  0  0  0  0
   21.0828   18.9463   21.5224 C   0  0  0  0  0  0  0  0  0  0  0  0
   21.1173   20.0359   21.4097 H   0  0  0  0  0  0  0  0  0  0  0  0
   21.6888   18.6908   22.4000 H   0  0  0  0  0  0  0  0  0  0  0  0
   19.6223   18.4651   21.7231 C   0  0  0  0  0  0  0  0  0  0  0  0
   19.0156   18.7641   20.8572 H   0  0  0  0  0  0  0  0  0  0  0  0
   19.6123   17.3665   21.7451 H   0  0  0  0  0  0  0  0  0  0  0  0
   18.9734   18.9938   23.0230 C   0  0  0  0  0  0  0  0  0  0  0  0
   19.5737   18.6849   23.8900 H   0  0  0  0  0  0  0  0  0  0  0  0
   17.9883   18.5221   23.1432 H   0  0  0  0  0  0  0  0  0  0  0  0
   18.7956   20.5272   23.0345 C   0  0  0  0  0  0  0  0  0  0  0  0
   19.7639   21.0431   23.0306 H   0  0  0  0  0  0  0  0  0  0  0  0
   18.2543   20.8438   23.9355 H   0  0  0  0  0  0  0  0  0  0  0  0
   18.2223   20.8628   22.1605 H   0  0  0  0  0  0  0  0  0  0  0  0
  1  2  1  0  0  0  0
  1  3  2  0  0  0  0
  1  4  1  0  0  0  0
  4  5  1  0  0  0  0
  4  6  1  0  0  0  0
  4  7  1  0  0  0  0
  7  8  1  0  0  0  0
  7  9  1  0  0  0  0
  7 10  1  0  0  0  0
 10 11  1  0  0  0  0
 10 12  1  0  0  0  0
 10 13  1  0  0  0  0
 13 14  1  0  0  0  0
 13 15  1  0  0  0  0
 13 16  1  0  0  0  0
M  END
> <VConfSearch Rank>
134

> <Conf_Id>
17

> <Delta U+W>
-0.432

> <U+W>
-57.336

> <U>
7.263

> <W>
-64.599

> <W(PB)>
-66.503

> <W(SA)>
1.904

> <Valence>
6.734

> <Coulomb>
-0.068

> <VdW>
0.598

> <VdW6>
-4.819

> <VdW12>
5.417

> <Bond>
0.107

> <Angle>
2.469

> <Pdih>
4.157

> <Idih>
0.001

> <Tether>
0.000

$$$$
VeraChem MOL file


 16 15  0  0  0  0  0  0  0  0999 V2000     
   19.0747   21.2139   22.4924 C   0  0  0  0  0  0  0  0  0  0  0  0
   19.4070   21.7357   23.5382 O   0  5  0  0  0  0  0  0  0  0  0  0
   19.0514   21.7993   21.4280 O   0  0  0  0  0  0  0  0  0  0  0  0
   18.6406   19.7510   22.5240 C   0  0  0  0  0  0  0  0  0  0  0  0
   18.0582   19.5385   21.6192 H   0  0  0  0  0  0  0  0  0  0  0  0
   17.9601   19.6289   23.3750 H   0  0  0  0  0  0  0  0  0  0  0  0
   19.8147   18.7460   22.6527 C   0  0  0  0  0  0  0  0  0  0  0  0
   20.4054   18.9885   23.5470 H   0  0  0  0  0  0  0  0  0  0  0  0
   19.4059   17.7383   22.8075 H   0  0  0  0  0  0  0  0  0  0  0  0
   20.7289   18.7383   21.4083 C   0  0  0  0  0  0  0  0  0  0  0  0
   21.1603   19.7374   21.2553 H   0  0  0  0  0  0  0  0  0  0  0  0
   20.1347   18.5079   20.5133 H   0  0  0  0  0  0  0  0  0  0  0  0
   21.8668   17.7077   21.5480 C   0  0  0  0  0  0  0  0  0  0  0  0
   22.4958   17.9333   22.4191 H   0  0  0  0  0  0  0  0  0  0  0  0
   22.5072   17.7157   20.6564 H   0  0  0  0  0  0  0  0  0  0  0  0
   21.4655   16.6929   21.6680 H   0  0  0  0  0  0  0  0  0  0  0  0
  1  2  1  0  0  0  0
  1  3  2  0  0  0  0
  1  4  1  0  0  0  0
  4  5  1  0  0  0  0
  4  6  1  0  0  0  0
  4  7  1  0  0  0  0
  7  8  1  0  0  0  0
  7  9  1  0  0  0  0
  7 10  1  0  0  0  0
 10 11  1  0  0  0  0
 10 12  1  0  0  0  0
 10 13  1  0  0  0  0
 13 14  1  0  0  0  0
 13 15  1  0  0  0  0
 13 16  1  0  0  0  0
M  END
> <VConfSearch Rank>
135

> <Conf_Id>
19

> <Delta U+W>
0.048

> <U+W>
-56.856

> <U>
8.276

> <W>
-65.132

> <W(PB)>
-67.031

> <W(SA)>
1.899

> <Valence>
6.513

> <Coulomb>
1.428

> <VdW>
0.335

> <VdW6>
-5.021

> <VdW12>
5.356

> <Bond>
0.092

> <Angle>
2.417

> <Pdih>
4.003

> <Idih>
0.001

> <Tether>
0.000

$$$$
VeraChem MOL file


 16 15  0  0  0  0  0  0  0  0999 V2000     
   18.2948   18.7934   23.8242 C   0  0  0  0  0  0  0  0  0  0  0  0
   18.3266   19.6388   24.6963 O   0  5  0  0  0  0  0  0  0  0  0  0
   18.3024   17.5990   24.0468 O   0  0  0  0  0  0  0  0  0  0  0  0
   18.2175   19.2591   22.3728 C   0  0  0  0  0  0  0  0  0  0  0  0
   17.4596   20.0498   22.3218 H   0  0  0  0  0  0  0  0  0  0  0  0
   17.8511   18.4286   21.7571 H   0  0  0  0  0  0  0  0  0  0  0  0
   19.5597   19.7923   21.8077 C   0  0  0  0  0  0  0  0  0  0  0  0
   19.3802   20.2304   20.8165 H   0  0  0  0  0  0  0  0  0  0  0  0
   19.9285   20.6040   22.4502 H   0  0  0  0  0  0  0  0  0  0  0  0
   20.6341   18.6897   21.6895 C   0  0  0  0  0  0  0  0  0  0  0  0
   20.2592   17.8732   21.0569 H   0  0  0  0  0  0  0  0  0  0  0  0
   20.8370   18.2577   22.6794 H   0  0  0  0  0  0  0  0  0  0  0  0
   21.9459   19.2387   21.0943 C   0  0  0  0  0  0  0  0  0  0  0  0
   21.7807   19.6468   20.0885 H   0  0  0  0  0  0  0  0  0  0  0  0
   22.6985   18.4432   21.0180 H   0  0  0  0  0  0  0  0  0  0  0  0
   22.3590   20.0369   21.7249 H   0  0  0  0  0  0  0  0  0  0  0  0
  1  2  1  0  0  0  0
  1  3  2  0  0  0  0
  1  4  1  0  0  0  0
  4  5  1  0  0  0  0
  4  6  1  0  0  0  0
  4  7  1  0  0  0  0
  7  8  1  0  0  0  0
  7  9  1  0  0  0  0
  7 10  1  0  0  0  0
 10 11  1  0  0  0  0
 10 12  1  0  0  0  0
 10 13  1  0  0  0  0
 13 14  1  0  0  0  0
 13 15  1  0  0  0  0
 13 16  1  0  0  0  0
M  END
> <VConfSearch Rank>
136

> <Conf_Id>
20

> <Delta U+W>
-0.010

> <U+W>
-56.914

> <U>
8.277

> <W>
-65.191

> <W(PB)>
-67.081

> <W(SA)>
1.890

> <Valence>
6.513

> <Coulomb>
1.429

> <VdW>
0.335

> <VdW6>
-5.021

> <VdW12>
5.356

> <Bond>
0.092

> <Angle>
2.417

> <Pdih>
4.002

> <Idih>
0.001

> <Tether>
0.000

$$$$
VeraChem MOL file


 16 15  0  0  0  0  0  0  0  0999 V2000     
   20.6688   17.4818   23.2438 C   0  0  0  0  0  0  0  0  0  0  0  0
   21.6311   16.8473   22.8589 O   0  5  0  0  0  0  0  0  0  0  0  0
   19.6460   16.9674   23.6507 O   0  0  0  0  0  0  0  0  0  0  0  0
   20.7657   19.0051   23.2472 C   0  0  0  0  0  0  0  0  0  0  0  0
   21.7001   19.2706   23.7555 H   0  0  0  0  0  0  0  0  0  0  0  0
   19.9529   19.4081   23.8622 H   0  0  0  0  0  0  0  0  0  0  0  0
   20.7517   19.6464   21.8326 C   0  0  0  0  0  0  0  0  0  0  0  0
   20.9057   20.7298   21.9268 H   0  0  0  0  0  0  0  0  0  0  0  0
   21.6087   19.2619   21.2625 H   0  0  0  0  0  0  0  0  0  0  0  0
   19.4573   19.3845   21.0264 C   0  0  0  0  0  0  0  0  0  0  0  0
   19.3101   18.3035   20.8951 H   0  0  0  0  0  0  0  0  0  0  0  0
   19.5787   19.8046   20.0185 H   0  0  0  0  0  0  0  0  0  0  0  0
   18.2005   20.0026   21.6754 C   0  0  0  0  0  0  0  0  0  0  0  0
   17.9706   19.5217   22.6347 H   0  0  0  0  0  0  0  0  0  0  0  0
   17.3282   19.8726   21.0219 H   0  0  0  0  0  0  0  0  0  0  0  0
   18.3356   21.0778   21.8503 H   0  0  0  0  0  0  0  0  0  0  0  0
  1  2  1  0  0  0  0
  1  3  2  0  0  0  0
  1  4  1  0  0  0  0
  4  5  1  0  0  0  0
  4  6  1  0  0  0  0
  4  7  1  0  0  0  0
  7  8  1  0  0  0  0
  7  9  1  0  0  0  0
  7 10  1  0  0  0  0
 10 11  1  0  0  0  0
 10 12  1  0  0  0  0
 10 13  1  0  0  0  0
 13 14  1  0  0  0  0
 13 15  1  0  0  0  0
 13 16  1  0  0  0  0
M  END
> <VConfSearch Rank>
137

> <Conf_Id>
37

> <Delta U+W>
1.063

> <U+W>
-55.841

> <U>
9.719

> <W>
-65.560

> <W(PB)>
-67.414

> <W(SA)>
1.854

> <Valence>
7.002

> <Coulomb>
2.402

> <VdW>
0.314

> <VdW6>
-5.861

> <VdW12>
6.175

> <Bond>
0.134

> <Angle>
2.733

> <Pdih>
4.133

> <Idih>
0.002

> <Tether>
0.000

$$$$
VeraChem MOL file


 16 15  0  0  0  0  0  0  0  0999 V2000     
   19.5825   17.3356   21.1392 C   0  0  0  0  0  0  0  0  0  0  0  0
   20.3496   16.7110   20.4334 O   0  5  0  0  0  0  0  0  0  0  0  0
   18.8613   16.8171   21.9682 O   0  0  0  0  0  0  0  0  0  0  0  0
   19.4975   18.8476   20.9479 C   0  0  0  0  0  0  0  0  0  0  0  0
   18.5924   19.2149   21.4449 H   0  0  0  0  0  0  0  0  0  0  0  0
   19.3597   19.0328   19.8762 H   0  0  0  0  0  0  0  0  0  0  0  0
   20.7482   19.6228   21.4453 C   0  0  0  0  0  0  0  0  0  0  0  0
   21.6272   19.2683   20.8894 H   0  0  0  0  0  0  0  0  0  0  0  0
   20.6351   20.6866   21.1964 H   0  0  0  0  0  0  0  0  0  0  0  0
   21.0251   19.4814   22.9610 C   0  0  0  0  0  0  0  0  0  0  0  0
   21.9686   19.9930   23.1962 H   0  0  0  0  0  0  0  0  0  0  0  0
   21.1750   18.4234   23.2172 H   0  0  0  0  0  0  0  0  0  0  0  0
   19.9046   20.0734   23.8423 C   0  0  0  0  0  0  0  0  0  0  0  0
   19.7104   21.1219   23.5815 H   0  0  0  0  0  0  0  0  0  0  0  0
   20.1892   20.0350   24.9017 H   0  0  0  0  0  0  0  0  0  0  0  0
   18.9698   19.5095   23.7296 H   0  0  0  0  0  0  0  0  0  0  0  0
  1  2  1  0  0  0  0
  1  3  2  0  0  0  0
  1  4  1  0  0  0  0
  4  5  1  0  0  0  0
  4  6  1  0  0  0  0
  4  7  1  0  0  0  0
  7  8  1  0  0  0  0
  7  9  1  0  0  0  0
  7 10  1  0  0  0  0
 10 11  1  0  0  0  0
 10 12  1  0  0  0  0
 10 13  1  0  0  0  0
 13 14  1  0  0  0  0
 13 15  1  0  0  0  0
 13 16  1  0  0  0  0
M  END
> <VConfSearch Rank>
138

> <Conf_Id>
39

> <Delta U+W>
1.129

> <U+W>
-55.775

> <U>
9.718

> <W>
-65.493

> <W(PB)>
-67.361

> <W(SA)>
1.869

> <Valence>
7.002

> <Coulomb>
2.402

> <VdW>
0.314

> <VdW6>
-5.861

> <VdW12>
6.175

> <Bond>
0.134

> <Angle>
2.734

> <Pdih>
4.133

> <Idih>
0.002

> <Tether>
0.000

$$$$
VeraChem MOL file


 16 15  0  0  0  0  0  0  0  0999 V2000     
   21.8184   18.9096   21.7521 C   0  0  0  0  0  0  0  0  0  0  0  0
   22.3134   19.9977   21.5333 O   0  5  0  0  0  0  0  0  0  0  0  0
   21.9363   17.9589   21.0042 O   0  0  0  0  0  0  0  0  0  0  0  0
   21.0878   18.7033   23.0778 C   0  0  0  0  0  0  0  0  0  0  0  0
   21.1417   19.6295   23.6628 H   0  0  0  0  0  0  0  0  0  0  0  0
   21.6595   17.9494   23.6314 H   0  0  0  0  0  0  0  0  0  0  0  0
   19.6122   18.2291   22.9564 C   0  0  0  0  0  0  0  0  0  0  0  0
   19.5367   17.4279   22.2081 H   0  0  0  0  0  0  0  0  0  0  0  0
   19.3216   17.7769   23.9142 H   0  0  0  0  0  0  0  0  0  0  0  0
   18.5959   19.3518   22.6370 C   0  0  0  0  0  0  0  0  0  0  0  0
   18.6759   20.1516   23.3862 H   0  0  0  0  0  0  0  0  0  0  0  0
   17.5818   18.9399   22.7329 H   0  0  0  0  0  0  0  0  0  0  0  0
   18.7493   19.9484   21.2225 C   0  0  0  0  0  0  0  0  0  0  0  0
   19.6824   20.5171   21.1279 H   0  0  0  0  0  0  0  0  0  0  0  0
   17.9212   20.6347   21.0034 H   0  0  0  0  0  0  0  0  0  0  0  0
   18.7472   19.1591   20.4594 H   0  0  0  0  0  0  0  0  0  0  0  0
  1  2  1  0  0  0  0
  1  3  2  0  0  0  0
  1  4  1  0  0  0  0
  4  5  1  0  0  0  0
  4  6  1  0  0  0  0
  4  7  1  0  0  0  0
  7  8  1  0  0  0  0
  7  9  1  0  0  0  0
  7 10  1  0  0  0  0
 10 11  1  0  0  0  0
 10 12  1  0  0  0  0
 10 13  1  0  0  0  0
 13 14  1  0  0  0  0
 13 15  1  0  0  0  0
 13 16  1  0  0  0  0
M  END
> <VConfSearch Rank>
139

> <Conf_Id>
47

> <Delta U+W>
2.301

> <U+W>
-54.603

> <U>
11.258

> <W>
-65.861

> <W(PB)>
-67.702

> <W(SA)>
1.841

> <Valence>
8.169

> <Coulomb>
2.735

> <VdW>
0.355

> <VdW6>
-6.245

> <VdW12>
6.600

> <Bond>
0.149

> <Angle>
3.168

> <Pdih>
4.840

> <Idih>
0.011

> <Tether>
0.000

$$$$
VeraChem MOL file


 16 15  0  0  0  0  0  0  0  0999 V2000     
   19.1939   17.4982   21.3121 C   0  0  0  0  0  0  0  0  0  0  0  0
   20.1175   16.7257   21.1467 O   0  5  0  0  0  0  0  0  0  0  0  0
   18.4122   17.8037   20.4332 O   0  0  0  0  0  0  0  0  0  0  0  0
   18.9478   18.0439   22.7176 C   0  0  0  0  0  0  0  0  0  0  0  0
   18.7364   17.1760   23.3531 H   0  0  0  0  0  0  0  0  0  0  0  0
   18.0372   18.6551   22.7087 H   0  0  0  0  0  0  0  0  0  0  0  0
   20.1279   18.8459   23.3350 C   0  0  0  0  0  0  0  0  0  0  0  0
   19.9916   18.8646   24.4247 H   0  0  0  0  0  0  0  0  0  0  0  0
   21.0742   18.3163   23.1572 H   0  0  0  0  0  0  0  0  0  0  0  0
   20.2393   20.3109   22.8482 C   0  0  0  0  0  0  0  0  0  0  0  0
   20.9950   20.8234   23.4594 H   0  0  0  0  0  0  0  0  0  0  0  0
   19.2908   20.8363   23.0260 H   0  0  0  0  0  0  0  0  0  0  0  0
   20.6375   20.4465   21.3638 C   0  0  0  0  0  0  0  0  0  0  0  0
   20.8367   21.4966   21.1141 H   0  0  0  0  0  0  0  0  0  0  0  0
   19.8361   20.0966   20.7017 H   0  0  0  0  0  0  0  0  0  0  0  0
   21.5441   19.8674   21.1444 H   0  0  0  0  0  0  0  0  0  0  0  0
  1  2  1  0  0  0  0
  1  3  2  0  0  0  0
  1  4  1  0  0  0  0
  4  5  1  0  0  0  0
  4  6  1  0  0  0  0
  4  7  1  0  0  0  0
  7  8  1  0  0  0  0
  7  9  1  0  0  0  0
  7 10  1  0  0  0  0
 10 11  1  0  0  0  0
 10 12  1  0  0  0  0
 10 13  1  0  0  0  0
 13 14  1  0  0  0  0
 13 15  1  0  0  0  0
 13 16  1  0  0  0  0
M  END
> <VConfSearch Rank>
140

> <Conf_Id>
45

> <Delta U+W>
2.303

> <U+W>
-54.601

> <U>
11.258

> <W>
-65.860

> <W(PB)>
-67.709

> <W(SA)>
1.849

> <Valence>
8.169

> <Coulomb>
2.735

> <VdW>
0.355

> <VdW6>
-6.245

> <VdW12>
6.600

> <Bond>
0.149

> <Angle>
3.168

> <Pdih>
4.840

> <Idih>
0.011

> <Tether>
0.000

$$$$
VeraChem MOL file


 16 15  0  0  0  0  0  0  0  0999 V2000     
   19.4268   20.6845   24.1298 C   0  0  0  0  0  0  0  0  0  0  0  0
   20.4342   20.3712   24.7337 O   0  5  0  0  0  0  0  0  0  0  0  0
   18.5997   21.4542   24.5757 O   0  0  0  0  0  0  0  0  0  0  0  0
   19.1593   20.0993   22.7420 C   0  0  0  0  0  0  0  0  0  0  0  0
   19.0508   20.9406   22.0474 H   0  0  0  0  0  0  0  0  0  0  0  0
   18.1892   19.5901   22.7830 H   0  0  0  0  0  0  0  0  0  0  0  0
   20.2423   19.1210   22.2142 C   0  0  0  0  0  0  0  0  0  0  0  0
   21.2129   19.6350   22.1806 H   0  0  0  0  0  0  0  0  0  0  0  0
   20.3503   18.2831   22.9169 H   0  0  0  0  0  0  0  0  0  0  0  0
   19.8923   18.5804   20.8118 C   0  0  0  0  0  0  0  0  0  0  0  0
   19.7857   19.4173   20.1077 H   0  0  0  0  0  0  0  0  0  0  0  0
   18.9227   18.0645   20.8445 H   0  0  0  0  0  0  0  0  0  0  0  0
   20.9714   17.6095   20.2932 C   0  0  0  0  0  0  0  0  0  0  0  0
   21.9467   18.1087   20.2206 H   0  0  0  0  0  0  0  0  0  0  0  0
   20.7074   17.2348   19.2957 H   0  0  0  0  0  0  0  0  0  0  0  0
   21.0772   16.7459   20.9628 H   0  0  0  0  0  0  0  0  0  0  0  0
  1  2  1  0  0  0  0
  1  3  2  0  0  0  0
  1  4  1  0  0  0  0
  4  5  1  0  0  0  0
  4  6  1  0  0  0  0
  4  7  1  0  0  0  0
  7  8  1  0  0  0  0
  7  9  1  0  0  0  0
  7 10  1  0  0  0  0
 10 11  1  0  0  0  0
 10 12  1  0  0  0  0
 10 13  1  0  0  0  0
 13 14  1  0  0  0  0
 13 15  1  0  0  0  0
 13 16  1  0  0  0  0
M  END
> <VConfSearch Rank>
141

> <Conf_Id>
0

> <Delta U+W>
0.000

> <U+W>
-56.904

> <U>
7.329

> <W>
-64.233

> <W(PB)>
-66.148

> <W(SA)>
1.915

> <Valence>
6.755

> <Coulomb>
-0.421

> <VdW>
0.995

> <VdW6>
-4.495

> <VdW12>
5.490

> <Bond>
0.106

> <Angle>
2.715

> <Pdih>
3.934

> <Idih>
0.000

> <Tether>
0.000

$$$$
VeraChem MOL file


 16 15  0  0  0  0  0  0  0  0999 V2000     
   20.4168   16.8553   20.4646 C   0  0  0  0  0  0  0  0  0  0  0  0
   21.1761   16.9813   19.5248 O   0  5  0  0  0  0  0  0  0  0  0  0
   20.2754   15.8173   21.0799 O   0  0  0  0  0  0  0  0  0  0  0  0
   19.6106   18.0711   20.9078 C   0  0  0  0  0  0  0  0  0  0  0  0
   18.6501   17.7181   21.3024 H   0  0  0  0  0  0  0  0  0  0  0  0
   19.3928   18.6778   20.0204 H   0  0  0  0  0  0  0  0  0  0  0  0
   20.3434   18.9251   21.9716 C   0  0  0  0  0  0  0  0  0  0  0  0
   20.5654   18.3009   22.8483 H   0  0  0  0  0  0  0  0  0  0  0  0
   21.3081   19.2606   21.5662 H   0  0  0  0  0  0  0  0  0  0  0  0
   19.5067   20.1479   22.4022 C   0  0  0  0  0  0  0  0  0  0  0  0
   18.5421   19.8128   22.8082 H   0  0  0  0  0  0  0  0  0  0  0  0
   19.2850   20.7727   21.5258 H   0  0  0  0  0  0  0  0  0  0  0  0
   20.2421   20.9931   23.4609 C   0  0  0  0  0  0  0  0  0  0  0  0
   21.1973   21.3678   23.0701 H   0  0  0  0  0  0  0  0  0  0  0  0
   20.4489   20.4008   24.3619 H   0  0  0  0  0  0  0  0  0  0  0  0
   19.6339   21.8580   23.7560 H   0  0  0  0  0  0  0  0  0  0  0  0
  1  2  1  0  0  0  0
  1  3  2  0  0  0  0
  1  4  1  0  0  0  0
  4  5  1  0  0  0  0
  4  6  1  0  0  0  0
  4  7  1  0  0  0  0
  7  8  1  0  0  0  0
  7  9  1  0  0  0  0
  7 10  1  0  0  0  0
 10 11  1  0  0  0  0
 10 12  1  0  0  0  0
 10 13  1  0  0  0  0
 13 14  1  0  0  0  0
 13 15  1  0  0  0  0
 13 16  1  0  0  0  0
M  END
> <VConfSearch Rank>
142

> <Conf_Id>
22

> <Delta U+W>
-1.185

> <U+W>
-58.089

> <U>
6.298

> <W>
-64.387

> <W(PB)>
-66.329

> <W(SA)>
1.942

> <Valence>
6.246

> <Coulomb>
-0.408

> <VdW>
0.460

> <VdW6>
-4.207

> <VdW12>
4.667

> <Bond>
0.072

> <Angle>
2.246

> <Pdih>
3.928

> <Idih>
0.001

> <Tether>
0.000

$$$$
VeraChem MOL file


 16 15  0  0  0  0  0  0  0  0999 V2000     
   22.1532   17.7994   21.6787 C   0  0  0  0  0  0  0  0  0  0  0  0
   23.1211   17.9575   22.3959 O   0  5  0  0  0  0  0  0  0  0  0  0
   22.2124   17.3065   20.5699 O   0  0  0  0  0  0  0  0  0  0  0  0
   20.7939   18.2632   22.1904 C   0  0  0  0  0  0  0  0  0  0  0  0
   20.7793   18.1379   23.2797 H   0  0  0  0  0  0  0  0  0  0  0  0
   20.0336   17.5916   21.7757 H   0  0  0  0  0  0  0  0  0  0  0  0
   20.4819   19.7359   21.8178 C   0  0  0  0  0  0  0  0  0  0  0  0
   21.3051   20.3718   22.1718 H   0  0  0  0  0  0  0  0  0  0  0  0
   20.4572   19.8399   20.7242 H   0  0  0  0  0  0  0  0  0  0  0  0
   19.1572   20.2561   22.4219 C   0  0  0  0  0  0  0  0  0  0  0  0
   19.0669   21.3292   22.2036 H   0  0  0  0  0  0  0  0  0  0  0  0
   19.1864   20.1630   23.5163 H   0  0  0  0  0  0  0  0  0  0  0  0
   17.9109   19.5298   21.8721 C   0  0  0  0  0  0  0  0  0  0  0  0
   17.9014   18.4724   22.1649 H   0  0  0  0  0  0  0  0  0  0  0  0
   17.8757   19.5847   20.7763 H   0  0  0  0  0  0  0  0  0  0  0  0
   16.9946   19.9908   22.2632 H   0  0  0  0  0  0  0  0  0  0  0  0
  1  2  1  0  0  0  0
  1  3  2  0  0  0  0
  1  4  1  0  0  0  0
  4  5  1  0  0  0  0
  4  6  1  0  0  0  0
  4  7  1  0  0  0  0
  7  8  1  0  0  0  0
  7  9  1  0  0  0  0
  7 10  1  0  0  0  0
 10 11  1  0  0  0  0
 10 12  1  0  0  0  0
 10 13  1  0  0  0  0
 13 14  1  0  0  0  0
 13 15  1  0  0  0  0
 13 16  1  0  0  0  0
M  END
> <VConfSearch Rank>
143

> <Conf_Id>
36

> <Delta U+W>
-0.427

> <U+W>
-57.331

> <U>
7.263

> <W>
-64.594

> <W(PB)>
-66.513

> <W(SA)>
1.920

> <Valence>
6.734

> <Coulomb>
-0.068

> <VdW>
0.598

> <VdW6>
-4.819

> <VdW12>
5.417

> <Bond>
0.107

> <Angle>
2.469

> <Pdih>
4.157

> <Idih>
0.001

> <Tether>
0.000

$$$$
VeraChem MOL file


 16 15  0  0  0  0  0  0  0  0999 V2000     
   17.6243   19.1962   20.8847 C   0  0  0  0  0  0  0  0  0  0  0  0
   17.4389   20.2450   20.3001 O   0  5  0  0  0  0  0  0  0  0  0  0
   16.7285   18.4477   21.2213 O   0  0  0  0  0  0  0  0  0  0  0  0
   19.0569   18.8078   21.2327 C   0  0  0  0  0  0  0  0  0  0  0  0
   19.7096   19.1928   20.4410 H   0  0  0  0  0  0  0  0  0  0  0  0
   19.1282   17.7138   21.2098 H   0  0  0  0  0  0  0  0  0  0  0  0
   19.5055   19.3435   22.6172 C   0  0  0  0  0  0  0  0  0  0  0  0
   19.4707   20.4417   22.6142 H   0  0  0  0  0  0  0  0  0  0  0  0
   18.7826   19.0118   23.3754 H   0  0  0  0  0  0  0  0  0  0  0  0
   20.9161   18.8669   23.0339 C   0  0  0  0  0  0  0  0  0  0  0  0
   20.9477   17.7687   23.0484 H   0  0  0  0  0  0  0  0  0  0  0  0
   21.1105   19.1969   24.0637 H   0  0  0  0  0  0  0  0  0  0  0  0
   22.0359   19.4065   22.1186 C   0  0  0  0  0  0  0  0  0  0  0  0
   21.9470   19.0095   21.0996 H   0  0  0  0  0  0  0  0  0  0  0  0
   23.0210   19.1137   22.5043 H   0  0  0  0  0  0  0  0  0  0  0  0
   22.0060   20.5027   22.0656 H   0  0  0  0  0  0  0  0  0  0  0  0
  1  2  1  0  0  0  0
  1  3  2  0  0  0  0
  1  4  1  0  0  0  0
  4  5  1  0  0  0  0
  4  6  1  0  0  0  0
  4  7  1  0  0  0  0
  7  8  1  0  0  0  0
  7  9  1  0  0  0  0
  7 10  1  0  0  0  0
 10 11  1  0  0  0  0
 10 12  1  0  0  0  0
 10 13  1  0  0  0  0
 13 14  1  0  0  0  0
 13 15  1  0  0  0  0
 13 16  1  0  0  0  0
M  END
> <VConfSearch Rank>
144

> <Conf_Id>
17

> <Delta U+W>
-0.432

> <U+W>
-57.336

> <U>
7.263

> <W>
-64.599

> <W(PB)>
-66.503

> <W(SA)>
1.904

> <Valence>
6.734

> <Coulomb>
-0.068

> <VdW>
0.598

> <VdW6>
-4.819

> <VdW12>
5.417

> <Bond>
0.107

> <Angle>
2.469

> <Pdih>
4.157

> <Idih>
0.001

> <Tether>
0.000

$$$$
VeraChem MOL file


 16 15  0  0  0  0  0  0  0  0999 V2000     
   19.1861   17.2847   23.2208 C   0  0  0  0  0  0  0  0  0  0  0  0
   19.8826   16.8527   24.1178 O   0  5  0  0  0  0  0  0  0  0  0  0
   18.0030   17.5303   23.3487 O   0  0  0  0  0  0  0  0  0  0  0  0
   19.8284   17.5074   21.8543 C   0  0  0  0  0  0  0  0  0  0  0  0
   19.0357   17.5532   21.0976 H   0  0  0  0  0  0  0  0  0  0  0  0
   20.4325   16.6210   21.6273 H   0  0  0  0  0  0  0  0  0  0  0  0
   20.7189   18.7745   21.7734 C   0  0  0  0  0  0  0  0  0  0  0  0
   21.4900   18.7282   22.5550 H   0  0  0  0  0  0  0  0  0  0  0  0
   21.2456   18.7790   20.8095 H   0  0  0  0  0  0  0  0  0  0  0  0
   19.9077   20.0805   21.9159 C   0  0  0  0  0  0  0  0  0  0  0  0
   19.3922   20.0964   22.8863 H   0  0  0  0  0  0  0  0  0  0  0  0
   19.1291   20.1195   21.1415 H   0  0  0  0  0  0  0  0  0  0  0  0
   20.8111   21.3240   21.7981 C   0  0  0  0  0  0  0  0  0  0  0  0
   21.5806   21.3256   22.5812 H   0  0  0  0  0  0  0  0  0  0  0  0
   20.2195   22.2429   21.9023 H   0  0  0  0  0  0  0  0  0  0  0  0
   21.3141   21.3535   20.8226 H   0  0  0  0  0  0  0  0  0  0  0  0
  1  2  1  0  0  0  0
  1  3  2  0  0  0  0
  1  4  1  0  0  0  0
  4  5  1  0  0  0  0
  4  6  1  0  0  0  0
  4  7  1  0  0  0  0
  7  8  1  0  0  0  0
  7  9  1  0  0  0  0
  7 10  1  0  0  0  0
 10 11  1  0  0  0  0
 10 12  1  0  0  0  0
 10 13  1  0  0  0  0
 13 14  1  0  0  0  0
 13 15  1  0  0  0  0
 13 16  1  0  0  0  0
M  END
> <VConfSearch Rank>
145

> <Conf_Id>
19

> <Delta U+W>
0.048

> <U+W>
-56.856

> <U>
8.276

> <W>
-65.132

> <W(PB)>
-67.031

> <W(SA)>
1.899

> <Valence>
6.513

> <Coulomb>
1.428

> <VdW>
0.335

> <VdW6>
-5.021

> <VdW12>
5.356

> <Bond>
0.092

> <Angle>
2.417

> <Pdih>
4.003

> <Idih>
0.001

> <Tether>
0.000

$$$$
VeraChem MOL file


 16 15  0  0  0  0  0  0  0  0999 V2000     
   21.9612   20.2325   22.3422 C   0  0  0  0  0  0  0  0  0  0  0  0
   22.0498   21.2779   21.7293 O   0  5  0  0  0  0  0  0  0  0  0  0
   22.8019   19.3564   22.2998 O   0  0  0  0  0  0  0  0  0  0  0  0
   20.7385   20.0206   23.2308 C   0  0  0  0  0  0  0  0  0  0  0  0
   20.5850   20.9430   23.8033 H   0  0  0  0  0  0  0  0  0  0  0  0
   20.9657   19.2307   23.9572 H   0  0  0  0  0  0  0  0  0  0  0  0
   19.4432   19.6741   22.4516 C   0  0  0  0  0  0  0  0  0  0  0  0
   18.5955   19.6773   23.1500 H   0  0  0  0  0  0  0  0  0  0  0  0
   19.2441   20.4591   21.7088 H   0  0  0  0  0  0  0  0  0  0  0  0
   19.5207   18.2997   21.7520 C   0  0  0  0  0  0  0  0  0  0  0  0
   19.7321   17.5175   22.4941 H   0  0  0  0  0  0  0  0  0  0  0  0
   20.3536   18.2916   21.0351 H   0  0  0  0  0  0  0  0  0  0  0  0
   18.2094   17.9654   21.0137 C   0  0  0  0  0  0  0  0  0  0  0  0
   17.3626   17.9323   21.7118 H   0  0  0  0  0  0  0  0  0  0  0  0
   18.2814   16.9868   20.5217 H   0  0  0  0  0  0  0  0  0  0  0  0
   17.9901   18.7167   20.2436 H   0  0  0  0  0  0  0  0  0  0  0  0
  1  2  1  0  0  0  0
  1  3  2  0  0  0  0
  1  4  1  0  0  0  0
  4  5  1  0  0  0  0
  4  6  1  0  0  0  0
  4  7  1  0  0  0  0
  7  8  1  0  0  0  0
  7  9  1  0  0  0  0
  7 10  1  0  0  0  0
 10 11  1  0  0  0  0
 10 12  1  0  0  0  0
 10 13  1  0  0  0  0
 13 14  1  0  0  0  0
 13 15  1  0  0  0  0
 13 16  1  0  0  0  0
M  END
> <VConfSearch Rank>
146

> <Conf_Id>
20

> <Delta U+W>
-0.010

> <U+W>
-56.914

> <U>
8.277

> <W>
-65.191

> <W(PB)>
-67.081

> <W(SA)>
1.890

> <Valence>
6.513

> <Coulomb>
1.429

> <VdW>
0.335

> <VdW6>
-5.021

> <VdW12>
5.356

> <Bond>
0.092

> <Angle>
2.417

> <Pdih>
4.002

> <Idih>
0.001

> <Tether>
0.000

$$$$
VeraChem MOL file


 16 15  0  0  0  0  0  0  0  0999 V2000     
   19.2730   20.9660   23.1795 C   0  0  0  0  0  0  0  0  0  0  0  0
   19.1687   21.0497   24.3874 O   0  5  0  0  0  0  0  0  0  0  0  0
   18.4395   21.3900   22.4038 O   0  0  0  0  0  0  0  0  0  0  0  0
   20.5350   20.3244   22.6089 C   0  0  0  0  0  0  0  0  0  0  0  0
   21.3925   20.8067   23.0925 H   0  0  0  0  0  0  0  0  0  0  0  0
   20.6026   20.5686   21.5426 H   0  0  0  0  0  0  0  0  0  0  0  0
   20.6213   18.7887   22.8255 C   0  0  0  0  0  0  0  0  0  0  0  0
   21.5911   18.4272   22.4579 H   0  0  0  0  0  0  0  0  0  0  0  0
   20.6051   18.5832   23.9048 H   0  0  0  0  0  0  0  0  0  0  0  0
   19.4875   17.9841   22.1465 C   0  0  0  0  0  0  0  0  0  0  0  0
   18.5124   18.3128   22.5320 H   0  0  0  0  0  0  0  0  0  0  0  0
   19.5898   16.9265   22.4259 H   0  0  0  0  0  0  0  0  0  0  0  0
   19.4995   18.0959   20.6071 C   0  0  0  0  0  0  0  0  0  0  0  0
   19.2770   19.1198   20.2806 H   0  0  0  0  0  0  0  0  0  0  0  0
   18.7400   17.4357   20.1687 H   0  0  0  0  0  0  0  0  0  0  0  0
   20.4765   17.8065   20.1985 H   0  0  0  0  0  0  0  0  0  0  0  0
  1  2  1  0  0  0  0
  1  3  2  0  0  0  0
  1  4  1  0  0  0  0
  4  5  1  0  0  0  0
  4  6  1  0  0  0  0
  4  7  1  0  0  0  0
  7  8  1  0  0  0  0
  7  9  1  0  0  0  0
  7 10  1  0  0  0  0
 10 11  1  0  0  0  0
 10 12  1  0  0  0  0
 10 13  1  0  0  0  0
 13 14  1  0  0  0  0
 13 15  1  0  0  0  0
 13 16  1  0  0  0  0
M  END
> <VConfSearch Rank>
147

> <Conf_Id>
37

> <Delta U+W>
1.063

> <U+W>
-55.841

> <U>
9.719

> <W>
-65.560

> <W(PB)>
-67.414

> <W(SA)>
1.854

> <Valence>
7.002

> <Coulomb>
2.402

> <VdW>
0.314

> <VdW6>
-5.861

> <VdW12>
6.175

> <Bond>
0.134

> <Angle>
2.733

> <Pdih>
4.133

> <Idih>
0.002

> <Tether>
0.000

$$$$
VeraChem MOL file


 16 15  0  0  0  0  0  0  0  0999 V2000     
   21.8702   18.0174   21.5699 C   0  0  0  0  0  0  0  0  0  0  0  0
   22.4800   18.2390   20.5424 O   0  5  0  0  0  0  0  0  0  0  0  0
   22.4089   17.8461   22.6454 O   0  0  0  0  0  0  0  0  0  0  0  0
   20.3490   17.9150   21.4962 C   0  0  0  0  0  0  0  0  0  0  0  0
   19.9824   17.4510   22.4190 H   0  0  0  0  0  0  0  0  0  0  0  0
   20.1086   17.2202   20.6830 H   0  0  0  0  0  0  0  0  0  0  0  0
   19.6320   19.2692   21.2420 C   0  0  0  0  0  0  0  0  0  0  0  0
   19.9824   19.6797   20.2848 H   0  0  0  0  0  0  0  0  0  0  0  0
   18.5548   19.0899   21.1242 H   0  0  0  0  0  0  0  0  0  0  0  0
   19.8538   20.3262   22.3500 C   0  0  0  0  0  0  0  0  0  0  0  0
   19.3793   21.2672   22.0395 H   0  0  0  0  0  0  0  0  0  0  0  0
   20.9266   20.5405   22.4538 H   0  0  0  0  0  0  0  0  0  0  0  0
   19.2758   19.9046   23.7178 C   0  0  0  0  0  0  0  0  0  0  0  0
   18.2111   19.6504   23.6343 H   0  0  0  0  0  0  0  0  0  0  0  0
   19.3728   20.7223   24.4436 H   0  0  0  0  0  0  0  0  0  0  0  0
   19.8087   19.0356   24.1243 H   0  0  0  0  0  0  0  0  0  0  0  0
  1  2  1  0  0  0  0
  1  3  2  0  0  0  0
  1  4  1  0  0  0  0
  4  5  1  0  0  0  0
  4  6  1  0  0  0  0
  4  7  1  0  0  0  0
  7  8  1  0  0  0  0
  7  9  1  0  0  0  0
  7 10  1  0  0  0  0
 10 11  1  0  0  0  0
 10 12  1  0  0  0  0
 10 13  1  0  0  0  0
 13 14  1  0  0  0  0
 13 15  1  0  0  0  0
 13 16  1  0  0  0  0
M  END
> <VConfSearch Rank>
148

> <Conf_Id>
39

> <Delta U+W>
1.129

> <U+W>
-55.775

> <U>
9.718

> <W>
-65.493

> <W(PB)>
-67.361

> <W(SA)>
1.869

> <Valence>
7.002

> <Coulomb>
2.402

> <VdW>
0.314

> <VdW6>
-5.861

> <VdW12>
6.175

> <Bond>
0.134

> <Angle>
2.734

> <Pdih>
4.133

> <Idih>
0.002

> <Tether>
0.000

$$$$
VeraChem MOL file


 16 15  0  0  0  0  0  0  0  0999 V2000     
   20.9208   20.5803   21.4405 C   0  0  0  0  0  0  0  0  0  0  0  0
   22.1190   20.3993   21.5316 O   0  5  0  0  0  0  0  0  0  0  0  0
   20.3787   21.6281   21.7328 O   0  0  0  0  0  0  0  0  0  0  0  0
   20.0664   19.4637   20.8431 C   0  0  0  0  0  0  0  0  0  0  0  0
   20.7178   18.6269   20.5629 H   0  0  0  0  0  0  0  0  0  0  0  0
   19.6477   19.8604   19.9109 H   0  0  0  0  0  0  0  0  0  0  0  0
   18.9039   18.9616   21.7451 C   0  0  0  0  0  0  0  0  0  0  0  0
   18.3775   19.8181   22.1888 H   0  0  0  0  0  0  0  0  0  0  0  0
   18.1708   18.4554   21.1027 H   0  0  0  0  0  0  0  0  0  0  0  0
   19.3275   17.9666   22.8524 C   0  0  0  0  0  0  0  0  0  0  0  0
   19.8551   17.1130   22.4050 H   0  0  0  0  0  0  0  0  0  0  0  0
   18.4199   17.5585   23.3182 H   0  0  0  0  0  0  0  0  0  0  0  0
   20.2022   18.5968   23.9561 C   0  0  0  0  0  0  0  0  0  0  0  0
   21.1921   18.8724   23.5726 H   0  0  0  0  0  0  0  0  0  0  0  0
   20.3533   17.8861   24.7788 H   0  0  0  0  0  0  0  0  0  0  0  0
   19.7285   19.4975   24.3682 H   0  0  0  0  0  0  0  0  0  0  0  0
  1  2  1  0  0  0  0
  1  3  2  0  0  0  0
  1  4  1  0  0  0  0
  4  5  1  0  0  0  0
  4  6  1  0  0  0  0
  4  7  1  0  0  0  0
  7  8  1  0  0  0  0
  7  9  1  0  0  0  0
  7 10  1  0  0  0  0
 10 11  1  0  0  0  0
 10 12  1  0  0  0  0
 10 13  1  0  0  0  0
 13 14  1  0  0  0  0
 13 15  1  0  0  0  0
 13 16  1  0  0  0  0
M  END
> <VConfSearch Rank>
149

> <Conf_Id>
47

> <Delta U+W>
2.301

> <U+W>
-54.603

> <U>
11.258

> <W>
-65.861

> <W(PB)>
-67.702

> <W(SA)>
1.841

> <Valence>
8.169

> <Coulomb>
2.735

> <VdW>
0.355

> <VdW6>
-6.245

> <VdW12>
6.600

> <Bond>
0.149

> <Angle>
3.168

> <Pdih>
4.840

> <Idih>
0.011

> <Tether>
0.000

$$$$
VeraChem MOL file


 16 15  0  0  0  0  0  0  0  0999 V2000     
   21.8134   18.8279   22.6494 C   0  0  0  0  0  0  0  0  0  0  0  0
   21.9292   17.8437   23.3529 O   0  5  0  0  0  0  0  0  0  0  0  0
   22.3767   19.8809   22.8749 O   0  0  0  0  0  0  0  0  0  0  0  0
   20.9904   18.7104   21.3678 C   0  0  0  0  0  0  0  0  0  0  0  0
   21.4862   17.9519   20.7509 H   0  0  0  0  0  0  0  0  0  0  0  0
   21.0547   19.6553   20.8145 H   0  0  0  0  0  0  0  0  0  0  0  0
   19.5030   18.3046   21.5681 C   0  0  0  0  0  0  0  0  0  0  0  0
   19.1293   17.9055   20.6155 H   0  0  0  0  0  0  0  0  0  0  0  0
   19.4341   17.4791   22.2902 H   0  0  0  0  0  0  0  0  0  0  0  0
   18.5681   19.4623   21.9938 C   0  0  0  0  0  0  0  0  0  0  0  0
   17.5302   19.1046   21.9497 H   0  0  0  0  0  0  0  0  0  0  0  0
   18.6414   20.2862   21.2705 H   0  0  0  0  0  0  0  0  0  0  0  0
   18.8417   19.9943   23.4159 C   0  0  0  0  0  0  0  0  0  0  0  0
   18.0655   20.7111   23.7136 H   0  0  0  0  0  0  0  0  0  0  0  0
   19.8069   20.5125   23.4698 H   0  0  0  0  0  0  0  0  0  0  0  0
   18.8475   19.1765   24.1484 H   0  0  0  0  0  0  0  0  0  0  0  0
  1  2  1  0  0  0  0
  1  3  2  0  0  0  0
  1  4  1  0  0  0  0
  4  5  1  0  0  0  0
  4  6  1  0  0  0  0
  4  7  1  0  0  0  0
  7  8  1  0  0  0  0
  7  9  1  0  0  0  0
  7 10  1  0  0  0  0
 10 11  1  0  0  0  0
 10 12  1  0  0  0  0
 10 13  1  0  0  0  0
 13 14  1  0  0  0  0
 13 15  1  0  0  0  0
 13 16  1  0  0  0  0
M  END
> <VConfSearch Rank>
150

> <Conf_Id>
45

> <Delta U+W>
2.303

> <U+W>
-54.601

> <U>
11.258

> <W>
-65.860

> <W(PB)>
-67.709

> <W(SA)>
1.849

> <Valence>
8.169

> <Coulomb>
2.735

> <VdW>
0.355

> <VdW6>
-6.245

> <VdW12>
6.600

> <Bond>
0.149

> <Angle>
3.168

> <Pdih>
4.840

> <Idih>
0.011

> <Tether>
0.000

$$$$
VeraChem MOL file


 16 15  0  0  0  0  0  0  0  0999 V2000     
   21.9685   19.0521   19.9981 C   0  0  0  0  0  0  0  0  0  0  0  0
   21.2881   19.5919   19.1476 O   0  5  0  0  0  0  0  0  0  0  0  0
   23.1134   18.6964   19.8030 O   0  0  0  0  0  0  0  0  0  0  0  0
   21.3847   18.7946   21.3883 C   0  0  0  0  0  0  0  0  0  0  0  0
   22.0370   19.2934   22.1148 H   0  0  0  0  0  0  0  0  0  0  0  0
   21.4569   17.7173   21.5792 H   0  0  0  0  0  0  0  0  0  0  0  0
   19.9197   19.2650   21.5906 C   0  0  0  0  0  0  0  0  0  0  0  0
   19.8525   20.3438   21.3927 H   0  0  0  0  0  0  0  0  0  0  0  0
   19.2718   18.7660   20.8566 H   0  0  0  0  0  0  0  0  0  0  0  0
   19.4133   18.9666   23.0174 C   0  0  0  0  0  0  0  0  0  0  0  0
   20.0593   19.4665   23.7524 H   0  0  0  0  0  0  0  0  0  0  0  0
   19.4783   17.8878   23.2160 H   0  0  0  0  0  0  0  0  0  0  0  0
   17.9580   19.4360   23.2120 C   0  0  0  0  0  0  0  0  0  0  0  0
   17.8695   20.5183   23.0500 H   0  0  0  0  0  0  0  0  0  0  0  0
   17.6137   19.2165   24.2311 H   0  0  0  0  0  0  0  0  0  0  0  0
   17.2842   18.9279   22.5097 H   0  0  0  0  0  0  0  0  0  0  0  0
  1  2  1  0  0  0  0
  1  3  2  0  0  0  0
  1  4  1  0  0  0  0
  4  5  1  0  0  0  0
  4  6  1  0  0  0  0
  4  7  1  0  0  0  0
  7  8  1  0  0  0  0
  7  9  1  0  0  0  0
  7 10  1  0  0  0  0
 10 11  1  0  0  0  0
 10 12  1  0  0  0  0
 10 13  1  0  0  0  0
 13 14  1  0  0  0  0
 13 15  1  0  0  0  0
 13 16  1  0  0  0  0
M  END
> <VConfSearch Rank>
151

> <Conf_Id>
0

> <Delta U+W>
0.000

> <U+W>
-56.904

> <U>
7.329

> <W>
-64.233

> <W(PB)>
-66.148

> <W(SA)>
1.915

> <Valence>
6.755

> <Coulomb>
-0.421

> <VdW>
0.995

> <VdW6>
-4.495

> <VdW12>
5.490

> <Bond>
0.106

> <Angle>
2.715

> <Pdih>
3.934

> <Idih>
0.000

> <Tether>
0.000

$$$$
VeraChem MOL file


 16 15  0  0  0  0  0  0  0  0999 V2000     
   20.7405   21.2884   23.4523 C   0  0  0  0  0  0  0  0  0  0  0  0
   20.1055   21.4206   24.4795 O   0  5  0  0  0  0  0  0  0  0  0  0
   21.8953   21.6439   23.3257 O   0  0  0  0  0  0  0  0  0  0  0  0
   20.0566   20.6238   22.2627 C   0  0  0  0  0  0  0  0  0  0  0  0
   20.4660   21.0629   21.3449 H   0  0  0  0  0  0  0  0  0  0  0  0
   18.9904   20.8787   22.2962 H   0  0  0  0  0  0  0  0  0  0  0  0
   20.2375   19.0859   22.2455 C   0  0  0  0  0  0  0  0  0  0  0  0
   21.3098   18.8467   22.2245 H   0  0  0  0  0  0  0  0  0  0  0  0
   19.8342   18.6625   23.1759 H   0  0  0  0  0  0  0  0  0  0  0  0
   19.5364   18.4389   21.0329 C   0  0  0  0  0  0  0  0  0  0  0  0
   19.9399   18.8615   20.1022 H   0  0  0  0  0  0  0  0  0  0  0  0
   18.4640   18.6773   21.0538 H   0  0  0  0  0  0  0  0  0  0  0  0
   19.7206   16.9085   21.0223 C   0  0  0  0  0  0  0  0  0  0  0  0
   19.2974   16.4556   21.9285 H   0  0  0  0  0  0  0  0  0  0  0  0
   20.7843   16.6412   20.9699 H   0  0  0  0  0  0  0  0  0  0  0  0
   19.2164   16.4643   20.1542 H   0  0  0  0  0  0  0  0  0  0  0  0
  1  2  1  0  0  0  0
  1  3  2  0  0  0  0
  1  4  1  0  0  0  0
  4  5  1  0  0  0  0
  4  6  1  0  0  0  0
  4  7  1  0  0  0  0
  7  8  1  0  0  0  0
  7  9  1  0  0  0  0
  7 10  1  0  0  0  0
 10 11  1  0  0  0  0
 10 12  1  0  0  0  0
 10 13  1  0  0  0  0
 13 14  1  0  0  0  0
 13 15  1  0  0  0  0
 13 16  1  0  0  0  0
M  END
> <VConfSearch Rank>
152

> <Conf_Id>
22

> <Delta U+W>
-1.185

> <U+W>
-58.089

> <U>
6.298

> <W>
-64.387

> <W(PB)>
-66.329

> <W(SA)>
1.942

> <Valence>
6.246

> <Coulomb>
-0.408

> <VdW>
0.460

> <VdW6>
-4.207

> <VdW12>
4.667

> <Bond>
0.072

> <Angle>
2.246

> <Pdih>
3.928

> <Idih>
0.001

> <Tether>
0.000

$$$$
VeraChem MOL file


 16 15  0  0  0  0  0  0  0  0999 V2000     
   18.6142   20.7846   20.5091 C   0  0  0  0  0  0  0  0  0  0  0  0
   17.4119   20.9204   20.6191 O   0  5  0  0  0  0  0  0  0  0  0  0
   19.2357   21.0889   19.5106 O   0  0  0  0  0  0  0  0  0  0  0  0
   19.3812   20.1810   21.6804 C   0  0  0  0  0  0  0  0  0  0  0  0
   18.8785   20.4811   22.6076 H   0  0  0  0  0  0  0  0  0  0  0  0
   20.3809   20.6301   21.6925 H   0  0  0  0  0  0  0  0  0  0  0  0
   19.4793   18.6353   21.6020 C   0  0  0  0  0  0  0  0  0  0  0  0
   18.4660   18.2217   21.5036 H   0  0  0  0  0  0  0  0  0  0  0  0
   20.0219   18.3481   20.6908 H   0  0  0  0  0  0  0  0  0  0  0  0
   20.1579   17.9983   22.8366 C   0  0  0  0  0  0  0  0  0  0  0  0
   20.0886   16.9050   22.7529 H   0  0  0  0  0  0  0  0  0  0  0  0
   19.6085   18.2758   23.7468 H   0  0  0  0  0  0  0  0  0  0  0  0
   21.6429   18.3928   22.9860 C   0  0  0  0  0  0  0  0  0  0  0  0
   21.7544   19.4658   23.1861 H   0  0  0  0  0  0  0  0  0  0  0  0
   22.2071   18.1511   22.0758 H   0  0  0  0  0  0  0  0  0  0  0  0
   22.1018   17.8496   23.8223 H   0  0  0  0  0  0  0  0  0  0  0  0
  1  2  1  0  0  0  0
  1  3  2  0  0  0  0
  1  4  1  0  0  0  0
  4  5  1  0  0  0  0
  4  6  1  0  0  0  0
  4  7  1  0  0  0  0
  7  8  1  0  0  0  0
  7  9  1  0  0  0  0
  7 10  1  0  0  0  0
 10 11  1  0  0  0  0
 10 12  1  0  0  0  0
 10 13  1  0  0  0  0
 13 14  1  0  0  0  0
 13 15  1  0  0  0  0
 13 16  1  0  0  0  0
M  END
> <VConfSearch Rank>
153

> <Conf_Id>
36

> <Delta U+W>
-0.427

> <U+W>
-57.331

> <U>
7.263

> <W>
-64.594

> <W(PB)>
-66.513

> <W(SA)>
1.920

> <Valence>
6.734

> <Coulomb>
-0.068

> <VdW>
0.598

> <VdW6>
-4.819

> <VdW12>
5.417

> <Bond>
0.107

> <Angle>
2.469

> <Pdih>
4.157

> <Idih>
0.001

> <Tether>
0.000

$$$$
VeraChem MOL file


 16 15  0  0  0  0  0  0  0  0999 V2000     
   20.9289   21.2886   23.0661 C   0  0  0  0  0  0  0  0  0  0  0  0
   20.4669   21.4696   24.1750 O   0  5  0  0  0  0  0  0  0  0  0  0
   21.4640   22.1607   22.4110 O   0  0  0  0  0  0  0  0  0  0  0  0
   20.8132   19.8967   22.4547 C   0  0  0  0  0  0  0  0  0  0  0  0
   20.8716   19.1672   23.2706 H   0  0  0  0  0  0  0  0  0  0  0  0
   21.6854   19.7343   21.8101 H   0  0  0  0  0  0  0  0  0  0  0  0
   19.5058   19.7033   21.6434 C   0  0  0  0  0  0  0  0  0  0  0  0
   18.6400   19.8261   22.3086 H   0  0  0  0  0  0  0  0  0  0  0  0
   19.4355   20.5013   20.8913 H   0  0  0  0  0  0  0  0  0  0  0  0
   19.4233   18.3361   20.9260 C   0  0  0  0  0  0  0  0  0  0  0  0
   20.2830   18.2181   20.2519 H   0  0  0  0  0  0  0  0  0  0  0  0
   18.5266   18.3240   20.2911 H   0  0  0  0  0  0  0  0  0  0  0  0
   19.3596   17.1404   21.9003 C   0  0  0  0  0  0  0  0  0  0  0  0
   20.2869   17.0448   22.4788 H   0  0  0  0  0  0  0  0  0  0  0  0
   19.2146   16.2029   21.3479 H   0  0  0  0  0  0  0  0  0  0  0  0
   18.5240   17.2509   22.6037 H   0  0  0  0  0  0  0  0  0  0  0  0
  1  2  1  0  0  0  0
  1  3  2  0  0  0  0
  1  4  1  0  0  0  0
  4  5  1  0  0  0  0
  4  6  1  0  0  0  0
  4  7  1  0  0  0  0
  7  8  1  0  0  0  0
  7  9  1  0  0  0  0
  7 10  1  0  0  0  0
 10 11  1  0  0  0  0
 10 12  1  0  0  0  0
 10 13  1  0  0  0  0
 13 14  1  0  0  0  0
 13 15  1  0  0  0  0
 13 16  1  0  0  0  0
M  END
> <VConfSearch Rank>
154

> <Conf_Id>
17

> <Delta U+W>
-0.432

> <U+W>
-57.336

> <U>
7.263

> <W>
-64.599

> <W(PB)>
-66.503

> <W(SA)>
1.904

> <Valence>
6.734

> <Coulomb>
-0.068

> <VdW>
0.598

> <VdW6>
-4.819

> <VdW12>
5.417

> <Bond>
0.107

> <Angle>
2.469

> <Pdih>
4.157

> <Idih>
0.001

> <Tether>
0.000

$$$$
VeraChem MOL file


 16 15  0  0  0  0  0  0  0  0999 V2000     
   21.8463   19.6000   23.6611 C   0  0  0  0  0  0  0  0  0  0  0  0
   22.8216   18.8849   23.5437 O   0  5  0  0  0  0  0  0  0  0  0  0
   21.9085   20.8099   23.7539 O   0  0  0  0  0  0  0  0  0  0  0  0
   20.4718   18.9389   23.7189 C   0  0  0  0  0  0  0  0  0  0  0  0
   19.7613   19.6457   24.1648 H   0  0  0  0  0  0  0  0  0  0  0  0
   20.5457   18.0878   24.4062 H   0  0  0  0  0  0  0  0  0  0  0  0
   19.9476   18.4493   22.3440 C   0  0  0  0  0  0  0  0  0  0  0  0
   20.6821   17.7650   21.8969 H   0  0  0  0  0  0  0  0  0  0  0  0
   19.0282   17.8687   22.4993 H   0  0  0  0  0  0  0  0  0  0  0  0
   19.6564   19.6123   21.3710 C   0  0  0  0  0  0  0  0  0  0  0  0
   20.5748   20.1887   21.1919 H   0  0  0  0  0  0  0  0  0  0  0  0
   18.9313   20.3022   21.8245 H   0  0  0  0  0  0  0  0  0  0  0  0
   19.1052   19.1005   20.0255 C   0  0  0  0  0  0  0  0  0  0  0  0
   19.8249   18.4317   19.5355 H   0  0  0  0  0  0  0  0  0  0  0  0
   18.9045   19.9389   19.3458 H   0  0  0  0  0  0  0  0  0  0  0  0
   18.1669   18.5487   20.1693 H   0  0  0  0  0  0  0  0  0  0  0  0
  1  2  1  0  0  0  0
  1  3  2  0  0  0  0
  1  4  1  0  0  0  0
  4  5  1  0  0  0  0
  4  6  1  0  0  0  0
  4  7  1  0  0  0  0
  7  8  1  0  0  0  0
  7  9  1  0  0  0  0
  7 10  1  0  0  0  0
 10 11  1  0  0  0  0
 10 12  1  0  0  0  0
 10 13  1  0  0  0  0
 13 14  1  0  0  0  0
 13 15  1  0  0  0  0
 13 16  1  0  0  0  0
M  END
> <VConfSearch Rank>
155

> <Conf_Id>
19

> <Delta U+W>
0.048

> <U+W>
-56.856

> <U>
8.276

> <W>
-65.132

> <W(PB)>
-67.031

> <W(SA)>
1.899

> <Valence>
6.513

> <Coulomb>
1.428

> <VdW>
0.335

> <VdW6>
-5.021

> <VdW12>
5.356

> <Bond>
0.092

> <Angle>
2.417

> <Pdih>
4.003

> <Idih>
0.001

> <Tether>
0.000

$$$$
VeraChem MOL file


 16 15  0  0  0  0  0  0  0  0999 V2000     
   20.7836   21.0179   23.2372 C   0  0  0  0  0  0  0  0  0  0  0  0
   19.9532   21.6948   23.8105 O   0  5  0  0  0  0  0  0  0  0  0  0
   21.6411   21.4801   22.5111 O   0  0  0  0  0  0  0  0  0  0  0  0
   20.7607   19.5083   23.4612 C   0  0  0  0  0  0  0  0  0  0  0  0
   20.6429   19.3380   24.5379 H   0  0  0  0  0  0  0  0  0  0  0  0
   21.7382   19.0974   23.1803 H   0  0  0  0  0  0  0  0  0  0  0  0
   19.6310   18.7725   22.6947 C   0  0  0  0  0  0  0  0  0  0  0  0
   19.6033   17.7240   23.0208 H   0  0  0  0  0  0  0  0  0  0  0  0
   18.6612   19.2134   22.9642 H   0  0  0  0  0  0  0  0  0  0  0  0
   19.8214   18.8240   21.1632 C   0  0  0  0  0  0  0  0  0  0  0  0
   20.7968   18.3942   20.8963 H   0  0  0  0  0  0  0  0  0  0  0  0
   19.8301   19.8688   20.8225 H   0  0  0  0  0  0  0  0  0  0  0  0
   18.7044   18.0573   20.4277 C   0  0  0  0  0  0  0  0  0  0  0  0
   18.6934   16.9998   20.7228 H   0  0  0  0  0  0  0  0  0  0  0  0
   18.8540   18.1044   19.3412 H   0  0  0  0  0  0  0  0  0  0  0  0
   17.7195   18.4868   20.6533 H   0  0  0  0  0  0  0  0  0  0  0  0
  1  2  1  0  0  0  0
  1  3  2  0  0  0  0
  1  4  1  0  0  0  0
  4  5  1  0  0  0  0
  4  6  1  0  0  0  0
  4  7  1  0  0  0  0
  7  8  1  0  0  0  0
  7  9  1  0  0  0  0
  7 10  1  0  0  0  0
 10 11  1  0  0  0  0
 10 12  1  0  0  0  0
 10 13  1  0  0  0  0
 13 14  1  0  0  0  0
 13 15  1  0  0  0  0
 13 16  1  0  0  0  0
M  END
> <VConfSearch Rank>
156

> <Conf_Id>
20

> <Delta U+W>
-0.010

> <U+W>
-56.914

> <U>
8.277

> <W>
-65.191

> <W(PB)>
-67.081

> <W(SA)>
1.890

> <Valence>
6.513

> <Coulomb>
1.429

> <VdW>
0.335

> <VdW6>
-5.021

> <VdW12>
5.356

> <Bond>
0.092

> <Angle>
2.417

> <Pdih>
4.002

> <Idih>
0.001

> <Tether>
0.000

$$$$
VeraChem MOL file


 16 15  0  0  0  0  0  0  0  0999 V2000     
   19.5577   19.1341   24.2996 C   0  0  0  0  0  0  0  0  0  0  0  0
   18.8278   19.9158   24.8766 O   0  5  0  0  0  0  0  0  0  0  0  0
   20.6776   18.8567   24.6807 O   0  0  0  0  0  0  0  0  0  0  0  0
   19.0241   18.4399   23.0494 C   0  0  0  0  0  0  0  0  0  0  0  0
   18.0433   18.0210   23.3033 H   0  0  0  0  0  0  0  0  0  0  0  0
   19.6736   17.5886   22.8153 H   0  0  0  0  0  0  0  0  0  0  0  0
   18.8792   19.3734   21.8164 C   0  0  0  0  0  0  0  0  0  0  0  0
   18.4165   18.8130   20.9928 H   0  0  0  0  0  0  0  0  0  0  0  0
   18.1812   20.1839   22.0678 H   0  0  0  0  0  0  0  0  0  0  0  0
   20.2093   19.9934   21.3260 C   0  0  0  0  0  0  0  0  0  0  0  0
   20.6655   20.5861   22.1311 H   0  0  0  0  0  0  0  0  0  0  0  0
   19.9909   20.6963   20.5104 H   0  0  0  0  0  0  0  0  0  0  0  0
   21.2207   18.9427   20.8205 C   0  0  0  0  0  0  0  0  0  0  0  0
   21.5614   18.2932   21.6369 H   0  0  0  0  0  0  0  0  0  0  0  0
   22.1058   19.4350   20.3971 H   0  0  0  0  0  0  0  0  0  0  0  0
   20.7770   18.3127   20.0386 H   0  0  0  0  0  0  0  0  0  0  0  0
  1  2  1  0  0  0  0
  1  3  2  0  0  0  0
  1  4  1  0  0  0  0
  4  5  1  0  0  0  0
  4  6  1  0  0  0  0
  4  7  1  0  0  0  0
  7  8  1  0  0  0  0
  7  9  1  0  0  0  0
  7 10  1  0  0  0  0
 10 11  1  0  0  0  0
 10 12  1  0  0  0  0
 10 13  1  0  0  0  0
 13 14  1  0  0  0  0
 13 15  1  0  0  0  0
 13 16  1  0  0  0  0
M  END
> <VConfSearch Rank>
157

> <Conf_Id>
37

> <Delta U+W>
1.063

> <U+W>
-55.841

> <U>
9.719

> <W>
-65.560

> <W(PB)>
-67.414

> <W(SA)>
1.854

> <Valence>
7.002

> <Coulomb>
2.402

> <VdW>
0.314

> <VdW6>
-5.861

> <VdW12>
6.175

> <Bond>
0.134

> <Angle>
2.733

> <Pdih>
4.133

> <Idih>
0.002

> <Tether>
0.000

$$$$
VeraChem MOL file


 16 15  0  0  0  0  0  0  0  0999 V2000     
   18.3376   19.5913   21.0907 C   0  0  0  0  0  0  0  0  0  0  0  0
   17.2855   19.8633   21.6346 O   0  5  0  0  0  0  0  0  0  0  0  0
   18.7935   20.2236   20.1587 O   0  0  0  0  0  0  0  0  0  0  0  0
   19.1080   18.3695   21.5842 C   0  0  0  0  0  0  0  0  0  0  0  0
   19.8646   18.1050   20.8366 H   0  0  0  0  0  0  0  0  0  0  0  0
   18.4015   17.5319   21.6200 H   0  0  0  0  0  0  0  0  0  0  0  0
   19.7597   18.5506   22.9824 C   0  0  0  0  0  0  0  0  0  0  0  0
   18.9688   18.7608   23.7157 H   0  0  0  0  0  0  0  0  0  0  0  0
   20.2208   17.6025   23.2904 H   0  0  0  0  0  0  0  0  0  0  0  0
   20.8178   19.6773   23.0518 C   0  0  0  0  0  0  0  0  0  0  0  0
   21.1557   19.7799   24.0922 H   0  0  0  0  0  0  0  0  0  0  0  0
   20.3599   20.6384   22.7794 H   0  0  0  0  0  0  0  0  0  0  0  0
   22.0452   19.4159   22.1532 C   0  0  0  0  0  0  0  0  0  0  0  0
   22.5010   18.4437   22.3815 H   0  0  0  0  0  0  0  0  0  0  0  0
   22.8062   20.1916   22.3082 H   0  0  0  0  0  0  0  0  0  0  0  0
   21.7705   19.4287   21.0907 H   0  0  0  0  0  0  0  0  0  0  0  0
  1  2  1  0  0  0  0
  1  3  2  0  0  0  0
  1  4  1  0  0  0  0
  4  5  1  0  0  0  0
  4  6  1  0  0  0  0
  4  7  1  0  0  0  0
  7  8  1  0  0  0  0
  7  9  1  0  0  0  0
  7 10  1  0  0  0  0
 10 11  1  0  0  0  0
 10 12  1  0  0  0  0
 10 13  1  0  0  0  0
 13 14  1  0  0  0  0
 13 15  1  0  0  0  0
 13 16  1  0  0  0  0
M  END
> <VConfSearch Rank>
158

> <Conf_Id>
39

> <Delta U+W>
1.129

> <U+W>
-55.775

> <U>
9.718

> <W>
-65.493

> <W(PB)>
-67.361

> <W(SA)>
1.869

> <Valence>
7.002

> <Coulomb>
2.402

> <VdW>
0.314

> <VdW6>
-5.861

> <VdW12>
6.175

> <Bond>
0.134

> <Angle>
2.734

> <Pdih>
4.133

> <Idih>
0.002

> <Tether>
0.000

$$$$
VeraChem MOL file


 16 15  0  0  0  0  0  0  0  0999 V2000     
   18.1524   18.1723   22.5964 C   0  0  0  0  0  0  0  0  0  0  0  0
   17.6653   18.5232   23.6531 O   0  5  0  0  0  0  0  0  0  0  0  0
   18.2502   17.0088   22.2590 O   0  0  0  0  0  0  0  0  0  0  0  0
   18.5803   19.2532   21.6055 C   0  0  0  0  0  0  0  0  0  0  0  0
   18.3525   20.2380   22.0312 H   0  0  0  0  0  0  0  0  0  0  0  0
   17.9379   19.1366   20.7248 H   0  0  0  0  0  0  0  0  0  0  0  0
   20.0676   19.1922   21.1568 C   0  0  0  0  0  0  0  0  0  0  0  0
   20.3464   18.1551   20.9244 H   0  0  0  0  0  0  0  0  0  0  0  0
   20.1605   19.7490   20.2146 H   0  0  0  0  0  0  0  0  0  0  0  0
   21.0729   19.7995   22.1648 C   0  0  0  0  0  0  0  0  0  0  0  0
   20.7896   20.8356   22.3961 H   0  0  0  0  0  0  0  0  0  0  0  0
   22.0595   19.8496   21.6839 H   0  0  0  0  0  0  0  0  0  0  0  0
   21.2076   18.9939   23.4737 C   0  0  0  0  0  0  0  0  0  0  0  0
   20.2919   19.0520   24.0746 H   0  0  0  0  0  0  0  0  0  0  0  0
   22.0290   19.3893   24.0851 H   0  0  0  0  0  0  0  0  0  0  0  0
   21.4177   17.9365   23.2659 H   0  0  0  0  0  0  0  0  0  0  0  0
  1  2  1  0  0  0  0
  1  3  2  0  0  0  0
  1  4  1  0  0  0  0
  4  5  1  0  0  0  0
  4  6  1  0  0  0  0
  4  7  1  0  0  0  0
  7  8  1  0  0  0  0
  7  9  1  0  0  0  0
  7 10  1  0  0  0  0
 10 11  1  0  0  0  0
 10 12  1  0  0  0  0
 10 13  1  0  0  0  0
 13 14  1  0  0  0  0
 13 15  1  0  0  0  0
 13 16  1  0  0  0  0
M  END
> <VConfSearch Rank>
159

> <Conf_Id>
47

> <Delta U+W>
2.301

> <U+W>
-54.603

> <U>
11.258

> <W>
-65.861

> <W(PB)>
-67.702

> <W(SA)>
1.841

> <Valence>
8.169

> <Coulomb>
2.735

> <VdW>
0.355

> <VdW6>
-6.245

> <VdW12>
6.600

> <Bond>
0.149

> <Angle>
3.168

> <Pdih>
4.840

> <Idih>
0.011

> <Tether>
0.000

$$$$
VeraChem MOL file


 16 15  0  0  0  0  0  0  0  0999 V2000     
   19.1424   20.9283   21.8813 C   0  0  0  0  0  0  0  0  0  0  0  0
   19.6916   21.7313   22.6098 O   0  5  0  0  0  0  0  0  0  0  0  0
   17.9392   20.8904   21.7148 O   0  0  0  0  0  0  0  0  0  0  0  0
   20.0139   19.9767   21.0637 C   0  0  0  0  0  0  0  0  0  0  0  0
   20.6314   20.6061   20.4123 H   0  0  0  0  0  0  0  0  0  0  0  0
   19.3706   19.3806   20.4051 H   0  0  0  0  0  0  0  0  0  0  0  0
   20.9423   19.0466   21.8943 C   0  0  0  0  0  0  0  0  0  0  0  0
   21.7474   18.6949   21.2351 H   0  0  0  0  0  0  0  0  0  0  0  0
   21.4332   19.6224   22.6912 H   0  0  0  0  0  0  0  0  0  0  0  0
   20.2437   17.8013   22.4917 C   0  0  0  0  0  0  0  0  0  0  0  0
   21.0133   17.1411   22.9151 H   0  0  0  0  0  0  0  0  0  0  0  0
   19.7527   17.2295   21.6923 H   0  0  0  0  0  0  0  0  0  0  0  0
   19.2201   18.1309   23.5980 C   0  0  0  0  0  0  0  0  0  0  0  0
   18.8632   17.2103   24.0775 H   0  0  0  0  0  0  0  0  0  0  0  0
   18.3447   18.6508   23.1902 H   0  0  0  0  0  0  0  0  0  0  0  0
   19.6685   18.7657   24.3735 H   0  0  0  0  0  0  0  0  0  0  0  0
  1  2  1  0  0  0  0
  1  3  2  0  0  0  0
  1  4  1  0  0  0  0
  4  5  1  0  0  0  0
  4  6  1  0  0  0  0
  4  7  1  0  0  0  0
  7  8  1  0  0  0  0
  7  9  1  0  0  0  0
  7 10  1  0  0  0  0
 10 11  1  0  0  0  0
 10 12  1  0  0  0  0
 10 13  1  0  0  0  0
 13 14  1  0  0  0  0
 13 15  1  0  0  0  0
 13 16  1  0  0  0  0
M  END
> <VConfSearch Rank>
160

> <Conf_Id>
45

> <Delta U+W>
2.303

> <U+W>
-54.601

> <U>
11.258

> <W>
-65.860

> <W(PB)>
-67.709

> <W(SA)>
1.849

> <Valence>
8.169

> <Coulomb>
2.735

> <VdW>
0.355

> <VdW6>
-6.245

> <VdW12>
6.600

> <Bond>
0.149

> <Angle>
3.168

> <Pdih>
4.840

> <Idih>
0.011

> <Tether>
0.000

$$$$
VeraChem MOL file


 16 15  0  0  0  0  0  0  0  0999 V2000     
   18.1002   17.8889   20.3494 C   0  0  0  0  0  0  0  0  0  0  0  0
   18.2942   18.6075   19.3884 O   0  5  0  0  0  0  0  0  0  0  0  0
   17.2790   16.9940   20.3521 O   0  0  0  0  0  0  0  0  0  0  0  0
   18.9115   18.0959   21.6296 C   0  0  0  0  0  0  0  0  0  0  0  0
   19.4215   17.1507   21.8503 H   0  0  0  0  0  0  0  0  0  0  0  0
   18.1988   18.2734   22.4436 H   0  0  0  0  0  0  0  0  0  0  0  0
   19.9473   19.2505   21.5796 C   0  0  0  0  0  0  0  0  0  0  0  0
   20.6553   19.0699   20.7589 H   0  0  0  0  0  0  0  0  0  0  0  0
   19.4313   20.1937   21.3528 H   0  0  0  0  0  0  0  0  0  0  0  0
   20.7182   19.3873   22.9094 C   0  0  0  0  0  0  0  0  0  0  0  0
   21.2362   18.4451   23.1365 H   0  0  0  0  0  0  0  0  0  0  0  0
   20.0114   19.5696   23.7308 H   0  0  0  0  0  0  0  0  0  0  0  0
   21.7453   20.5354   22.8535 C   0  0  0  0  0  0  0  0  0  0  0  0
   22.4841   20.3631   22.0599 H   0  0  0  0  0  0  0  0  0  0  0  0
   22.2843   20.6190   23.8062 H   0  0  0  0  0  0  0  0  0  0  0  0
   21.2504   21.4959   22.6586 H   0  0  0  0  0  0  0  0  0  0  0  0
  1  2  1  0  0  0  0
  1  3  2  0  0  0  0
  1  4  1  0  0  0  0
  4  5  1  0  0  0  0
  4  6  1  0  0  0  0
  4  7  1  0  0  0  0
  7  8  1  0  0  0  0
  7  9  1  0  0  0  0
  7 10  1  0  0  0  0
 10 11  1  0  0  0  0
 10 12  1  0  0  0  0
 10 13  1  0  0  0  0
 13 14  1  0  0  0  0
 13 15  1  0  0  0  0
 13 16  1  0  0  0  0
M  END
> <VConfSearch Rank>
161

> <Conf_Id>
0

> <Delta U+W>
0.000

> <U+W>
-56.904

> <U>
7.329

> <W>
-64.233

> <W(PB)>
-66.148

> <W(SA)>
1.915

> <Valence>
6.755

> <Coulomb>
-0.421

> <VdW>
0.995

> <VdW6>
-4.495

> <VdW12>
5.490

> <Bond>
0.106

> <Angle>
2.715

> <Pdih>
3.934

> <Idih>
0.000

> <Tether>
0.000

$$$$
VeraChem MOL file


 16 15  0  0  0  0  0  0  0  0999 V2000     
   22.6408   19.8143   21.4842 C   0  0  0  0  0  0  0  0  0  0  0  0
   23.3527   18.9017   21.1151 O   0  5  0  0  0  0  0  0  0  0  0  0
   22.8101   20.9725   21.1587 O   0  0  0  0  0  0  0  0  0  0  0  0
   21.4598   19.4858   22.3907 C   0  0  0  0  0  0  0  0  0  0  0  0
   21.2932   20.3407   23.0572 H   0  0  0  0  0  0  0  0  0  0  0  0
   21.7405   18.6334   23.0211 H   0  0  0  0  0  0  0  0  0  0  0  0
   20.1663   19.1636   21.6025 C   0  0  0  0  0  0  0  0  0  0  0  0
   19.9052   20.0213   20.9670 H   0  0  0  0  0  0  0  0  0  0  0  0
   20.3525   18.3139   20.9309 H   0  0  0  0  0  0  0  0  0  0  0  0
   18.9878   18.8349   22.5425 C   0  0  0  0  0  0  0  0  0  0  0  0
   18.8009   19.6846   23.2138 H   0  0  0  0  0  0  0  0  0  0  0  0
   19.2483   17.9769   23.1777 H   0  0  0  0  0  0  0  0  0  0  0  0
   17.7041   18.5153   21.7513 C   0  0  0  0  0  0  0  0  0  0  0  0
   17.8534   17.6487   21.0939 H   0  0  0  0  0  0  0  0  0  0  0  0
   17.4027   19.3691   21.1302 H   0  0  0  0  0  0  0  0  0  0  0  0
   16.8764   18.2840   22.4342 H   0  0  0  0  0  0  0  0  0  0  0  0
  1  2  1  0  0  0  0
  1  3  2  0  0  0  0
  1  4  1  0  0  0  0
  4  5  1  0  0  0  0
  4  6  1  0  0  0  0
  4  7  1  0  0  0  0
  7  8  1  0  0  0  0
  7  9  1  0  0  0  0
  7 10  1  0  0  0  0
 10 11  1  0  0  0  0
 10 12  1  0  0  0  0
 10 13  1  0  0  0  0
 13 14  1  0  0  0  0
 13 15  1  0  0  0  0
 13 16  1  0  0  0  0
M  END
> <VConfSearch Rank>
162

> <Conf_Id>
22

> <Delta U+W>
-1.185

> <U+W>
-58.089

> <U>
6.298

> <W>
-64.387

> <W(PB)>
-66.329

> <W(SA)>
1.942

> <Valence>
6.246

> <Coulomb>
-0.408

> <VdW>
0.460

> <VdW6>
-4.207

> <VdW12>
4.667

> <Bond>
0.072

> <Angle>
2.246

> <Pdih>
3.928

> <Idih>
0.001

> <Tether>
0.000

$$$$
VeraChem MOL file


 16 15  0  0  0  0  0  0  0  0999 V2000     
   19.1177   16.8546   22.8455 C   0  0  0  0  0  0  0  0  0  0  0  0
   18.9163   15.9160   22.1008 O   0  5  0  0  0  0  0  0  0  0  0  0
   18.6203   16.9548   23.9493 O   0  0  0  0  0  0  0  0  0  0  0  0
   20.0282   17.9770   22.3599 C   0  0  0  0  0  0  0  0  0  0  0  0
   20.7893   17.5382   21.7036 H   0  0  0  0  0  0  0  0  0  0  0  0
   20.5488   18.3867   23.2329 H   0  0  0  0  0  0  0  0  0  0  0  0
   19.2573   19.0949   21.6110 C   0  0  0  0  0  0  0  0  0  0  0  0
   18.6781   18.6394   20.7958 H   0  0  0  0  0  0  0  0  0  0  0  0
   18.5274   19.5556   22.2909 H   0  0  0  0  0  0  0  0  0  0  0  0
   20.1781   20.1855   21.0167 C   0  0  0  0  0  0  0  0  0  0  0  0
   19.5681   20.8731   20.4146 H   0  0  0  0  0  0  0  0  0  0  0  0
   20.9005   19.7265   20.3276 H   0  0  0  0  0  0  0  0  0  0  0  0
   20.9305   20.9988   22.0916 C   0  0  0  0  0  0  0  0  0  0  0  0
   21.6397   20.3712   22.6457 H   0  0  0  0  0  0  0  0  0  0  0  0
   20.2295   21.4439   22.8097 H   0  0  0  0  0  0  0  0  0  0  0  0
   21.5008   21.8135   21.6268 H   0  0  0  0  0  0  0  0  0  0  0  0
  1  2  1  0  0  0  0
  1  3  2  0  0  0  0
  1  4  1  0  0  0  0
  4  5  1  0  0  0  0
  4  6  1  0  0  0  0
  4  7  1  0  0  0  0
  7  8  1  0  0  0  0
  7  9  1  0  0  0  0
  7 10  1  0  0  0  0
 10 11  1  0  0  0  0
 10 12  1  0  0  0  0
 10 13  1  0  0  0  0
 13 14  1  0  0  0  0
 13 15  1  0  0  0  0
 13 16  1  0  0  0  0
M  END
> <VConfSearch Rank>
163

> <Conf_Id>
36

> <Delta U+W>
-0.427

> <U+W>
-57.331

> <U>
7.263

> <W>
-64.594

> <W(PB)>
-66.513

> <W(SA)>
1.920

> <Valence>
6.734

> <Coulomb>
-0.068

> <VdW>
0.598

> <VdW6>
-4.819

> <VdW12>
5.417

> <Bond>
0.107

> <Angle>
2.469

> <Pdih>
4.157

> <Idih>
0.001

> <Tether>
0.000

$$$$
VeraChem MOL file


 16 15  0  0  0  0  0  0  0  0999 V2000     
   18.6329   17.4551   23.4325 C   0  0  0  0  0  0  0  0  0  0  0  0
   19.1225   17.3409   24.5385 O   0  5  0  0  0  0  0  0  0  0  0  0
   17.8742   16.6401   22.9465 O   0  0  0  0  0  0  0  0  0  0  0  0
   19.0064   18.6773   22.6010 C   0  0  0  0  0  0  0  0  0  0  0  0
   19.1678   19.5140   23.2902 H   0  0  0  0  0  0  0  0  0  0  0  0
   18.1469   18.9360   21.9709 H   0  0  0  0  0  0  0  0  0  0  0  0
   20.2627   18.4452   21.7219 C   0  0  0  0  0  0  0  0  0  0  0  0
   21.1261   18.2290   22.3662 H   0  0  0  0  0  0  0  0  0  0  0  0
   20.1023   17.5493   21.1062 H   0  0  0  0  0  0  0  0  0  0  0  0
   20.5908   19.6353   20.7911 C   0  0  0  0  0  0  0  0  0  0  0  0
   19.7317   19.8442   20.1386 H   0  0  0  0  0  0  0  0  0  0  0  0
   21.4204   19.3485   20.1302 H   0  0  0  0  0  0  0  0  0  0  0  0
   20.9846   20.9165   21.5569 C   0  0  0  0  0  0  0  0  0  0  0  0
   20.1447   21.3056   22.1459 H   0  0  0  0  0  0  0  0  0  0  0  0
   21.2913   21.7034   20.8558 H   0  0  0  0  0  0  0  0  0  0  0  0
   21.8240   20.7247   22.2379 H   0  0  0  0  0  0  0  0  0  0  0  0
  1  2  1  0  0  0  0
  1  3  2  0  0  0  0
  1  4  1  0  0  0  0
  4  5  1  0  0  0  0
  4  6  1  0  0  0  0
  4  7  1  0  0  0  0
  7  8  1  0  0  0  0
  7  9  1  0  0  0  0
  7 10  1  0  0  0  0
 10 11  1  0  0  0  0
 10 12  1  0  0  0  0
 10 13  1  0  0  0  0
 13 14  1  0  0  0  0
 13 15  1  0  0  0  0
 13 16  1  0  0  0  0
M  END
> <VConfSearch Rank>
164

> <Conf_Id>
17

> <Delta U+W>
-0.432

> <U+W>
-57.336

> <U>
7.263

> <W>
-64.599

> <W(PB)>
-66.503

> <W(SA)>
1.904

> <Valence>
6.734

> <Coulomb>
-0.068

> <VdW>
0.598

> <VdW6>
-4.819

> <VdW12>
5.417

> <Bond>
0.107

> <Angle>
2.469

> <Pdih>
4.157

> <Idih>
0.001

> <Tether>
0.000

$$$$
VeraChem MOL file


 16 15  0  0  0  0  0  0  0  0999 V2000     
   21.8032   20.1181   20.7262 C   0  0  0  0  0  0  0  0  0  0  0  0
   21.3569   20.8387   19.8556 O   0  5  0  0  0  0  0  0  0  0  0  0
   22.7074   20.4443   21.4694 O   0  0  0  0  0  0  0  0  0  0  0  0
   21.2109   18.7195   20.8768 C   0  0  0  0  0  0  0  0  0  0  0  0
   21.9214   18.0958   21.4329 H   0  0  0  0  0  0  0  0  0  0  0  0
   21.1290   18.2878   19.8722 H   0  0  0  0  0  0  0  0  0  0  0  0
   19.8219   18.6922   21.5660 C   0  0  0  0  0  0  0  0  0  0  0  0
   19.1290   19.3431   21.0148 H   0  0  0  0  0  0  0  0  0  0  0  0
   19.4143   17.6739   21.5061 H   0  0  0  0  0  0  0  0  0  0  0  0
   19.8845   19.1288   23.0457 C   0  0  0  0  0  0  0  0  0  0  0  0
   20.2720   20.1547   23.1166 H   0  0  0  0  0  0  0  0  0  0  0  0
   20.5870   18.4849   23.5927 H   0  0  0  0  0  0  0  0  0  0  0  0
   18.4977   19.0602   23.7155 C   0  0  0  0  0  0  0  0  0  0  0  0
   17.7828   19.7196   23.2060 H   0  0  0  0  0  0  0  0  0  0  0  0
   18.5597   19.3742   24.7656 H   0  0  0  0  0  0  0  0  0  0  0  0
   18.0993   18.0374   23.6905 H   0  0  0  0  0  0  0  0  0  0  0  0
  1  2  1  0  0  0  0
  1  3  2  0  0  0  0
  1  4  1  0  0  0  0
  4  5  1  0  0  0  0
  4  6  1  0  0  0  0
  4  7  1  0  0  0  0
  7  8  1  0  0  0  0
  7  9  1  0  0  0  0
  7 10  1  0  0  0  0
 10 11  1  0  0  0  0
 10 12  1  0  0  0  0
 10 13  1  0  0  0  0
 13 14  1  0  0  0  0
 13 15  1  0  0  0  0
 13 16  1  0  0  0  0
M  END
> <VConfSearch Rank>
165

> <Conf_Id>
19

> <Delta U+W>
0.048

> <U+W>
-56.856

> <U>
8.276

> <W>
-65.132

> <W(PB)>
-67.031

> <W(SA)>
1.899

> <Valence>
6.513

> <Coulomb>
1.428

> <VdW>
0.335

> <VdW6>
-5.021

> <VdW12>
5.356

> <Bond>
0.092

> <Angle>
2.417

> <Pdih>
4.003

> <Idih>
0.001

> <Tether>
0.000

$$$$
VeraChem MOL file


 16 15  0  0  0  0  0  0  0  0999 V2000     
   19.2361   18.2419   20.0008 C   0  0  0  0  0  0  0  0  0  0  0  0
   18.0926   18.4992   19.6807 O   0  5  0  0  0  0  0  0  0  0  0  0
   19.7084   17.1232   19.9617 O   0  0  0  0  0  0  0  0  0  0  0  0
   20.1326   19.3911   20.4539 C   0  0  0  0  0  0  0  0  0  0  0  0
   19.9920   20.2160   19.7453 H   0  0  0  0  0  0  0  0  0  0  0  0
   21.1791   19.0742   20.3679 H   0  0  0  0  0  0  0  0  0  0  0  0
   19.8415   19.8904   21.8930 C   0  0  0  0  0  0  0  0  0  0  0  0
   20.4302   20.7985   22.0811 H   0  0  0  0  0  0  0  0  0  0  0  0
   18.7836   20.1773   21.9719 H   0  0  0  0  0  0  0  0  0  0  0  0
   20.1785   18.8341   22.9676 C   0  0  0  0  0  0  0  0  0  0  0  0
   21.2333   18.5392   22.8795 H   0  0  0  0  0  0  0  0  0  0  0  0
   19.5797   17.9276   22.8014 H   0  0  0  0  0  0  0  0  0  0  0  0
   19.9120   19.3675   24.3891 C   0  0  0  0  0  0  0  0  0  0  0  0
   20.5236   20.2553   24.5969 H   0  0  0  0  0  0  0  0  0  0  0  0
   20.1555   18.6048   25.1402 H   0  0  0  0  0  0  0  0  0  0  0  0
   18.8561   19.6413   24.5140 H   0  0  0  0  0  0  0  0  0  0  0  0
  1  2  1  0  0  0  0
  1  3  2  0  0  0  0
  1  4  1  0  0  0  0
  4  5  1  0  0  0  0
  4  6  1  0  0  0  0
  4  7  1  0  0  0  0
  7  8  1  0  0  0  0
  7  9  1  0  0  0  0
  7 10  1  0  0  0  0
 10 11  1  0  0  0  0
 10 12  1  0  0  0  0
 10 13  1  0  0  0  0
 13 14  1  0  0  0  0
 13 15  1  0  0  0  0
 13 16  1  0  0  0  0
M  END
> <VConfSearch Rank>
166

> <Conf_Id>
20

> <Delta U+W>
-0.010

> <U+W>
-56.914

> <U>
8.277

> <W>
-65.191

> <W(PB)>
-67.081

> <W(SA)>
1.890

> <Valence>
6.513

> <Coulomb>
1.429

> <VdW>
0.335

> <VdW6>
-5.021

> <VdW12>
5.356

> <Bond>
0.092

> <Angle>
2.417

> <Pdih>
4.002

> <Idih>
0.001

> <Tether>
0.000

$$$$
VeraChem MOL file


 16 15  0  0  0  0  0  0  0  0999 V2000     
   19.0502   20.5619   20.7598 C   0  0  0  0  0  0  0  0  0  0  0  0
   19.5478   20.7729   19.6713 O   0  5  0  0  0  0  0  0  0  0  0  0
   18.6799   21.4434   21.5096 O   0  0  0  0  0  0  0  0  0  0  0  0
   18.8499   19.1114   21.1906 C   0  0  0  0  0  0  0  0  0  0  0  0
   18.3432   18.5944   20.3674 H   0  0  0  0  0  0  0  0  0  0  0  0
   18.1600   19.0892   22.0420 H   0  0  0  0  0  0  0  0  0  0  0  0
   20.1667   18.3621   21.5333 C   0  0  0  0  0  0  0  0  0  0  0  0
   19.9362   17.3110   21.7530 H   0  0  0  0  0  0  0  0  0  0  0  0
   20.8112   18.3566   20.6434 H   0  0  0  0  0  0  0  0  0  0  0  0
   20.9557   18.9685   22.7181 C   0  0  0  0  0  0  0  0  0  0  0  0
   21.2229   20.0109   22.4957 H   0  0  0  0  0  0  0  0  0  0  0  0
   21.9032   18.4229   22.8265 H   0  0  0  0  0  0  0  0  0  0  0  0
   20.1888   18.9052   24.0561 C   0  0  0  0  0  0  0  0  0  0  0  0
   19.2937   19.5398   24.0322 H   0  0  0  0  0  0  0  0  0  0  0  0
   20.8235   19.2583   24.8791 H   0  0  0  0  0  0  0  0  0  0  0  0
   19.8787   17.8772   24.2845 H   0  0  0  0  0  0  0  0  0  0  0  0
  1  2  1  0  0  0  0
  1  3  2  0  0  0  0
  1  4  1  0  0  0  0
  4  5  1  0  0  0  0
  4  6  1  0  0  0  0
  4  7  1  0  0  0  0
  7  8  1  0  0  0  0
  7  9  1  0  0  0  0
  7 10  1  0  0  0  0
 10 11  1  0  0  0  0
 10 12  1  0  0  0  0
 10 13  1  0  0  0  0
 13 14  1  0  0  0  0
 13 15  1  0  0  0  0
 13 16  1  0  0  0  0
M  END
> <VConfSearch Rank>
167

> <Conf_Id>
37

> <Delta U+W>
1.063

> <U+W>
-55.841

> <U>
9.719

> <W>
-65.560

> <W(PB)>
-67.414

> <W(SA)>
1.854

> <Valence>
7.002

> <Coulomb>
2.402

> <VdW>
0.314

> <VdW6>
-5.861

> <VdW12>
6.175

> <Bond>
0.134

> <Angle>
2.733

> <Pdih>
4.133

> <Idih>
0.002

> <Tether>
0.000

$$$$
VeraChem MOL file


 16 15  0  0  0  0  0  0  0  0999 V2000     
   18.7875   17.5229   22.6137 C   0  0  0  0  0  0  0  0  0  0  0  0
   18.0015   17.5479   23.5403 O   0  5  0  0  0  0  0  0  0  0  0  0
   18.4878   17.1713   21.4900 O   0  0  0  0  0  0  0  0  0  0  0  0
   20.2352   17.9217   22.8871 C   0  0  0  0  0  0  0  0  0  0  0  0
   20.8563   17.5898   22.0473 H   0  0  0  0  0  0  0  0  0  0  0  0
   20.5694   17.3538   23.7633 H   0  0  0  0  0  0  0  0  0  0  0  0
   20.4379   19.4388   23.1519 C   0  0  0  0  0  0  0  0  0  0  0  0
   19.8444   19.7258   24.0310 H   0  0  0  0  0  0  0  0  0  0  0  0
   21.4881   19.6210   23.4166 H   0  0  0  0  0  0  0  0  0  0  0  0
   20.0464   20.3512   21.9652 C   0  0  0  0  0  0  0  0  0  0  0  0
   20.1463   21.3994   22.2787 H   0  0  0  0  0  0  0  0  0  0  0  0
   18.9871   20.2036   21.7129 H   0  0  0  0  0  0  0  0  0  0  0  0
   20.9141   20.1222   20.7094 C   0  0  0  0  0  0  0  0  0  0  0  0
   21.9814   20.2291   20.9429 H   0  0  0  0  0  0  0  0  0  0  0  0
   20.6628   20.8540   19.9308 H   0  0  0  0  0  0  0  0  0  0  0  0
   20.7500   19.1217   20.2892 H   0  0  0  0  0  0  0  0  0  0  0  0
  1  2  1  0  0  0  0
  1  3  2  0  0  0  0
  1  4  1  0  0  0  0
  4  5  1  0  0  0  0
  4  6  1  0  0  0  0
  4  7  1  0  0  0  0
  7  8  1  0  0  0  0
  7  9  1  0  0  0  0
  7 10  1  0  0  0  0
 10 11  1  0  0  0  0
 10 12  1  0  0  0  0
 10 13  1  0  0  0  0
 13 14  1  0  0  0  0
 13 15  1  0  0  0  0
 13 16  1  0  0  0  0
M  END
> <VConfSearch Rank>
168

> <Conf_Id>
39

> <Delta U+W>
1.129

> <U+W>
-55.775

> <U>
9.718

> <W>
-65.493

> <W(PB)>
-67.361

> <W(SA)>
1.869

> <Valence>
7.002

> <Coulomb>
2.402

> <VdW>
0.314

> <VdW6>
-5.861

> <VdW12>
6.175

> <Bond>
0.134

> <Angle>
2.734

> <Pdih>
4.133

> <Idih>
0.002

> <Tether>
0.000

$$$$
VeraChem MOL file


 16 15  0  0  0  0  0  0  0  0999 V2000     
   19.8325   17.2259   21.5358 C   0  0  0  0  0  0  0  0  0  0  0  0
   19.2320   16.4787   22.2827 O   0  5  0  0  0  0  0  0  0  0  0  0
   20.9157   16.9600   21.0529 O   0  0  0  0  0  0  0  0  0  0  0  0
   19.1489   18.5248   21.1125 C   0  0  0  0  0  0  0  0  0  0  0  0
   18.1543   18.5709   21.5726 H   0  0  0  0  0  0  0  0  0  0  0  0
   18.9902   18.4518   20.0303 H   0  0  0  0  0  0  0  0  0  0  0  0
   19.9443   19.8248   21.4194 C   0  0  0  0  0  0  0  0  0  0  0  0
   20.9985   19.6941   21.1382 H   0  0  0  0  0  0  0  0  0  0  0  0
   19.5548   20.6215   20.7713 H   0  0  0  0  0  0  0  0  0  0  0  0
   19.8419   20.3156   22.8838 C   0  0  0  0  0  0  0  0  0  0  0  0
   18.7865   20.4432   23.1616 H   0  0  0  0  0  0  0  0  0  0  0  0
   20.3006   21.3119   22.9490 H   0  0  0  0  0  0  0  0  0  0  0  0
   20.5383   19.3893   23.9023 C   0  0  0  0  0  0  0  0  0  0  0  0
   20.0125   18.4313   23.9956 H   0  0  0  0  0  0  0  0  0  0  0  0
   20.5545   19.8548   24.8961 H   0  0  0  0  0  0  0  0  0  0  0  0
   21.5757   19.1863   23.6055 H   0  0  0  0  0  0  0  0  0  0  0  0
  1  2  1  0  0  0  0
  1  3  2  0  0  0  0
  1  4  1  0  0  0  0
  4  5  1  0  0  0  0
  4  6  1  0  0  0  0
  4  7  1  0  0  0  0
  7  8  1  0  0  0  0
  7  9  1  0  0  0  0
  7 10  1  0  0  0  0
 10 11  1  0  0  0  0
 10 12  1  0  0  0  0
 10 13  1  0  0  0  0
 13 14  1  0  0  0  0
 13 15  1  0  0  0  0
 13 16  1  0  0  0  0
M  END
> <VConfSearch Rank>
169

> <Conf_Id>
47

> <Delta U+W>
2.301

> <U+W>
-54.603

> <U>
11.258

> <W>
-65.861

> <W(PB)>
-67.702

> <W(SA)>
1.841

> <Valence>
8.169

> <Coulomb>
2.735

> <VdW>
0.355

> <VdW6>
-6.245

> <VdW12>
6.600

> <Bond>
0.149

> <Angle>
3.168

> <Pdih>
4.840

> <Idih>
0.011

> <Tether>
0.000

$$$$
VeraChem MOL file


 16 15  0  0  0  0  0  0  0  0999 V2000     
   20.5553   17.9313   20.8080 C   0  0  0  0  0  0  0  0  0  0  0  0
   19.6550   17.7355   20.0154 O   0  5  0  0  0  0  0  0  0  0  0  0
   21.2597   17.0459   21.2518 O   0  0  0  0  0  0  0  0  0  0  0  0
   20.8774   19.3727   21.1981 C   0  0  0  0  0  0  0  0  0  0  0  0
   21.1689   19.8849   20.2737 H   0  0  0  0  0  0  0  0  0  0  0  0
   21.7591   19.3774   21.8503 H   0  0  0  0  0  0  0  0  0  0  0  0
   19.7118   20.1572   21.8637 C   0  0  0  0  0  0  0  0  0  0  0  0
   19.9239   21.2301   21.7623 H   0  0  0  0  0  0  0  0  0  0  0  0
   18.7780   19.9797   21.3124 H   0  0  0  0  0  0  0  0  0  0  0  0
   19.5059   19.8570   23.3681 C   0  0  0  0  0  0  0  0  0  0  0  0
   18.7749   20.5731   23.7682 H   0  0  0  0  0  0  0  0  0  0  0  0
   20.4421   20.0339   23.9153 H   0  0  0  0  0  0  0  0  0  0  0  0
   18.9986   18.4287   23.6555 C   0  0  0  0  0  0  0  0  0  0  0  0
   18.7391   18.3196   24.7164 H   0  0  0  0  0  0  0  0  0  0  0  0
   19.7650   17.6786   23.4250 H   0  0  0  0  0  0  0  0  0  0  0  0
   18.1034   18.2014   23.0619 H   0  0  0  0  0  0  0  0  0  0  0  0
  1  2  1  0  0  0  0
  1  3  2  0  0  0  0
  1  4  1  0  0  0  0
  4  5  1  0  0  0  0
  4  6  1  0  0  0  0
  4  7  1  0  0  0  0
  7  8  1  0  0  0  0
  7  9  1  0  0  0  0
  7 10  1  0  0  0  0
 10 11  1  0  0  0  0
 10 12  1  0  0  0  0
 10 13  1  0  0  0  0
 13 14  1  0  0  0  0
 13 15  1  0  0  0  0
 13 16  1  0  0  0  0
M  END
> <VConfSearch Rank>
170

> <Conf_Id>
45

> <Delta U+W>
2.303

> <U+W>
-54.601

> <U>
11.258

> <W>
-65.860

> <W(PB)>
-67.709

> <W(SA)>
1.849

> <Valence>
8.169

> <Coulomb>
2.735

> <VdW>
0.355

> <VdW6>
-6.245

> <VdW12>
6.600

> <Bond>
0.149

> <Angle>
3.168

> <Pdih>
4.840

> <Idih>
0.011

> <Tether>
0.000

$$$$
VeraChem MOL file


 16 15  0  0  0  0  0  0  0  0999 V2000     
   19.4243   18.0722   24.4157 C   0  0  0  0  0  0  0  0  0  0  0  0
   18.2384   18.3334   24.3584 O   0  5  0  0  0  0  0  0  0  0  0  0
   19.9364   17.5247   25.3714 O   0  0  0  0  0  0  0  0  0  0  0  0
   20.3405   18.4374   23.2464 C   0  0  0  0  0  0  0  0  0  0  0  0
   20.8215   17.5126   22.9064 H   0  0  0  0  0  0  0  0  0  0  0  0
   21.1328   19.0844   23.6412 H   0  0  0  0  0  0  0  0  0  0  0  0
   19.6424   19.1354   22.0490 C   0  0  0  0  0  0  0  0  0  0  0  0
   18.8463   18.4848   21.6613 H   0  0  0  0  0  0  0  0  0  0  0  0
   19.1579   20.0583   22.3969 H   0  0  0  0  0  0  0  0  0  0  0  0
   20.6387   19.4668   20.9181 C   0  0  0  0  0  0  0  0  0  0  0  0
   21.1227   18.5445   20.5681 H   0  0  0  0  0  0  0  0  0  0  0  0
   21.4345   20.1188   21.3042 H   0  0  0  0  0  0  0  0  0  0  0  0
   19.9395   20.1598   19.7320 C   0  0  0  0  0  0  0  0  0  0  0  0
   19.1587   19.5163   19.3059 H   0  0  0  0  0  0  0  0  0  0  0  0
   20.6615   20.3884   18.9372 H   0  0  0  0  0  0  0  0  0  0  0  0
   19.4728   21.1023   20.0473 H   0  0  0  0  0  0  0  0  0  0  0  0
  1  2  1  0  0  0  0
  1  3  2  0  0  0  0
  1  4  1  0  0  0  0
  4  5  1  0  0  0  0
  4  6  1  0  0  0  0
  4  7  1  0  0  0  0
  7  8  1  0  0  0  0
  7  9  1  0  0  0  0
  7 10  1  0  0  0  0
 10 11  1  0  0  0  0
 10 12  1  0  0  0  0
 10 13  1  0  0  0  0
 13 14  1  0  0  0  0
 13 15  1  0  0  0  0
 13 16  1  0  0  0  0
M  END
> <VConfSearch Rank>
171

> <Conf_Id>
0

> <Delta U+W>
0.000

> <U+W>
-56.904

> <U>
7.329

> <W>
-64.233

> <W(PB)>
-66.148

> <W(SA)>
1.915

> <Valence>
6.755

> <Coulomb>
-0.421

> <VdW>
0.995

> <VdW6>
-4.495

> <VdW12>
5.490

> <Bond>
0.106

> <Angle>
2.715

> <Pdih>
3.934

> <Idih>
0.000

> <Tether>
0.000

$$$$
VeraChem MOL file


 16 15  0  0  0  0  0  0  0  0999 V2000     
   17.3699   18.7579   21.4730 C   0  0  0  0  0  0  0  0  0  0  0  0
   16.6432   19.5718   22.0072 O   0  5  0  0  0  0  0  0  0  0  0  0
   17.1082   18.2128   20.4193 O   0  0  0  0  0  0  0  0  0  0  0  0
   18.6909   18.4154   22.1529 C   0  0  0  0  0  0  0  0  0  0  0  0
   18.9287   17.3686   21.9284 H   0  0  0  0  0  0  0  0  0  0  0  0
   18.5454   18.4891   23.2375 H   0  0  0  0  0  0  0  0  0  0  0  0
   19.8545   19.3347   21.7069 C   0  0  0  0  0  0  0  0  0  0  0  0
   19.9797   19.2593   20.6177 H   0  0  0  0  0  0  0  0  0  0  0  0
   19.5963   20.3799   21.9268 H   0  0  0  0  0  0  0  0  0  0  0  0
   21.1783   18.9671   22.4092 C   0  0  0  0  0  0  0  0  0  0  0  0
   21.4372   17.9221   22.1889 H   0  0  0  0  0  0  0  0  0  0  0  0
   21.0537   19.0429   23.4983 H   0  0  0  0  0  0  0  0  0  0  0  0
   22.3317   19.8859   21.9605 C   0  0  0  0  0  0  0  0  0  0  0  0
   22.1128   20.9354   22.1974 H   0  0  0  0  0  0  0  0  0  0  0  0
   22.4991   19.8063   20.8783 H   0  0  0  0  0  0  0  0  0  0  0  0
   23.2651   19.6113   22.4689 H   0  0  0  0  0  0  0  0  0  0  0  0
  1  2  1  0  0  0  0
  1  3  2  0  0  0  0
  1  4  1  0  0  0  0
  4  5  1  0  0  0  0
  4  6  1  0  0  0  0
  4  7  1  0  0  0  0
  7  8  1  0  0  0  0
  7  9  1  0  0  0  0
  7 10  1  0  0  0  0
 10 11  1  0  0  0  0
 10 12  1  0  0  0  0
 10 13  1  0  0  0  0
 13 14  1  0  0  0  0
 13 15  1  0  0  0  0
 13 16  1  0  0  0  0
M  END
> <VConfSearch Rank>
172

> <Conf_Id>
22

> <Delta U+W>
-1.185

> <U+W>
-58.089

> <U>
6.298

> <W>
-64.387

> <W(PB)>
-66.329

> <W(SA)>
1.942

> <Valence>
6.246

> <Coulomb>
-0.408

> <VdW>
0.460

> <VdW6>
-4.207

> <VdW12>
4.667

> <Bond>
0.072

> <Angle>
2.246

> <Pdih>
3.928

> <Idih>
0.001

> <Tether>
0.000

$$$$
VeraChem MOL file


 16 15  0  0  0  0  0  0  0  0999 V2000     
   21.7812   18.7995   20.1782 C   0  0  0  0  0  0  0  0  0  0  0  0
   22.9202   19.1995   20.3150 O   0  5  0  0  0  0  0  0  0  0  0  0
   21.2836   18.5462   19.0992 O   0  0  0  0  0  0  0  0  0  0  0  0
   20.9239   18.6252   21.4269 C   0  0  0  0  0  0  0  0  0  0  0  0
   21.5825   18.3350   22.2543 H   0  0  0  0  0  0  0  0  0  0  0  0
   20.2387   17.7888   21.2480 H   0  0  0  0  0  0  0  0  0  0  0  0
   20.1339   19.9072   21.7973 C   0  0  0  0  0  0  0  0  0  0  0  0
   20.8401   20.7445   21.8843 H   0  0  0  0  0  0  0  0  0  0  0  0
   19.4470   20.1638   20.9790 H   0  0  0  0  0  0  0  0  0  0  0  0
   19.3453   19.7831   23.1214 C   0  0  0  0  0  0  0  0  0  0  0  0
   18.9075   20.7610   23.3647 H   0  0  0  0  0  0  0  0  0  0  0  0
   20.0338   19.5380   23.9420 H   0  0  0  0  0  0  0  0  0  0  0  0
   18.2154   18.7330   23.0607 C   0  0  0  0  0  0  0  0  0  0  0  0
   18.6162   17.7198   22.9320 H   0  0  0  0  0  0  0  0  0  0  0  0
   17.5299   18.9412   22.2289 H   0  0  0  0  0  0  0  0  0  0  0  0
   17.6316   18.7437   23.9903 H   0  0  0  0  0  0  0  0  0  0  0  0
  1  2  1  0  0  0  0
  1  3  2  0  0  0  0
  1  4  1  0  0  0  0
  4  5  1  0  0  0  0
  4  6  1  0  0  0  0
  4  7  1  0  0  0  0
  7  8  1  0  0  0  0
  7  9  1  0  0  0  0
  7 10  1  0  0  0  0
 10 11  1  0  0  0  0
 10 12  1  0  0  0  0
 10 13  1  0  0  0  0
 13 14  1  0  0  0  0
 13 15  1  0  0  0  0
 13 16  1  0  0  0  0
M  END
> <VConfSearch Rank>
173

> <Conf_Id>
36

> <Delta U+W>
-0.427

> <U+W>
-57.331

> <U>
7.263

> <W>
-64.594

> <W(PB)>
-66.513

> <W(SA)>
1.920

> <Valence>
6.734

> <Coulomb>
-0.068

> <VdW>
0.598

> <VdW6>
-4.819

> <VdW12>
5.417

> <Bond>
0.107

> <Angle>
2.469

> <Pdih>
4.157

> <Idih>
0.001

> <Tether>
0.000

$$$$
VeraChem MOL file


 16 15  0  0  0  0  0  0  0  0999 V2000     
   20.9936   20.3157   24.0537 C   0  0  0  0  0  0  0  0  0  0  0  0
   20.2131   21.1075   24.5434 O   0  5  0  0  0  0  0  0  0  0  0  0
   22.1908   20.3385   24.2592 O   0  0  0  0  0  0  0  0  0  0  0  0
   20.4441   19.2478   23.1145 C   0  0  0  0  0  0  0  0  0  0  0  0
   19.4381   18.9840   23.4603 H   0  0  0  0  0  0  0  0  0  0  0  0
   21.0681   18.3517   23.2155 H   0  0  0  0  0  0  0  0  0  0  0  0
   20.4080   19.7097   21.6345 C   0  0  0  0  0  0  0  0  0  0  0  0
   19.7463   20.5816   21.5387 H   0  0  0  0  0  0  0  0  0  0  0  0
   21.4125   20.0487   21.3458 H   0  0  0  0  0  0  0  0  0  0  0  0
   19.9570   18.6018   20.6549 C   0  0  0  0  0  0  0  0  0  0  0  0
   20.6257   17.7342   20.7422 H   0  0  0  0  0  0  0  0  0  0  0  0
   20.0641   18.9744   19.6268 H   0  0  0  0  0  0  0  0  0  0  0  0
   18.4956   18.1548   20.8726 C   0  0  0  0  0  0  0  0  0  0  0  0
   18.3656   17.6705   21.8485 H   0  0  0  0  0  0  0  0  0  0  0  0
   18.1962   17.4333   20.1013 H   0  0  0  0  0  0  0  0  0  0  0  0
   17.8106   19.0110   20.8185 H   0  0  0  0  0  0  0  0  0  0  0  0
  1  2  1  0  0  0  0
  1  3  2  0  0  0  0
  1  4  1  0  0  0  0
  4  5  1  0  0  0  0
  4  6  1  0  0  0  0
  4  7  1  0  0  0  0
  7  8  1  0  0  0  0
  7  9  1  0  0  0  0
  7 10  1  0  0  0  0
 10 11  1  0  0  0  0
 10 12  1  0  0  0  0
 10 13  1  0  0  0  0
 13 14  1  0  0  0  0
 13 15  1  0  0  0  0
 13 16  1  0  0  0  0
M  END
> <VConfSearch Rank>
174

> <Conf_Id>
17

> <Delta U+W>
-0.432

> <U+W>
-57.336

> <U>
7.263

> <W>
-64.599

> <W(PB)>
-66.503

> <W(SA)>
1.904

> <Valence>
6.734

> <Coulomb>
-0.068

> <VdW>
0.598

> <VdW6>
-4.819

> <VdW12>
5.417

> <Bond>
0.107

> <Angle>
2.469

> <Pdih>
4.157

> <Idih>
0.001

> <Tether>
0.000

$$$$
VeraChem MOL file


 16 15  0  0  0  0  0  0  0  0999 V2000     
   22.1544   18.1441   21.3497 C   0  0  0  0  0  0  0  0  0  0  0  0
   22.5243   17.2175   22.0431 O   0  5  0  0  0  0  0  0  0  0  0  0
   22.0859   18.0899   20.1378 O   0  0  0  0  0  0  0  0  0  0  0  0
   21.7789   19.4534   22.0384 C   0  0  0  0  0  0  0  0  0  0  0  0
   21.8111   20.2612   21.2972 H   0  0  0  0  0  0  0  0  0  0  0  0
   22.5587   19.6706   22.7780 H   0  0  0  0  0  0  0  0  0  0  0  0
   20.3955   19.4250   22.7389 C   0  0  0  0  0  0  0  0  0  0  0  0
   20.3681   18.5940   23.4573 H   0  0  0  0  0  0  0  0  0  0  0  0
   20.2710   20.3491   23.3195 H   0  0  0  0  0  0  0  0  0  0  0  0
   19.2264   19.2910   21.7392 C   0  0  0  0  0  0  0  0  0  0  0  0
   19.3294   18.3589   21.1663 H   0  0  0  0  0  0  0  0  0  0  0  0
   19.2624   20.1157   21.0140 H   0  0  0  0  0  0  0  0  0  0  0  0
   17.8628   19.2994   22.4582 C   0  0  0  0  0  0  0  0  0  0  0  0
   17.7883   18.4651   23.1680 H   0  0  0  0  0  0  0  0  0  0  0  0
   17.0434   19.2025   21.7341 H   0  0  0  0  0  0  0  0  0  0  0  0
   17.7164   20.2357   23.0125 H   0  0  0  0  0  0  0  0  0  0  0  0
  1  2  1  0  0  0  0
  1  3  2  0  0  0  0
  1  4  1  0  0  0  0
  4  5  1  0  0  0  0
  4  6  1  0  0  0  0
  4  7  1  0  0  0  0
  7  8  1  0  0  0  0
  7  9  1  0  0  0  0
  7 10  1  0  0  0  0
 10 11  1  0  0  0  0
 10 12  1  0  0  0  0
 10 13  1  0  0  0  0
 13 14  1  0  0  0  0
 13 15  1  0  0  0  0
 13 16  1  0  0  0  0
M  END
> <VConfSearch Rank>
175

> <Conf_Id>
19

> <Delta U+W>
0.048

> <U+W>
-56.856

> <U>
8.276

> <W>
-65.132

> <W(PB)>
-67.031

> <W(SA)>
1.899

> <Valence>
6.513

> <Coulomb>
1.428

> <VdW>
0.335

> <VdW6>
-5.021

> <VdW12>
5.356

> <Bond>
0.092

> <Angle>
2.417

> <Pdih>
4.003

> <Idih>
0.001

> <Tether>
0.000

$$$$
VeraChem MOL file


 16 15  0  0  0  0  0  0  0  0999 V2000     
   18.0569   20.2940   23.1176 C   0  0  0  0  0  0  0  0  0  0  0  0
   18.1318   20.3306   24.3298 O   0  5  0  0  0  0  0  0  0  0  0  0
   17.0554   19.9584   22.5170 O   0  0  0  0  0  0  0  0  0  0  0  0
   19.2801   20.7149   22.3077 C   0  0  0  0  0  0  0  0  0  0  0  0
   19.6641   21.6415   22.7508 H   0  0  0  0  0  0  0  0  0  0  0  0
   18.9582   20.9606   21.2884 H   0  0  0  0  0  0  0  0  0  0  0  0
   20.4096   19.6529   22.2705 C   0  0  0  0  0  0  0  0  0  0  0  0
   21.2950   20.0909   21.7901 H   0  0  0  0  0  0  0  0  0  0  0  0
   20.7019   19.3959   23.2982 H   0  0  0  0  0  0  0  0  0  0  0  0
   19.9978   18.3745   21.5087 C   0  0  0  0  0  0  0  0  0  0  0  0
   19.6941   18.6345   20.4852 H   0  0  0  0  0  0  0  0  0  0  0  0
   19.1244   17.9158   21.9929 H   0  0  0  0  0  0  0  0  0  0  0  0
   21.1488   17.3502   21.4576 C   0  0  0  0  0  0  0  0  0  0  0  0
   22.0258   17.7695   20.9473 H   0  0  0  0  0  0  0  0  0  0  0  0
   20.8395   16.4480   20.9140 H   0  0  0  0  0  0  0  0  0  0  0  0
   21.4516   17.0494   22.4692 H   0  0  0  0  0  0  0  0  0  0  0  0
  1  2  1  0  0  0  0
  1  3  2  0  0  0  0
  1  4  1  0  0  0  0
  4  5  1  0  0  0  0
  4  6  1  0  0  0  0
  4  7  1  0  0  0  0
  7  8  1  0  0  0  0
  7  9  1  0  0  0  0
  7 10  1  0  0  0  0
 10 11  1  0  0  0  0
 10 12  1  0  0  0  0
 10 13  1  0  0  0  0
 13 14  1  0  0  0  0
 13 15  1  0  0  0  0
 13 16  1  0  0  0  0
M  END
> <VConfSearch Rank>
176

> <Conf_Id>
20

> <Delta U+W>
-0.010

> <U+W>
-56.914

> <U>
8.277

> <W>
-65.191

> <W(PB)>
-67.081

> <W(SA)>
1.890

> <Valence>
6.513

> <Coulomb>
1.429

> <VdW>
0.335

> <VdW6>
-5.021

> <VdW12>
5.356

> <Bond>
0.092

> <Angle>
2.417

> <Pdih>
4.002

> <Idih>
0.001

> <Tether>
0.000

$$$$
VeraChem MOL file


 16 15  0  0  0  0  0  0  0  0999 V2000     
   21.9582   18.9675   22.6102 C   0  0  0  0  0  0  0  0  0  0  0  0
   22.4038   18.9645   23.7408 O   0  5  0  0  0  0  0  0  0  0  0  0
   22.4353   19.6206   21.7035 O   0  0  0  0  0  0  0  0  0  0  0  0
   20.7564   18.0764   22.3080 C   0  0  0  0  0  0  0  0  0  0  0  0
   20.9908   17.0744   22.6861 H   0  0  0  0  0  0  0  0  0  0  0  0
   20.6533   17.9812   21.2210 H   0  0  0  0  0  0  0  0  0  0  0  0
   19.4261   18.5657   22.9433 C   0  0  0  0  0  0  0  0  0  0  0  0
   18.6382   17.8272   22.7428 H   0  0  0  0  0  0  0  0  0  0  0  0
   19.5474   18.5980   24.0349 H   0  0  0  0  0  0  0  0  0  0  0  0
   18.9577   19.9559   22.4512 C   0  0  0  0  0  0  0  0  0  0  0  0
   19.7235   20.7108   22.6776 H   0  0  0  0  0  0  0  0  0  0  0  0
   18.0612   20.2460   23.0161 H   0  0  0  0  0  0  0  0  0  0  0  0
   18.6287   19.9888   20.9435 C   0  0  0  0  0  0  0  0  0  0  0  0
   19.5281   19.8251   20.3362 H   0  0  0  0  0  0  0  0  0  0  0  0
   18.2124   20.9649   20.6630 H   0  0  0  0  0  0  0  0  0  0  0  0
   17.8906   19.2186   20.6843 H   0  0  0  0  0  0  0  0  0  0  0  0
  1  2  1  0  0  0  0
  1  3  2  0  0  0  0
  1  4  1  0  0  0  0
  4  5  1  0  0  0  0
  4  6  1  0  0  0  0
  4  7  1  0  0  0  0
  7  8  1  0  0  0  0
  7  9  1  0  0  0  0
  7 10  1  0  0  0  0
 10 11  1  0  0  0  0
 10 12  1  0  0  0  0
 10 13  1  0  0  0  0
 13 14  1  0  0  0  0
 13 15  1  0  0  0  0
 13 16  1  0  0  0  0
M  END
> <VConfSearch Rank>
177

> <Conf_Id>
37

> <Delta U+W>
1.063

> <U+W>
-55.841

> <U>
9.719

> <W>
-65.560

> <W(PB)>
-67.414

> <W(SA)>
1.854

> <Valence>
7.002

> <Coulomb>
2.402

> <VdW>
0.314

> <VdW6>
-5.861

> <VdW12>
6.175

> <Bond>
0.134

> <Angle>
2.733

> <Pdih>
4.133

> <Idih>
0.002

> <Tether>
0.000

$$$$
VeraChem MOL file


 16 15  0  0  0  0  0  0  0  0999 V2000     
   19.5952   17.2692   23.0893 C   0  0  0  0  0  0  0  0  0  0  0  0
   18.4461   16.9558   23.3304 O   0  5  0  0  0  0  0  0  0  0  0  0
   20.3972   16.5231   22.5637 O   0  0  0  0  0  0  0  0  0  0  0  0
   20.0627   18.6626   23.5013 C   0  0  0  0  0  0  0  0  0  0  0  0
   21.1579   18.6898   23.4703 H   0  0  0  0  0  0  0  0  0  0  0  0
   19.7786   18.8042   24.5507 H   0  0  0  0  0  0  0  0  0  0  0  0
   19.4620   19.8131   22.6480 C   0  0  0  0  0  0  0  0  0  0  0  0
   18.3677   19.7897   22.7447 H   0  0  0  0  0  0  0  0  0  0  0  0
   19.7872   20.7767   23.0628 H   0  0  0  0  0  0  0  0  0  0  0  0
   19.8325   19.7542   21.1469 C   0  0  0  0  0  0  0  0  0  0  0  0
   19.2962   20.5553   20.6199 H   0  0  0  0  0  0  0  0  0  0  0  0
   19.4812   18.8085   20.7113 H   0  0  0  0  0  0  0  0  0  0  0  0
   21.3456   19.9131   20.8867 C   0  0  0  0  0  0  0  0  0  0  0  0
   21.7294   20.8347   21.3432 H   0  0  0  0  0  0  0  0  0  0  0  0
   21.5465   19.9600   19.8086 H   0  0  0  0  0  0  0  0  0  0  0  0
   21.9105   19.0642   21.2925 H   0  0  0  0  0  0  0  0  0  0  0  0
  1  2  1  0  0  0  0
  1  3  2  0  0  0  0
  1  4  1  0  0  0  0
  4  5  1  0  0  0  0
  4  6  1  0  0  0  0
  4  7  1  0  0  0  0
  7  8  1  0  0  0  0
  7  9  1  0  0  0  0
  7 10  1  0  0  0  0
 10 11  1  0  0  0  0
 10 12  1  0  0  0  0
 10 13  1  0  0  0  0
 13 14  1  0  0  0  0
 13 15  1  0  0  0  0
 13 16  1  0  0  0  0
M  END
> <VConfSearch Rank>
178

> <Conf_Id>
39

> <Delta U+W>
1.129

> <U+W>
-55.775

> <U>
9.718

> <W>
-65.493

> <W(PB)>
-67.361

> <W(SA)>
1.869

> <Valence>
7.002

> <Coulomb>
2.402

> <VdW>
0.314

> <VdW6>
-5.861

> <VdW12>
6.175

> <Bond>
0.134

> <Angle>
2.734

> <Pdih>
4.133

> <Idih>
0.002

> <Tether>
0.000

$$$$
VeraChem MOL file


 16 15  0  0  0  0  0  0  0  0999 V2000     
   21.5515   20.1907   22.1383 C   0  0  0  0  0  0  0  0  0  0  0  0
   22.4209   19.6135   21.5155 O   0  5  0  0  0  0  0  0  0  0  0  0
   21.7431   20.7303   23.2103 O   0  0  0  0  0  0  0  0  0  0  0  0
   20.1710   20.3209   21.4972 C   0  0  0  0  0  0  0  0  0  0  0  0
   20.1920   19.8511   20.5064 H   0  0  0  0  0  0  0  0  0  0  0  0
   20.0068   21.3922   21.3325 H   0  0  0  0  0  0  0  0  0  0  0  0
   18.9923   19.7529   22.3369 C   0  0  0  0  0  0  0  0  0  0  0  0
   19.0940   20.0665   23.3852 H   0  0  0  0  0  0  0  0  0  0  0  0
   18.0639   20.2127   21.9722 H   0  0  0  0  0  0  0  0  0  0  0  0
   18.8215   18.2167   22.2560 C   0  0  0  0  0  0  0  0  0  0  0  0
   18.7222   17.9071   21.2065 H   0  0  0  0  0  0  0  0  0  0  0  0
   17.8772   17.9459   22.7482 H   0  0  0  0  0  0  0  0  0  0  0  0
   19.9652   17.4258   22.9245 C   0  0  0  0  0  0  0  0  0  0  0  0
   20.9037   17.5328   22.3671 H   0  0  0  0  0  0  0  0  0  0  0  0
   19.7226   16.3559   22.9597 H   0  0  0  0  0  0  0  0  0  0  0  0
   20.1335   17.7698   23.9534 H   0  0  0  0  0  0  0  0  0  0  0  0
  1  2  1  0  0  0  0
  1  3  2  0  0  0  0
  1  4  1  0  0  0  0
  4  5  1  0  0  0  0
  4  6  1  0  0  0  0
  4  7  1  0  0  0  0
  7  8  1  0  0  0  0
  7  9  1  0  0  0  0
  7 10  1  0  0  0  0
 10 11  1  0  0  0  0
 10 12  1  0  0  0  0
 10 13  1  0  0  0  0
 13 14  1  0  0  0  0
 13 15  1  0  0  0  0
 13 16  1  0  0  0  0
M  END
> <VConfSearch Rank>
179

> <Conf_Id>
47

> <Delta U+W>
2.301

> <U+W>
-54.603

> <U>
11.258

> <W>
-65.861

> <W(PB)>
-67.702

> <W(SA)>
1.841

> <Valence>
8.169

> <Coulomb>
2.735

> <VdW>
0.355

> <VdW6>
-6.245

> <VdW12>
6.600

> <Bond>
0.149

> <Angle>
3.168

> <Pdih>
4.840

> <Idih>
0.011

> <Tether>
0.000

$$$$
VeraChem MOL file


 16 15  0  0  0  0  0  0  0  0999 V2000     
   18.7338   19.4677   23.8625 C   0  0  0  0  0  0  0  0  0  0  0  0
   18.5241   20.6628   23.9323 O   0  5  0  0  0  0  0  0  0  0  0  0
   19.0828   18.7936   24.8115 O   0  0  0  0  0  0  0  0  0  0  0  0
   18.4583   18.7593   22.5373 C   0  0  0  0  0  0  0  0  0  0  0  0
   17.3899   18.8935   22.3318 H   0  0  0  0  0  0  0  0  0  0  0  0
   18.6195   17.6824   22.6681 H   0  0  0  0  0  0  0  0  0  0  0  0
   19.2755   19.2818   21.3223 C   0  0  0  0  0  0  0  0  0  0  0  0
   18.7533   18.9755   20.4057 H   0  0  0  0  0  0  0  0  0  0  0  0
   19.2773   20.3806   21.3168 H   0  0  0  0  0  0  0  0  0  0  0  0
   20.7258   18.7476   21.2401 C   0  0  0  0  0  0  0  0  0  0  0  0
   21.1518   19.0470   20.2725 H   0  0  0  0  0  0  0  0  0  0  0  0
   20.7197   17.6489   21.2476 H   0  0  0  0  0  0  0  0  0  0  0  0
   21.6473   19.2692   22.3621 C   0  0  0  0  0  0  0  0  0  0  0  0
   22.6871   18.9724   22.1740 H   0  0  0  0  0  0  0  0  0  0  0  0
   21.3592   18.8601   23.3381 H   0  0  0  0  0  0  0  0  0  0  0  0
   21.6127   20.3649   22.4232 H   0  0  0  0  0  0  0  0  0  0  0  0
  1  2  1  0  0  0  0
  1  3  2  0  0  0  0
  1  4  1  0  0  0  0
  4  5  1  0  0  0  0
  4  6  1  0  0  0  0
  4  7  1  0  0  0  0
  7  8  1  0  0  0  0
  7  9  1  0  0  0  0
  7 10  1  0  0  0  0
 10 11  1  0  0  0  0
 10 12  1  0  0  0  0
 10 13  1  0  0  0  0
 13 14  1  0  0  0  0
 13 15  1  0  0  0  0
 13 16  1  0  0  0  0
M  END
> <VConfSearch Rank>
180

> <Conf_Id>
45

> <Delta U+W>
2.303

> <U+W>
-54.601

> <U>
11.258

> <W>
-65.860

> <W(PB)>
-67.709

> <W(SA)>
1.849

> <Valence>
8.169

> <Coulomb>
2.735

> <VdW>
0.355

> <VdW6>
-6.245

> <VdW12>
6.600

> <Bond>
0.149

> <Angle>
3.168

> <Pdih>
4.840

> <Idih>
0.011

> <Tether>
0.000

$$$$
VeraChem MOL file


 16 15  0  0  0  0  0  0  0  0999 V2000     
   17.8800   20.4575   20.7699 C   0  0  0  0  0  0  0  0  0  0  0  0
   17.0606   20.0501   21.5701 O   0  5  0  0  0  0  0  0  0  0  0  0
   17.5965   21.2007   19.8519 O   0  0  0  0  0  0  0  0  0  0  0  0
   19.3439   20.0326   20.8977 C   0  0  0  0  0  0  0  0  0  0  0  0
   19.9434   20.9463   20.9865 H   0  0  0  0  0  0  0  0  0  0  0  0
   19.6289   19.5525   19.9541 H   0  0  0  0  0  0  0  0  0  0  0  0
   19.6582   19.0828   22.0841 C   0  0  0  0  0  0  0  0  0  0  0  0
   19.3656   19.5669   23.0262 H   0  0  0  0  0  0  0  0  0  0  0  0
   19.0508   18.1717   21.9927 H   0  0  0  0  0  0  0  0  0  0  0  0
   21.1538   18.7064   22.1368 C   0  0  0  0  0  0  0  0  0  0  0  0
   21.7623   19.6166   22.2300 H   0  0  0  0  0  0  0  0  0  0  0  0
   21.4473   18.2206   21.1959 H   0  0  0  0  0  0  0  0  0  0  0  0
   21.4596   17.7632   23.3170 C   0  0  0  0  0  0  0  0  0  0  0  0
   21.2045   18.2365   24.2743 H   0  0  0  0  0  0  0  0  0  0  0  0
   22.5265   17.5055   23.3399 H   0  0  0  0  0  0  0  0  0  0  0  0
   20.8872   16.8301   23.2325 H   0  0  0  0  0  0  0  0  0  0  0  0
  1  2  1  0  0  0  0
  1  3  2  0  0  0  0
  1  4  1  0  0  0  0
  4  5  1  0  0  0  0
  4  6  1  0  0  0  0
  4  7  1  0  0  0  0
  7  8  1  0  0  0  0
  7  9  1  0  0  0  0
  7 10  1  0  0  0  0
 10 11  1  0  0  0  0
 10 12  1  0  0  0  0
 10 13  1  0  0  0  0
 13 14  1  0  0  0  0
 13 15  1  0  0  0  0
 13 16  1  0  0  0  0
M  END
> <VConfSearch Rank>
181

> <Conf_Id>
0

> <Delta U+W>
0.000

> <U+W>
-56.904

> <U>
7.329

> <W>
-64.233

> <W(PB)>
-66.148

> <W(SA)>
1.915

> <Valence>
6.755

> <Coulomb>
-0.421

> <VdW>
0.995

> <VdW6>
-4.495

> <VdW12>
5.490

> <Bond>
0.106

> <Angle>
2.715

> <Pdih>
3.934

> <Idih>
0.000

> <Tether>
0.000

$$$$
VeraChem MOL file


 16 15  0  0  0  0  0  0  0  0999 V2000     
   17.7862   20.2623   22.9912 C   0  0  0  0  0  0  0  0  0  0  0  0
   17.6731   21.4534   22.7805 O   0  5  0  0  0  0  0  0  0  0  0  0
   16.8412   19.5080   23.1088 O   0  0  0  0  0  0  0  0  0  0  0  0
   19.1910   19.6792   23.0957 C   0  0  0  0  0  0  0  0  0  0  0  0
   19.1603   18.8399   23.8011 H   0  0  0  0  0  0  0  0  0  0  0  0
   19.8462   20.4438   23.5304 H   0  0  0  0  0  0  0  0  0  0  0  0
   19.7516   19.2090   21.7309 C   0  0  0  0  0  0  0  0  0  0  0  0
   19.0785   18.4531   21.3029 H   0  0  0  0  0  0  0  0  0  0  0  0
   19.7644   20.0570   21.0321 H   0  0  0  0  0  0  0  0  0  0  0  0
   21.1729   18.6238   21.8647 C   0  0  0  0  0  0  0  0  0  0  0  0
   21.1604   17.7753   22.5629 H   0  0  0  0  0  0  0  0  0  0  0  0
   21.8464   19.3796   22.2920 H   0  0  0  0  0  0  0  0  0  0  0  0
   21.7243   18.1581   20.5027 C   0  0  0  0  0  0  0  0  0  0  0  0
   21.7772   18.9946   19.7935 H   0  0  0  0  0  0  0  0  0  0  0  0
   21.0861   17.3784   20.0663 H   0  0  0  0  0  0  0  0  0  0  0  0
   22.7351   17.7449   20.6154 H   0  0  0  0  0  0  0  0  0  0  0  0
  1  2  1  0  0  0  0
  1  3  2  0  0  0  0
  1  4  1  0  0  0  0
  4  5  1  0  0  0  0
  4  6  1  0  0  0  0
  4  7  1  0  0  0  0
  7  8  1  0  0  0  0
  7  9  1  0  0  0  0
  7 10  1  0  0  0  0
 10 11  1  0  0  0  0
 10 12  1  0  0  0  0
 10 13  1  0  0  0  0
 13 14  1  0  0  0  0
 13 15  1  0  0  0  0
 13 16  1  0  0  0  0
M  END
> <VConfSearch Rank>
182

> <Conf_Id>
22

> <Delta U+W>
-1.185

> <U+W>
-58.089

> <U>
6.298

> <W>
-64.387

> <W(PB)>
-66.329

> <W(SA)>
1.942

> <Valence>
6.246

> <Coulomb>
-0.408

> <VdW>
0.460

> <VdW6>
-4.207

> <VdW12>
4.667

> <Bond>
0.072

> <Angle>
2.246

> <Pdih>
3.928

> <Idih>
0.001

> <Tether>
0.000

$$$$
VeraChem MOL file


 16 15  0  0  0  0  0  0  0  0999 V2000     
   18.4779   21.2606   22.1167 C   0  0  0  0  0  0  0  0  0  0  0  0
   18.1114   21.7349   23.1735 O   0  5  0  0  0  0  0  0  0  0  0  0
   17.9220   21.4715   21.0573 O   0  0  0  0  0  0  0  0  0  0  0  0
   19.6889   20.3344   22.1241 C   0  0  0  0  0  0  0  0  0  0  0  0
   20.3688   20.6692   22.9167 H   0  0  0  0  0  0  0  0  0  0  0  0
   20.2135   20.4621   21.1704 H   0  0  0  0  0  0  0  0  0  0  0  0
   19.3069   18.8471   22.3410 C   0  0  0  0  0  0  0  0  0  0  0  0
   18.7087   18.7663   23.2592 H   0  0  0  0  0  0  0  0  0  0  0  0
   18.6604   18.5110   21.5185 H   0  0  0  0  0  0  0  0  0  0  0  0
   20.5298   17.9087   22.4609 C   0  0  0  0  0  0  0  0  0  0  0  0
   20.1776   16.9010   22.7209 H   0  0  0  0  0  0  0  0  0  0  0  0
   21.1703   18.2377   23.2908 H   0  0  0  0  0  0  0  0  0  0  0  0
   21.3627   17.8257   21.1638 C   0  0  0  0  0  0  0  0  0  0  0  0
   21.8303   18.7891   20.9252 H   0  0  0  0  0  0  0  0  0  0  0  0
   20.7364   17.5262   20.3133 H   0  0  0  0  0  0  0  0  0  0  0  0
   22.1652   17.0842   21.2701 H   0  0  0  0  0  0  0  0  0  0  0  0
  1  2  1  0  0  0  0
  1  3  2  0  0  0  0
  1  4  1  0  0  0  0
  4  5  1  0  0  0  0
  4  6  1  0  0  0  0
  4  7  1  0  0  0  0
  7  8  1  0  0  0  0
  7  9  1  0  0  0  0
  7 10  1  0  0  0  0
 10 11  1  0  0  0  0
 10 12  1  0  0  0  0
 10 13  1  0  0  0  0
 13 14  1  0  0  0  0
 13 15  1  0  0  0  0
 13 16  1  0  0  0  0
M  END
> <VConfSearch Rank>
183

> <Conf_Id>
36

> <Delta U+W>
-0.427

> <U+W>
-57.331

> <U>
7.263

> <W>
-64.594

> <W(PB)>
-66.513

> <W(SA)>
1.920

> <Valence>
6.734

> <Coulomb>
-0.068

> <VdW>
0.598

> <VdW6>
-4.819

> <VdW12>
5.417

> <Bond>
0.107

> <Angle>
2.469

> <Pdih>
4.157

> <Idih>
0.001

> <Tether>
0.000

$$$$
VeraChem MOL file


 16 15  0  0  0  0  0  0  0  0999 V2000     
   20.6381   21.4596   21.0556 C   0  0  0  0  0  0  0  0  0  0  0  0
   21.8253   21.5027   20.8014 O   0  5  0  0  0  0  0  0  0  0  0  0
   19.9476   22.4477   21.2076 O   0  0  0  0  0  0  0  0  0  0  0  0
   19.9829   20.0919   21.2123 C   0  0  0  0  0  0  0  0  0  0  0  0
   20.4907   19.3981   20.5326 H   0  0  0  0  0  0  0  0  0  0  0  0
   18.9420   20.1725   20.8770 H   0  0  0  0  0  0  0  0  0  0  0  0
   20.0355   19.5635   22.6694 C   0  0  0  0  0  0  0  0  0  0  0  0
   21.0831   19.4464   22.9793 H   0  0  0  0  0  0  0  0  0  0  0  0
   19.5972   20.3198   23.3353 H   0  0  0  0  0  0  0  0  0  0  0  0
   19.2799   18.2293   22.8678 C   0  0  0  0  0  0  0  0  0  0  0  0
   18.2294   18.3495   22.5690 H   0  0  0  0  0  0  0  0  0  0  0  0
   19.2722   17.9837   23.9387 H   0  0  0  0  0  0  0  0  0  0  0  0
   19.9089   17.0524   22.0918 C   0  0  0  0  0  0  0  0  0  0  0  0
   19.8363   17.2027   21.0074 H   0  0  0  0  0  0  0  0  0  0  0  0
   19.3920   16.1144   22.3324 H   0  0  0  0  0  0  0  0  0  0  0  0
   20.9683   16.9310   22.3530 H   0  0  0  0  0  0  0  0  0  0  0  0
  1  2  1  0  0  0  0
  1  3  2  0  0  0  0
  1  4  1  0  0  0  0
  4  5  1  0  0  0  0
  4  6  1  0  0  0  0
  4  7  1  0  0  0  0
  7  8  1  0  0  0  0
  7  9  1  0  0  0  0
  7 10  1  0  0  0  0
 10 11  1  0  0  0  0
 10 12  1  0  0  0  0
 10 13  1  0  0  0  0
 13 14  1  0  0  0  0
 13 15  1  0  0  0  0
 13 16  1  0  0  0  0
M  END
> <VConfSearch Rank>
184

> <Conf_Id>
17

> <Delta U+W>
-0.432

> <U+W>
-57.336

> <U>
7.263

> <W>
-64.599

> <W(PB)>
-66.503

> <W(SA)>
1.904

> <Valence>
6.734

> <Coulomb>
-0.068

> <VdW>
0.598

> <VdW6>
-4.819

> <VdW12>
5.417

> <Bond>
0.107

> <Angle>
2.469

> <Pdih>
4.157

> <Idih>
0.001

> <Tether>
0.000

$$$$
VeraChem MOL file


 16 15  0  0  0  0  0  0  0  0999 V2000     
   19.5090   18.6640   24.3247 C   0  0  0  0  0  0  0  0  0  0  0  0
   20.2015   17.8187   24.8561 O   0  5  0  0  0  0  0  0  0  0  0  0
   19.2399   19.7314   24.8389 O   0  0  0  0  0  0  0  0  0  0  0  0
   18.9274   18.3564   22.9475 C   0  0  0  0  0  0  0  0  0  0  0  0
   18.0788   19.0276   22.7674 H   0  0  0  0  0  0  0  0  0  0  0  0
   18.5239   17.3374   22.9818 H   0  0  0  0  0  0  0  0  0  0  0  0
   19.9526   18.4677   21.7892 C   0  0  0  0  0  0  0  0  0  0  0  0
   20.8096   17.8120   21.9970 H   0  0  0  0  0  0  0  0  0  0  0  0
   19.4880   18.0975   20.8653 H   0  0  0  0  0  0  0  0  0  0  0  0
   20.4431   19.9149   21.5673 C   0  0  0  0  0  0  0  0  0  0  0  0
   20.9284   20.2891   22.4796 H   0  0  0  0  0  0  0  0  0  0  0  0
   19.5840   20.5716   21.3719 H   0  0  0  0  0  0  0  0  0  0  0  0
   21.4341   20.0027   20.3899 C   0  0  0  0  0  0  0  0  0  0  0  0
   22.3183   19.3784   20.5738 H   0  0  0  0  0  0  0  0  0  0  0  0
   21.7733   21.0369   20.2464 H   0  0  0  0  0  0  0  0  0  0  0  0
   20.9653   19.6670   19.4556 H   0  0  0  0  0  0  0  0  0  0  0  0
  1  2  1  0  0  0  0
  1  3  2  0  0  0  0
  1  4  1  0  0  0  0
  4  5  1  0  0  0  0
  4  6  1  0  0  0  0
  4  7  1  0  0  0  0
  7  8  1  0  0  0  0
  7  9  1  0  0  0  0
  7 10  1  0  0  0  0
 10 11  1  0  0  0  0
 10 12  1  0  0  0  0
 10 13  1  0  0  0  0
 13 14  1  0  0  0  0
 13 15  1  0  0  0  0
 13 16  1  0  0  0  0
M  END
> <VConfSearch Rank>
185

> <Conf_Id>
19

> <Delta U+W>
0.048

> <U+W>
-56.856

> <U>
8.276

> <W>
-65.132

> <W(PB)>
-67.031

> <W(SA)>
1.899

> <Valence>
6.513

> <Coulomb>
1.428

> <VdW>
0.335

> <VdW6>
-5.021

> <VdW12>
5.356

> <Bond>
0.092

> <Angle>
2.417

> <Pdih>
4.003

> <Idih>
0.001

> <Tether>
0.000

$$$$
VeraChem MOL file


 16 15  0  0  0  0  0  0  0  0999 V2000     
   18.8812   18.8820   24.2260 C   0  0  0  0  0  0  0  0  0  0  0  0
   19.6898   18.6879   25.1120 O   0  5  0  0  0  0  0  0  0  0  0  0
   17.8897   18.1994   24.0610 O   0  0  0  0  0  0  0  0  0  0  0  0
   19.1133   20.0613   23.2854 C   0  0  0  0  0  0  0  0  0  0  0  0
   19.3856   20.9252   23.9032 H   0  0  0  0  0  0  0  0  0  0  0  0
   18.1648   20.3095   22.7936 H   0  0  0  0  0  0  0  0  0  0  0  0
   20.2176   19.8159   22.2245 C   0  0  0  0  0  0  0  0  0  0  0  0
   20.4120   20.7548   21.6886 H   0  0  0  0  0  0  0  0  0  0  0  0
   21.1537   19.5407   22.7302 H   0  0  0  0  0  0  0  0  0  0  0  0
   19.8310   18.7204   21.2074 C   0  0  0  0  0  0  0  0  0  0  0  0
   18.8886   18.9909   20.7115 H   0  0  0  0  0  0  0  0  0  0  0  0
   19.6539   17.7703   21.7305 H   0  0  0  0  0  0  0  0  0  0  0  0
   20.9304   18.5203   20.1454 C   0  0  0  0  0  0  0  0  0  0  0  0
   21.1055   19.4460   19.5817 H   0  0  0  0  0  0  0  0  0  0  0  0
   20.6405   17.7384   19.4315 H   0  0  0  0  0  0  0  0  0  0  0  0
   21.8771   18.2187   20.6126 H   0  0  0  0  0  0  0  0  0  0  0  0
  1  2  1  0  0  0  0
  1  3  2  0  0  0  0
  1  4  1  0  0  0  0
  4  5  1  0  0  0  0
  4  6  1  0  0  0  0
  4  7  1  0  0  0  0
  7  8  1  0  0  0  0
  7  9  1  0  0  0  0
  7 10  1  0  0  0  0
 10 11  1  0  0  0  0
 10 12  1  0  0  0  0
 10 13  1  0  0  0  0
 13 14  1  0  0  0  0
 13 15  1  0  0  0  0
 13 16  1  0  0  0  0
M  END
> <VConfSearch Rank>
186

> <Conf_Id>
20

> <Delta U+W>
-0.010

> <U+W>
-56.914

> <U>
8.277

> <W>
-65.191

> <W(PB)>
-67.081

> <W(SA)>
1.890

> <Valence>
6.513

> <Coulomb>
1.429

> <VdW>
0.335

> <VdW6>
-5.021

> <VdW12>
5.356

> <Bond>
0.092

> <Angle>
2.417

> <Pdih>
4.002

> <Idih>
0.001

> <Tether>
0.000

$$$$
VeraChem MOL file


 16 15  0  0  0  0  0  0  0  0999 V2000     
   18.7753   20.7210   21.1713 C   0  0  0  0  0  0  0  0  0  0  0  0
   17.9900   20.5095   20.2683 O   0  5  0  0  0  0  0  0  0  0  0  0
   19.6215   21.5922   21.1333 O   0  0  0  0  0  0  0  0  0  0  0  0
   18.6686   19.8680   22.4325 C   0  0  0  0  0  0  0  0  0  0  0  0
   17.6190   19.8847   22.7489 H   0  0  0  0  0  0  0  0  0  0  0  0
   19.2414   20.3500   23.2329 H   0  0  0  0  0  0  0  0  0  0  0  0
   19.1237   18.3948   22.2443 C   0  0  0  0  0  0  0  0  0  0  0  0
   18.9380   17.8391   23.1733 H   0  0  0  0  0  0  0  0  0  0  0  0
   18.4945   17.9269   21.4745 H   0  0  0  0  0  0  0  0  0  0  0  0
   20.6090   18.2326   21.8424 C   0  0  0  0  0  0  0  0  0  0  0  0
   20.7999   18.7557   20.8950 H   0  0  0  0  0  0  0  0  0  0  0  0
   20.8089   17.1688   21.6538 H   0  0  0  0  0  0  0  0  0  0  0  0
   21.5902   18.7401   22.9204 C   0  0  0  0  0  0  0  0  0  0  0  0
   21.5091   19.8266   23.0525 H   0  0  0  0  0  0  0  0  0  0  0  0
   22.6256   18.5176   22.6318 H   0  0  0  0  0  0  0  0  0  0  0  0
   21.3970   18.2581   23.8875 H   0  0  0  0  0  0  0  0  0  0  0  0
  1  2  1  0  0  0  0
  1  3  2  0  0  0  0
  1  4  1  0  0  0  0
  4  5  1  0  0  0  0
  4  6  1  0  0  0  0
  4  7  1  0  0  0  0
  7  8  1  0  0  0  0
  7  9  1  0  0  0  0
  7 10  1  0  0  0  0
 10 11  1  0  0  0  0
 10 12  1  0  0  0  0
 10 13  1  0  0  0  0
 13 14  1  0  0  0  0
 13 15  1  0  0  0  0
 13 16  1  0  0  0  0
M  END
> <VConfSearch Rank>
187

> <Conf_Id>
37

> <Delta U+W>
1.063

> <U+W>
-55.841

> <U>
9.719

> <W>
-65.560

> <W(PB)>
-67.414

> <W(SA)>
1.854

> <Valence>
7.002

> <Coulomb>
2.402

> <VdW>
0.314

> <VdW6>
-5.861

> <VdW12>
6.175

> <Bond>
0.134

> <Angle>
2.733

> <Pdih>
4.133

> <Idih>
0.002

> <Tether>
0.000

$$$$
VeraChem MOL file


 16 15  0  0  0  0  0  0  0  0999 V2000     
   21.0976   20.9468   21.5282 C   0  0  0  0  0  0  0  0  0  0  0  0
   22.3047   21.0781   21.4790 O   0  5  0  0  0  0  0  0  0  0  0  0
   20.3492   21.2883   20.6340 O   0  0  0  0  0  0  0  0  0  0  0  0
   20.4894   20.3531   22.7960 C   0  0  0  0  0  0  0  0  0  0  0  0
   19.4118   20.5531   22.7964 H   0  0  0  0  0  0  0  0  0  0  0  0
   20.9073   20.9044   23.6465 H   0  0  0  0  0  0  0  0  0  0  0  0
   20.7648   18.8360   22.9833 C   0  0  0  0  0  0  0  0  0  0  0  0
   21.8510   18.6781   23.0327 H   0  0  0  0  0  0  0  0  0  0  0  0
   20.3625   18.5140   23.9533 H   0  0  0  0  0  0  0  0  0  0  0  0
   20.1797   17.9389   21.8667 C   0  0  0  0  0  0  0  0  0  0  0  0
   20.4970   16.9023   22.0448 H   0  0  0  0  0  0  0  0  0  0  0  0
   20.6015   18.2285   20.8941 H   0  0  0  0  0  0  0  0  0  0  0  0
   18.6384   17.9827   21.7957 C   0  0  0  0  0  0  0  0  0  0  0  0
   18.1919   17.7313   22.7665 H   0  0  0  0  0  0  0  0  0  0  0  0
   18.2679   17.2617   21.0556 H   0  0  0  0  0  0  0  0  0  0  0  0
   18.2817   18.9768   21.4974 H   0  0  0  0  0  0  0  0  0  0  0  0
  1  2  1  0  0  0  0
  1  3  2  0  0  0  0
  1  4  1  0  0  0  0
  4  5  1  0  0  0  0
  4  6  1  0  0  0  0
  4  7  1  0  0  0  0
  7  8  1  0  0  0  0
  7  9  1  0  0  0  0
  7 10  1  0  0  0  0
 10 11  1  0  0  0  0
 10 12  1  0  0  0  0
 10 13  1  0  0  0  0
 13 14  1  0  0  0  0
 13 15  1  0  0  0  0
 13 16  1  0  0  0  0
M  END
> <VConfSearch Rank>
188

> <Conf_Id>
39

> <Delta U+W>
1.129

> <U+W>
-55.775

> <U>
9.718

> <W>
-65.493

> <W(PB)>
-67.361

> <W(SA)>
1.869

> <Valence>
7.002

> <Coulomb>
2.402

> <VdW>
0.314

> <VdW6>
-5.861

> <VdW12>
6.175

> <Bond>
0.134

> <Angle>
2.734

> <Pdih>
4.133

> <Idih>
0.002

> <Tether>
0.000

$$$$
VeraChem MOL file


 16 15  0  0  0  0  0  0  0  0999 V2000     
   21.5278   20.0937   22.8179 C   0  0  0  0  0  0  0  0  0  0  0  0
   21.2592   20.9452   23.6424 O   0  5  0  0  0  0  0  0  0  0  0  0
   22.2027   20.3086   21.8302 O   0  0  0  0  0  0  0  0  0  0  0  0
   21.0687   18.6614   23.0849 C   0  0  0  0  0  0  0  0  0  0  0  0
   20.5457   18.6280   24.0485 H   0  0  0  0  0  0  0  0  0  0  0  0
   21.9791   18.0620   23.2019 H   0  0  0  0  0  0  0  0  0  0  0  0
   20.1869   18.0279   21.9722 C   0  0  0  0  0  0  0  0  0  0  0  0
   20.6173   18.2445   20.9846 H   0  0  0  0  0  0  0  0  0  0  0  0
   20.2280   16.9364   22.0875 H   0  0  0  0  0  0  0  0  0  0  0  0
   18.6983   18.4504   22.0073 C   0  0  0  0  0  0  0  0  0  0  0  0
   18.2723   18.2341   22.9967 H   0  0  0  0  0  0  0  0  0  0  0  0
   18.1440   17.8291   21.2903 H   0  0  0  0  0  0  0  0  0  0  0  0
   18.4623   19.9335   21.6536 C   0  0  0  0  0  0  0  0  0  0  0  0
   18.8569   20.5976   22.4322 H   0  0  0  0  0  0  0  0  0  0  0  0
   17.3883   20.1391   21.5579 H   0  0  0  0  0  0  0  0  0  0  0  0
   18.9437   20.1932   20.7017 H   0  0  0  0  0  0  0  0  0  0  0  0
  1  2  1  0  0  0  0
  1  3  2  0  0  0  0
  1  4  1  0  0  0  0
  4  5  1  0  0  0  0
  4  6  1  0  0  0  0
  4  7  1  0  0  0  0
  7  8  1  0  0  0  0
  7  9  1  0  0  0  0
  7 10  1  0  0  0  0
 10 11  1  0  0  0  0
 10 12  1  0  0  0  0
 10 13  1  0  0  0  0
 13 14  1  0  0  0  0
 13 15  1  0  0  0  0
 13 16  1  0  0  0  0
M  END
> <VConfSearch Rank>
189

> <Conf_Id>
47

> <Delta U+W>
2.301

> <U+W>
-54.603

> <U>
11.258

> <W>
-65.861

> <W(PB)>
-67.702

> <W(SA)>
1.841

> <Valence>
8.169

> <Coulomb>
2.735

> <VdW>
0.355

> <VdW6>
-6.245

> <VdW12>
6.600

> <Bond>
0.149

> <Angle>
3.168

> <Pdih>
4.840

> <Idih>
0.011

> <Tether>
0.000

$$$$
VeraChem MOL file


 16 15  0  0  0  0  0  0  0  0999 V2000     
   21.8023   19.2575   21.7648 C   0  0  0  0  0  0  0  0  0  0  0  0
   22.0714   20.4298   21.5906 O   0  5  0  0  0  0  0  0  0  0  0  0
   22.1234   18.3760   20.9923 O   0  0  0  0  0  0  0  0  0  0  0  0
   21.1039   18.8590   23.0637 C   0  0  0  0  0  0  0  0  0  0  0  0
   21.7823   19.1397   23.8777 H   0  0  0  0  0  0  0  0  0  0  0  0
   21.0092   17.7668   23.0973 H   0  0  0  0  0  0  0  0  0  0  0  0
   19.7210   19.5265   23.3063 C   0  0  0  0  0  0  0  0  0  0  0  0
   19.4980   19.4637   24.3800 H   0  0  0  0  0  0  0  0  0  0  0  0
   19.7761   20.5984   23.0708 H   0  0  0  0  0  0  0  0  0  0  0  0
   18.5444   18.8741   22.5412 C   0  0  0  0  0  0  0  0  0  0  0  0
   17.6062   19.3150   22.9055 H   0  0  0  0  0  0  0  0  0  0  0  0
   18.4939   17.8024   22.7779 H   0  0  0  0  0  0  0  0  0  0  0  0
   18.6125   19.0651   21.0117 C   0  0  0  0  0  0  0  0  0  0  0  0
   17.6891   18.7071   20.5386 H   0  0  0  0  0  0  0  0  0  0  0  0
   19.4462   18.5015   20.5755 H   0  0  0  0  0  0  0  0  0  0  0  0
   18.7384   20.1244   20.7520 H   0  0  0  0  0  0  0  0  0  0  0  0
  1  2  1  0  0  0  0
  1  3  2  0  0  0  0
  1  4  1  0  0  0  0
  4  5  1  0  0  0  0
  4  6  1  0  0  0  0
  4  7  1  0  0  0  0
  7  8  1  0  0  0  0
  7  9  1  0  0  0  0
  7 10  1  0  0  0  0
 10 11  1  0  0  0  0
 10 12  1  0  0  0  0
 10 13  1  0  0  0  0
 13 14  1  0  0  0  0
 13 15  1  0  0  0  0
 13 16  1  0  0  0  0
M  END
> <VConfSearch Rank>
190

> <Conf_Id>
45

> <Delta U+W>
2.303

> <U+W>
-54.601

> <U>
11.258

> <W>
-65.860

> <W(PB)>
-67.709

> <W(SA)>
1.849

> <Valence>
8.169

> <Coulomb>
2.735

> <VdW>
0.355

> <VdW6>
-6.245

> <VdW12>
6.600

> <Bond>
0.149

> <Angle>
3.168

> <Pdih>
4.840

> <Idih>
0.011

> <Tether>
0.000

$$$$
VeraChem MOL file


 16 15  0  0  0  0  0  0  0  0999 V2000     
   18.4065   17.3782   20.4993 C   0  0  0  0  0  0  0  0  0  0  0  0
   19.3258   16.9214   19.8481 O   0  5  0  0  0  0  0  0  0  0  0  0
   17.2558   17.0123   20.3677 O   0  0  0  0  0  0  0  0  0  0  0  0
   18.6788   18.4654   21.5403 C   0  0  0  0  0  0  0  0  0  0  0  0
   18.3153   18.0929   22.5053 H   0  0  0  0  0  0  0  0  0  0  0  0
   18.0608   19.3321   21.2776 H   0  0  0  0  0  0  0  0  0  0  0  0
   20.1624   18.9011   21.6725 C   0  0  0  0  0  0  0  0  0  0  0  0
   20.7774   18.0277   21.9303 H   0  0  0  0  0  0  0  0  0  0  0  0
   20.5226   19.2682   20.7014 H   0  0  0  0  0  0  0  0  0  0  0  0
   20.3448   19.9983   22.7421 C   0  0  0  0  0  0  0  0  0  0  0  0
   19.9866   19.6318   23.7142 H   0  0  0  0  0  0  0  0  0  0  0  0
   19.7316   20.8730   22.4846 H   0  0  0  0  0  0  0  0  0  0  0  0
   21.8201   20.4267   22.8687 C   0  0  0  0  0  0  0  0  0  0  0  0
   22.4526   19.5767   23.1566 H   0  0  0  0  0  0  0  0  0  0  0  0
   21.9322   21.2068   23.6330 H   0  0  0  0  0  0  0  0  0  0  0  0
   22.1958   20.8271   21.9179 H   0  0  0  0  0  0  0  0  0  0  0  0
  1  2  1  0  0  0  0
  1  3  2  0  0  0  0
  1  4  1  0  0  0  0
  4  5  1  0  0  0  0
  4  6  1  0  0  0  0
  4  7  1  0  0  0  0
  7  8  1  0  0  0  0
  7  9  1  0  0  0  0
  7 10  1  0  0  0  0
 10 11  1  0  0  0  0
 10 12  1  0  0  0  0
 10 13  1  0  0  0  0
 13 14  1  0  0  0  0
 13 15  1  0  0  0  0
 13 16  1  0  0  0  0
M  END
> <VConfSearch Rank>
191

> <Conf_Id>
0

> <Delta U+W>
0.000

> <U+W>
-56.904

> <U>
7.329

> <W>
-64.233

> <W(PB)>
-66.148

> <W(SA)>
1.915

> <Valence>
6.755

> <Coulomb>
-0.421

> <VdW>
0.995

> <VdW6>
-4.495

> <VdW12>
5.490

> <Bond>
0.106

> <Angle>
2.715

> <Pdih>
3.934

> <Idih>
0.000

> <Tether>
0.000

$$$$
VeraChem MOL file


 16 15  0  0  0  0  0  0  0  0999 V2000     
   20.1791   17.6956   19.6158 C   0  0  0  0  0  0  0  0  0  0  0  0
   21.2964   17.5905   19.1505 O   0  5  0  0  0  0  0  0  0  0  0  0
   19.3132   16.8542   19.4812 O   0  0  0  0  0  0  0  0  0  0  0  0
   19.8515   18.9433   20.4285 C   0  0  0  0  0  0  0  0  0  0  0  0
   18.7889   19.1743   20.2853 H   0  0  0  0  0  0  0  0  0  0  0  0
   20.4240   19.7813   20.0128 H   0  0  0  0  0  0  0  0  0  0  0  0
   20.1635   18.7796   21.9365 C   0  0  0  0  0  0  0  0  0  0  0  0
   19.5926   17.9295   22.3352 H   0  0  0  0  0  0  0  0  0  0  0  0
   21.2277   18.5364   22.0627 H   0  0  0  0  0  0  0  0  0  0  0  0
   19.8232   20.0551   22.7351 C   0  0  0  0  0  0  0  0  0  0  0  0
   18.7589   20.2982   22.6097 H   0  0  0  0  0  0  0  0  0  0  0  0
   20.3945   20.9053   22.3371 H   0  0  0  0  0  0  0  0  0  0  0  0
   20.1363   19.8850   24.2348 C   0  0  0  0  0  0  0  0  0  0  0  0
   21.2018   19.6717   24.3918 H   0  0  0  0  0  0  0  0  0  0  0  0
   19.5542   19.0602   24.6664 H   0  0  0  0  0  0  0  0  0  0  0  0
   19.8887   20.8003   24.7878 H   0  0  0  0  0  0  0  0  0  0  0  0
  1  2  1  0  0  0  0
  1  3  2  0  0  0  0
  1  4  1  0  0  0  0
  4  5  1  0  0  0  0
  4  6  1  0  0  0  0
  4  7  1  0  0  0  0
  7  8  1  0  0  0  0
  7  9  1  0  0  0  0
  7 10  1  0  0  0  0
 10 11  1  0  0  0  0
 10 12  1  0  0  0  0
 10 13  1  0  0  0  0
 13 14  1  0  0  0  0
 13 15  1  0  0  0  0
 13 16  1  0  0  0  0
M  END
> <VConfSearch Rank>
192

> <Conf_Id>
22

> <Delta U+W>
-1.185

> <U+W>
-58.089

> <U>
6.298

> <W>
-64.387

> <W(PB)>
-66.329

> <W(SA)>
1.942

> <Valence>
6.246

> <Coulomb>
-0.408

> <VdW>
0.460

> <VdW6>
-4.207

> <VdW12>
4.667

> <Bond>
0.072

> <Angle>
2.246

> <Pdih>
3.928

> <Idih>
0.001

> <Tether>
0.000

$$$$
VeraChem MOL file


 16 15  0  0  0  0  0  0  0  0999 V2000     
   21.1566   16.9996   21.1688 C   0  0  0  0  0  0  0  0  0  0  0  0
   22.3229   16.9932   20.8287 O   0  5  0  0  0  0  0  0  0  0  0  0
   20.3536   16.1532   20.8299 O   0  0  0  0  0  0  0  0  0  0  0  0
   20.6700   18.1429   22.0523 C   0  0  0  0  0  0  0  0  0  0  0  0
   21.5008   18.4513   22.6983 H   0  0  0  0  0  0  0  0  0  0  0  0
   19.8806   17.7499   22.7032 H   0  0  0  0  0  0  0  0  0  0  0  0
   20.1501   19.3544   21.2356 C   0  0  0  0  0  0  0  0  0  0  0  0
   20.9339   19.6689   20.5326 H   0  0  0  0  0  0  0  0  0  0  0  0
   19.2915   19.0432   20.6247 H   0  0  0  0  0  0  0  0  0  0  0  0
   19.7554   20.5644   22.1133 C   0  0  0  0  0  0  0  0  0  0  0  0
   19.5052   21.4097   21.4575 H   0  0  0  0  0  0  0  0  0  0  0  0
   20.6174   20.8831   22.7157 H   0  0  0  0  0  0  0  0  0  0  0  0
   18.5529   20.2790   23.0382 C   0  0  0  0  0  0  0  0  0  0  0  0
   18.7962   19.5162   23.7883 H   0  0  0  0  0  0  0  0  0  0  0  0
   17.6868   19.9307   22.4604 H   0  0  0  0  0  0  0  0  0  0  0  0
   18.2569   21.1899   23.5746 H   0  0  0  0  0  0  0  0  0  0  0  0
  1  2  1  0  0  0  0
  1  3  2  0  0  0  0
  1  4  1  0  0  0  0
  4  5  1  0  0  0  0
  4  6  1  0  0  0  0
  4  7  1  0  0  0  0
  7  8  1  0  0  0  0
  7  9  1  0  0  0  0
  7 10  1  0  0  0  0
 10 11  1  0  0  0  0
 10 12  1  0  0  0  0
 10 13  1  0  0  0  0
 13 14  1  0  0  0  0
 13 15  1  0  0  0  0
 13 16  1  0  0  0  0
M  END
> <VConfSearch Rank>
193

> <Conf_Id>
36

> <Delta U+W>
-0.427

> <U+W>
-57.331

> <U>
7.263

> <W>
-64.594

> <W(PB)>
-66.513

> <W(SA)>
1.920

> <Valence>
6.734

> <Coulomb>
-0.068

> <VdW>
0.598

> <VdW6>
-4.819

> <VdW12>
5.417

> <Bond>
0.107

> <Angle>
2.469

> <Pdih>
4.157

> <Idih>
0.001

> <Tether>
0.000

$$$$
VeraChem MOL file


 16 15  0  0  0  0  0  0  0  0999 V2000     
   19.0672   19.8828   19.6775 C   0  0  0  0  0  0  0  0  0  0  0  0
   19.9598   19.9308   18.8547 O   0  5  0  0  0  0  0  0  0  0  0  0
   18.0005   20.4490   19.5448 O   0  0  0  0  0  0  0  0  0  0  0  0
   19.3056   19.0853   20.9549 C   0  0  0  0  0  0  0  0  0  0  0  0
   19.9558   18.2393   20.7045 H   0  0  0  0  0  0  0  0  0  0  0  0
   18.3444   18.6712   21.2822 H   0  0  0  0  0  0  0  0  0  0  0  0
   19.9334   19.9383   22.0877 C   0  0  0  0  0  0  0  0  0  0  0  0
   20.9146   20.3123   21.7642 H   0  0  0  0  0  0  0  0  0  0  0  0
   19.3032   20.8230   22.2543 H   0  0  0  0  0  0  0  0  0  0  0  0
   20.0803   19.1745   23.4239 C   0  0  0  0  0  0  0  0  0  0  0  0
   19.0974   18.8105   23.7535 H   0  0  0  0  0  0  0  0  0  0  0  0
   20.4266   19.8760   24.1954 H   0  0  0  0  0  0  0  0  0  0  0  0
   21.0712   17.9935   23.3440 C   0  0  0  0  0  0  0  0  0  0  0  0
   20.7081   17.2107   22.6664 H   0  0  0  0  0  0  0  0  0  0  0  0
   21.2069   17.5391   24.3340 H   0  0  0  0  0  0  0  0  0  0  0  0
   22.0543   18.3288   22.9885 H   0  0  0  0  0  0  0  0  0  0  0  0
  1  2  1  0  0  0  0
  1  3  2  0  0  0  0
  1  4  1  0  0  0  0
  4  5  1  0  0  0  0
  4  6  1  0  0  0  0
  4  7  1  0  0  0  0
  7  8  1  0  0  0  0
  7  9  1  0  0  0  0
  7 10  1  0  0  0  0
 10 11  1  0  0  0  0
 10 12  1  0  0  0  0
 10 13  1  0  0  0  0
 13 14  1  0  0  0  0
 13 15  1  0  0  0  0
 13 16  1  0  0  0  0
M  END
> <VConfSearch Rank>
194

> <Conf_Id>
17

> <Delta U+W>
-0.432

> <U+W>
-57.336

> <U>
7.263

> <W>
-64.599

> <W(PB)>
-66.503

> <W(SA)>
1.904

> <Valence>
6.734

> <Coulomb>
-0.068

> <VdW>
0.598

> <VdW6>
-4.819

> <VdW12>
5.417

> <Bond>
0.107

> <Angle>
2.469

> <Pdih>
4.157

> <Idih>
0.001

> <Tether>
0.000

$$$$
VeraChem MOL file


 16 15  0  0  0  0  0  0  0  0999 V2000     
   19.8087   18.6189   19.8035 C   0  0  0  0  0  0  0  0  0  0  0  0
   18.6392   18.5139   19.4911 O   0  5  0  0  0  0  0  0  0  0  0  0
   20.6120   19.2857   19.1820 O   0  0  0  0  0  0  0  0  0  0  0  0
   20.2980   17.8518   21.0289 C   0  0  0  0  0  0  0  0  0  0  0  0
   21.3899   17.7635   20.9743 H   0  0  0  0  0  0  0  0  0  0  0  0
   19.8940   16.8347   20.9623 H   0  0  0  0  0  0  0  0  0  0  0  0
   19.8798   18.4867   22.3806 C   0  0  0  0  0  0  0  0  0  0  0  0
   18.7866   18.5952   22.4092 H   0  0  0  0  0  0  0  0  0  0  0  0
   20.1510   17.8016   23.1952 H   0  0  0  0  0  0  0  0  0  0  0  0
   20.5478   19.8572   22.6249 C   0  0  0  0  0  0  0  0  0  0  0  0
   20.2668   20.5577   21.8261 H   0  0  0  0  0  0  0  0  0  0  0  0
   21.6405   19.7495   22.5836 H   0  0  0  0  0  0  0  0  0  0  0  0
   20.1419   20.4499   23.9888 C   0  0  0  0  0  0  0  0  0  0  0  0
   19.0553   20.5969   24.0451 H   0  0  0  0  0  0  0  0  0  0  0  0
   20.6242   21.4234   24.1462 H   0  0  0  0  0  0  0  0  0  0  0  0
   20.4415   19.7864   24.8106 H   0  0  0  0  0  0  0  0  0  0  0  0
  1  2  1  0  0  0  0
  1  3  2  0  0  0  0
  1  4  1  0  0  0  0
  4  5  1  0  0  0  0
  4  6  1  0  0  0  0
  4  7  1  0  0  0  0
  7  8  1  0  0  0  0
  7  9  1  0  0  0  0
  7 10  1  0  0  0  0
 10 11  1  0  0  0  0
 10 12  1  0  0  0  0
 10 13  1  0  0  0  0
 13 14  1  0  0  0  0
 13 15  1  0  0  0  0
 13 16  1  0  0  0  0
M  END
> <VConfSearch Rank>
195

> <Conf_Id>
19

> <Delta U+W>
0.048

> <U+W>
-56.856

> <U>
8.276

> <W>
-65.132

> <W(PB)>
-67.031

> <W(SA)>
1.899

> <Valence>
6.513

> <Coulomb>
1.428

> <VdW>
0.335

> <VdW6>
-5.021

> <VdW12>
5.356

> <Bond>
0.092

> <Angle>
2.417

> <Pdih>
4.003

> <Idih>
0.001

> <Tether>
0.000

$$$$
VeraChem MOL file


 16 15  0  0  0  0  0  0  0  0999 V2000     
   21.0579   19.5438   24.0993 C   0  0  0  0  0  0  0  0  0  0  0  0
   20.7913   18.7518   24.9815 O   0  5  0  0  0  0  0  0  0  0  0  0
   21.0795   20.7476   24.2623 O   0  0  0  0  0  0  0  0  0  0  0  0
   21.4070   18.9933   22.7192 C   0  0  0  0  0  0  0  0  0  0  0  0
   22.1073   18.1623   22.8649 H   0  0  0  0  0  0  0  0  0  0  0  0
   21.9456   19.7674   22.1590 H   0  0  0  0  0  0  0  0  0  0  0  0
   20.1814   18.5003   21.9069 C   0  0  0  0  0  0  0  0  0  0  0  0
   20.5359   17.9981   20.9965 H   0  0  0  0  0  0  0  0  0  0  0  0
   19.6360   17.7467   22.4919 H   0  0  0  0  0  0  0  0  0  0  0  0
   19.2273   19.6494   21.5152 C   0  0  0  0  0  0  0  0  0  0  0  0
   19.7769   20.4080   20.9409 H   0  0  0  0  0  0  0  0  0  0  0  0
   18.8499   20.1466   22.4196 H   0  0  0  0  0  0  0  0  0  0  0  0
   18.0367   19.1372   20.6806 C   0  0  0  0  0  0  0  0  0  0  0  0
   18.3821   18.6649   19.7516 H   0  0  0  0  0  0  0  0  0  0  0  0
   17.3684   19.9656   20.4115 H   0  0  0  0  0  0  0  0  0  0  0  0
   17.4513   18.3987   21.2440 H   0  0  0  0  0  0  0  0  0  0  0  0
  1  2  1  0  0  0  0
  1  3  2  0  0  0  0
  1  4  1  0  0  0  0
  4  5  1  0  0  0  0
  4  6  1  0  0  0  0
  4  7  1  0  0  0  0
  7  8  1  0  0  0  0
  7  9  1  0  0  0  0
  7 10  1  0  0  0  0
 10 11  1  0  0  0  0
 10 12  1  0  0  0  0
 10 13  1  0  0  0  0
 13 14  1  0  0  0  0
 13 15  1  0  0  0  0
 13 16  1  0  0  0  0
M  END
> <VConfSearch Rank>
196

> <Conf_Id>
20

> <Delta U+W>
-0.010

> <U+W>
-56.914

> <U>
8.277

> <W>
-65.191

> <W(PB)>
-67.081

> <W(SA)>
1.890

> <Valence>
6.513

> <Coulomb>
1.429

> <VdW>
0.335

> <VdW6>
-5.021

> <VdW12>
5.356

> <Bond>
0.092

> <Angle>
2.417

> <Pdih>
4.002

> <Idih>
0.001

> <Tether>
0.000

$$$$
VeraChem MOL file


 16 15  0  0  0  0  0  0  0  0999 V2000     
   20.0485   19.7107   20.1033 C   0  0  0  0  0  0  0  0  0  0  0  0
   19.4487   20.6437   19.6067 O   0  5  0  0  0  0  0  0  0  0  0  0
   20.1243   18.6126   19.5887 O   0  0  0  0  0  0  0  0  0  0  0  0
   20.7724   19.9431   21.4268 C   0  0  0  0  0  0  0  0  0  0  0  0
   21.3826   20.8464   21.3098 H   0  0  0  0  0  0  0  0  0  0  0  0
   21.4719   19.1162   21.5952 H   0  0  0  0  0  0  0  0  0  0  0  0
   19.8270   20.1176   22.6468 C   0  0  0  0  0  0  0  0  0  0  0  0
   20.4262   20.3587   23.5351 H   0  0  0  0  0  0  0  0  0  0  0  0
   19.1776   20.9858   22.4684 H   0  0  0  0  0  0  0  0  0  0  0  0
   18.9418   18.8851   22.9491 C   0  0  0  0  0  0  0  0  0  0  0  0
   18.3113   18.6544   22.0792 H   0  0  0  0  0  0  0  0  0  0  0  0
   18.2561   19.1365   23.7699 H   0  0  0  0  0  0  0  0  0  0  0  0
   19.7548   17.6342   23.3450 C   0  0  0  0  0  0  0  0  0  0  0  0
   20.3649   17.2743   22.5067 H   0  0  0  0  0  0  0  0  0  0  0  0
   19.0831   16.8180   23.6406 H   0  0  0  0  0  0  0  0  0  0  0  0
   20.4206   17.8484   24.1912 H   0  0  0  0  0  0  0  0  0  0  0  0
  1  2  1  0  0  0  0
  1  3  2  0  0  0  0
  1  4  1  0  0  0  0
  4  5  1  0  0  0  0
  4  6  1  0  0  0  0
  4  7  1  0  0  0  0
  7  8  1  0  0  0  0
  7  9  1  0  0  0  0
  7 10  1  0  0  0  0
 10 11  1  0  0  0  0
 10 12  1  0  0  0  0
 10 13  1  0  0  0  0
 13 14  1  0  0  0  0
 13 15  1  0  0  0  0
 13 16  1  0  0  0  0
M  END
> <VConfSearch Rank>
197

> <Conf_Id>
37

> <Delta U+W>
1.063

> <U+W>
-55.841

> <U>
9.719

> <W>
-65.560

> <W(PB)>
-67.414

> <W(SA)>
1.854

> <Valence>
7.002

> <Coulomb>
2.402

> <VdW>
0.314

> <VdW6>
-5.861

> <VdW12>
6.175

> <Bond>
0.134

> <Angle>
2.733

> <Pdih>
4.133

> <Idih>
0.002

> <Tether>
0.000

$$$$
VeraChem MOL file


 16 15  0  0  0  0  0  0  0  0999 V2000     
   20.2819   19.1877   20.0298 C   0  0  0  0  0  0  0  0  0  0  0  0
   20.5217   18.2055   19.3556 O   0  5  0  0  0  0  0  0  0  0  0  0
   19.4007   19.9820   19.7672 O   0  0  0  0  0  0  0  0  0  0  0  0
   21.1581   19.4539   21.2509 C   0  0  0  0  0  0  0  0  0  0  0  0
   20.9996   20.4875   21.5792 H   0  0  0  0  0  0  0  0  0  0  0  0
   22.2021   19.3894   20.9227 H   0  0  0  0  0  0  0  0  0  0  0  0
   20.9283   18.4648   22.4263 C   0  0  0  0  0  0  0  0  0  0  0  0
   21.1475   17.4460   22.0780 H   0  0  0  0  0  0  0  0  0  0  0  0
   21.6516   18.6797   23.2244 H   0  0  0  0  0  0  0  0  0  0  0  0
   19.4975   18.4947   23.0146 C   0  0  0  0  0  0  0  0  0  0  0  0
   19.4135   17.7083   23.7772 H   0  0  0  0  0  0  0  0  0  0  0  0
   18.7660   18.2467   22.2329 H   0  0  0  0  0  0  0  0  0  0  0  0
   19.1309   19.8504   23.6549 C   0  0  0  0  0  0  0  0  0  0  0  0
   19.8673   20.1388   24.4161 H   0  0  0  0  0  0  0  0  0  0  0  0
   18.1477   19.7923   24.1396 H   0  0  0  0  0  0  0  0  0  0  0  0
   19.0821   20.6465   22.9009 H   0  0  0  0  0  0  0  0  0  0  0  0
  1  2  1  0  0  0  0
  1  3  2  0  0  0  0
  1  4  1  0  0  0  0
  4  5  1  0  0  0  0
  4  6  1  0  0  0  0
  4  7  1  0  0  0  0
  7  8  1  0  0  0  0
  7  9  1  0  0  0  0
  7 10  1  0  0  0  0
 10 11  1  0  0  0  0
 10 12  1  0  0  0  0
 10 13  1  0  0  0  0
 13 14  1  0  0  0  0
 13 15  1  0  0  0  0
 13 16  1  0  0  0  0
M  END
> <VConfSearch Rank>
198

> <Conf_Id>
39

> <Delta U+W>
1.129

> <U+W>
-55.775

> <U>
9.718

> <W>
-65.493

> <W(PB)>
-67.361

> <W(SA)>
1.869

> <Valence>
7.002

> <Coulomb>
2.402

> <VdW>
0.314

> <VdW6>
-5.861

> <VdW12>
6.175

> <Bond>
0.134

> <Angle>
2.734

> <Pdih>
4.133

> <Idih>
0.002

> <Tether>
0.000

$$$$
VeraChem MOL file


 16 15  0  0  0  0  0  0  0  0999 V2000     
   19.7665   17.4878   21.0744 C   0  0  0  0  0  0  0  0  0  0  0  0
   20.7242   16.7528   21.2134 O   0  5  0  0  0  0  0  0  0  0  0  0
   19.3527   17.8489   19.9902 O   0  0  0  0  0  0  0  0  0  0  0  0
   18.9906   17.9049   22.3224 C   0  0  0  0  0  0  0  0  0  0  0  0
   19.4467   17.4322   23.2008 H   0  0  0  0  0  0  0  0  0  0  0  0
   17.9875   17.4746   22.2206 H   0  0  0  0  0  0  0  0  0  0  0  0
   18.8618   19.4385   22.5431 C   0  0  0  0  0  0  0  0  0  0  0  0
   18.5998   19.9322   21.5970 H   0  0  0  0  0  0  0  0  0  0  0  0
   18.0150   19.6135   23.2204 H   0  0  0  0  0  0  0  0  0  0  0  0
   20.1100   20.1098   23.1650 C   0  0  0  0  0  0  0  0  0  0  0  0
   20.3697   19.6121   24.1095 H   0  0  0  0  0  0  0  0  0  0  0  0
   19.8543   21.1468   23.4230 H   0  0  0  0  0  0  0  0  0  0  0  0
   21.3389   20.1270   22.2324 C   0  0  0  0  0  0  0  0  0  0  0  0
   21.7361   19.1167   22.0763 H   0  0  0  0  0  0  0  0  0  0  0  0
   22.1431   20.7338   22.6681 H   0  0  0  0  0  0  0  0  0  0  0  0
   21.0846   20.5532   21.2531 H   0  0  0  0  0  0  0  0  0  0  0  0
  1  2  1  0  0  0  0
  1  3  2  0  0  0  0
  1  4  1  0  0  0  0
  4  5  1  0  0  0  0
  4  6  1  0  0  0  0
  4  7  1  0  0  0  0
  7  8  1  0  0  0  0
  7  9  1  0  0  0  0
  7 10  1  0  0  0  0
 10 11  1  0  0  0  0
 10 12  1  0  0  0  0
 10 13  1  0  0  0  0
 13 14  1  0  0  0  0
 13 15  1  0  0  0  0
 13 16  1  0  0  0  0
M  END
> <VConfSearch Rank>
199

> <Conf_Id>
47

> <Delta U+W>
2.301

> <U+W>
-54.603

> <U>
11.258

> <W>
-65.861

> <W(PB)>
-67.702

> <W(SA)>
1.841

> <Valence>
8.169

> <Coulomb>
2.735

> <VdW>
0.355

> <VdW6>
-6.245

> <VdW12>
6.600

> <Bond>
0.149

> <Angle>
3.168

> <Pdih>
4.840

> <Idih>
0.011

> <Tether>
0.000

$$$$
VeraChem MOL file


 16 15  0  0  0  0  0  0  0  0999 V2000     
   20.0934   17.9376   23.8632 C   0  0  0  0  0  0  0  0  0  0  0  0
   21.0693   17.2326   23.6970 O   0  5  0  0  0  0  0  0  0  0  0  0
   19.0208   17.5148   24.2474 O   0  0  0  0  0  0  0  0  0  0  0  0
   20.2457   19.4449   23.6662 C   0  0  0  0  0  0  0  0  0  0  0  0
   20.9904   19.7783   24.3984 H   0  0  0  0  0  0  0  0  0  0  0  0
   19.3022   19.9367   23.9327 H   0  0  0  0  0  0  0  0  0  0  0  0
   20.7004   19.8869   22.2468 C   0  0  0  0  0  0  0  0  0  0  0  0
   21.1172   20.9001   22.3246 H   0  0  0  0  0  0  0  0  0  0  0  0
   21.5238   19.2465   21.9010 H   0  0  0  0  0  0  0  0  0  0  0  0
   19.5726   19.9206   21.1873 C   0  0  0  0  0  0  0  0  0  0  0  0
   19.9655   20.3941   20.2769 H   0  0  0  0  0  0  0  0  0  0  0  0
   18.7508   20.5602   21.5375 H   0  0  0  0  0  0  0  0  0  0  0  0
   19.0239   18.5274   20.8157 C   0  0  0  0  0  0  0  0  0  0  0  0
   18.3322   18.6012   19.9667 H   0  0  0  0  0  0  0  0  0  0  0  0
   18.4731   18.0791   21.6515 H   0  0  0  0  0  0  0  0  0  0  0  0
   19.8370   17.8460   20.5329 H   0  0  0  0  0  0  0  0  0  0  0  0
  1  2  1  0  0  0  0
  1  3  2  0  0  0  0
  1  4  1  0  0  0  0
  4  5  1  0  0  0  0
  4  6  1  0  0  0  0
  4  7  1  0  0  0  0
  7  8  1  0  0  0  0
  7  9  1  0  0  0  0
  7 10  1  0  0  0  0
 10 11  1  0  0  0  0
 10 12  1  0  0  0  0
 10 13  1  0  0  0  0
 13 14  1  0  0  0  0
 13 15  1  0  0  0  0
 13 16  1  0  0  0  0
M  END
> <VConfSearch Rank>
200

> <Conf_Id>
45

> <Delta U+W>
2.303

> <U+W>
-54.601

> <U>
11.258

> <W>
-65.860

> <W(PB)>
-67.709

> <W(SA)>
1.849

> <Valence>
8.169

> <Coulomb>
2.735

> <VdW>
0.355

> <VdW6>
-6.245

> <VdW12>
6.600

> <Bond>
0.149

> <Angle>
3.168

> <Pdih>
4.840

> <Idih>
0.011

> <Tether>
0.000

$$$$
VeraChem MOL file


 16 15  0  0  0  0  0  0  0  0999 V2000     
   20.3817   21.8056   21.4172 C   0  0  0  0  0  0  0  0  0  0  0  0
   19.8524   21.7711   20.3234 O   0  5  0  0  0  0  0  0  0  0  0  0
   20.8474   22.8202   21.8958 O   0  0  0  0  0  0  0  0  0  0  0  0
   20.4818   20.5290   22.2539 C   0  0  0  0  0  0  0  0  0  0  0  0
   19.9863   20.7259   23.2119 H   0  0  0  0  0  0  0  0  0  0  0  0
   21.5436   20.3620   22.4704 H   0  0  0  0  0  0  0  0  0  0  0  0
   19.8744   19.2585   21.6016 C   0  0  0  0  0  0  0  0  0  0  0  0
   18.8120   19.4337   21.3821 H   0  0  0  0  0  0  0  0  0  0  0  0
   20.3710   19.0695   20.6398 H   0  0  0  0  0  0  0  0  0  0  0  0
   20.0189   18.0213   22.5124 C   0  0  0  0  0  0  0  0  0  0  0  0
   19.5212   18.2084   23.4740 H   0  0  0  0  0  0  0  0  0  0  0  0
   21.0811   17.8439   22.7313 H   0  0  0  0  0  0  0  0  0  0  0  0
   19.4139   16.7629   21.8592 C   0  0  0  0  0  0  0  0  0  0  0  0
   18.3435   16.9011   21.6577 H   0  0  0  0  0  0  0  0  0  0  0  0
   19.5250   15.8929   22.5194 H   0  0  0  0  0  0  0  0  0  0  0  0
   19.9149   16.5340   20.9094 H   0  0  0  0  0  0  0  0  0  0  0  0
  1  2  1  0  0  0  0
  1  3  2  0  0  0  0
  1  4  1  0  0  0  0
  4  5  1  0  0  0  0
  4  6  1  0  0  0  0
  4  7  1  0  0  0  0
  7  8  1  0  0  0  0
  7  9  1  0  0  0  0
  7 10  1  0  0  0  0
 10 11  1  0  0  0  0
 10 12  1  0  0  0  0
 10 13  1  0  0  0  0
 13 14  1  0  0  0  0
 13 15  1  0  0  0  0
 13 16  1  0  0  0  0
M  END
> <VConfSearch Rank>
201

> <Conf_Id>
0

> <Delta U+W>
0.000

> <U+W>
-56.904

> <U>
7.329

> <W>
-64.233

> <W(PB)>
-66.148

> <W(SA)>
1.915

> <Valence>
6.755

> <Coulomb>
-0.421

> <VdW>
0.995

> <VdW6>
-4.495

> <VdW12>
5.490

> <Bond>
0.106

> <Angle>
2.715

> <Pdih>
3.934

> <Idih>
0.000

> <Tether>
0.000

$$$$
VeraChem MOL file


 16 15  0  0  0  0  0  0  0  0999 V2000     
   18.2724   17.0837   21.4994 C   0  0  0  0  0  0  0  0  0  0  0  0
   17.1016   17.3971   21.5812 O   0  5  0  0  0  0  0  0  0  0  0  0
   18.6832   16.2046   20.7685 O   0  0  0  0  0  0  0  0  0  0  0  0
   19.2838   17.8476   22.3469 C   0  0  0  0  0  0  0  0  0  0  0  0
   20.0958   17.1595   22.6116 H   0  0  0  0  0  0  0  0  0  0  0  0
   18.7918   18.1428   23.2815 H   0  0  0  0  0  0  0  0  0  0  0  0
   19.8541   19.0944   21.6268 C   0  0  0  0  0  0  0  0  0  0  0  0
   20.3323   18.7840   20.6874 H   0  0  0  0  0  0  0  0  0  0  0  0
   19.0282   19.7673   21.3573 H   0  0  0  0  0  0  0  0  0  0  0  0
   20.8740   19.8484   22.5054 C   0  0  0  0  0  0  0  0  0  0  0  0
   21.7003   19.1759   22.7745 H   0  0  0  0  0  0  0  0  0  0  0  0
   20.3959   20.1595   23.4446 H   0  0  0  0  0  0  0  0  0  0  0  0
   21.4372   21.0879   21.7825 C   0  0  0  0  0  0  0  0  0  0  0  0
   20.6348   21.7932   21.5290 H   0  0  0  0  0  0  0  0  0  0  0  0
   21.9488   20.8023   20.8539 H   0  0  0  0  0  0  0  0  0  0  0  0
   22.1604   21.6123   22.4205 H   0  0  0  0  0  0  0  0  0  0  0  0
  1  2  1  0  0  0  0
  1  3  2  0  0  0  0
  1  4  1  0  0  0  0
  4  5  1  0  0  0  0
  4  6  1  0  0  0  0
  4  7  1  0  0  0  0
  7  8  1  0  0  0  0
  7  9  1  0  0  0  0
  7 10  1  0  0  0  0
 10 11  1  0  0  0  0
 10 12  1  0  0  0  0
 10 13  1  0  0  0  0
 13 14  1  0  0  0  0
 13 15  1  0  0  0  0
 13 16  1  0  0  0  0
M  END
> <VConfSearch Rank>
202

> <Conf_Id>
22

> <Delta U+W>
-1.185

> <U+W>
-58.089

> <U>
6.298

> <W>
-64.387

> <W(PB)>
-66.329

> <W(SA)>
1.942

> <Valence>
6.246

> <Coulomb>
-0.408

> <VdW>
0.460

> <VdW6>
-4.207

> <VdW12>
4.667

> <Bond>
0.072

> <Angle>
2.246

> <Pdih>
3.928

> <Idih>
0.001

> <Tether>
0.000

$$$$
VeraChem MOL file


 16 15  0  0  0  0  0  0  0  0999 V2000     
   20.5562   18.9944   24.5041 C   0  0  0  0  0  0  0  0  0  0  0  0
   19.8617   18.3951   25.3006 O   0  5  0  0  0  0  0  0  0  0  0  0
   21.3496   19.8580   24.8214 O   0  0  0  0  0  0  0  0  0  0  0  0
   20.4093   18.6583   23.0242 C   0  0  0  0  0  0  0  0  0  0  0  0
   20.1546   17.5949   22.9402 H   0  0  0  0  0  0  0  0  0  0  0  0
   21.3882   18.7964   22.5512 H   0  0  0  0  0  0  0  0  0  0  0  0
   19.3345   19.5227   22.3153 C   0  0  0  0  0  0  0  0  0  0  0  0
   18.3876   19.4296   22.8648 H   0  0  0  0  0  0  0  0  0  0  0  0
   19.6221   20.5818   22.3689 H   0  0  0  0  0  0  0  0  0  0  0  0
   19.0952   19.1206   20.8417 C   0  0  0  0  0  0  0  0  0  0  0  0
   18.2499   19.7029   20.4495 H   0  0  0  0  0  0  0  0  0  0  0  0
   18.7962   18.0646   20.7888 H   0  0  0  0  0  0  0  0  0  0  0  0
   20.3246   19.3579   19.9387 C   0  0  0  0  0  0  0  0  0  0  0  0
   21.1627   18.7100   20.2241 H   0  0  0  0  0  0  0  0  0  0  0  0
   20.6597   20.4017   19.9977 H   0  0  0  0  0  0  0  0  0  0  0  0
   20.0787   19.1407   18.8911 H   0  0  0  0  0  0  0  0  0  0  0  0
  1  2  1  0  0  0  0
  1  3  2  0  0  0  0
  1  4  1  0  0  0  0
  4  5  1  0  0  0  0
  4  6  1  0  0  0  0
  4  7  1  0  0  0  0
  7  8  1  0  0  0  0
  7  9  1  0  0  0  0
  7 10  1  0  0  0  0
 10 11  1  0  0  0  0
 10 12  1  0  0  0  0
 10 13  1  0  0  0  0
 13 14  1  0  0  0  0
 13 15  1  0  0  0  0
 13 16  1  0  0  0  0
M  END
> <VConfSearch Rank>
203

> <Conf_Id>
36

> <Delta U+W>
-0.427

> <U+W>
-57.331

> <U>
7.263

> <W>
-64.594

> <W(PB)>
-66.513

> <W(SA)>
1.920

> <Valence>
6.734

> <Coulomb>
-0.068

> <VdW>
0.598

> <VdW6>
-4.819

> <VdW12>
5.417

> <Bond>
0.107

> <Angle>
2.469

> <Pdih>
4.157

> <Idih>
0.001

> <Tether>
0.000

$$$$
VeraChem MOL file


 16 15  0  0  0  0  0  0  0  0999 V2000     
   22.4368   18.6054   21.4429 C   0  0  0  0  0  0  0  0  0  0  0  0
   22.9003   17.8121   22.2377 O   0  5  0  0  0  0  0  0  0  0  0  0
   23.1165   19.3217   20.7351 O   0  0  0  0  0  0  0  0  0  0  0  0
   20.9201   18.7232   21.3422 C   0  0  0  0  0  0  0  0  0  0  0  0
   20.4939   17.7332   21.5408 H   0  0  0  0  0  0  0  0  0  0  0  0
   20.6667   18.9849   20.3079 H   0  0  0  0  0  0  0  0  0  0  0  0
   20.3327   19.7751   22.3186 C   0  0  0  0  0  0  0  0  0  0  0  0
   20.5559   19.4799   23.3532 H   0  0  0  0  0  0  0  0  0  0  0  0
   20.8421   20.7345   22.1524 H   0  0  0  0  0  0  0  0  0  0  0  0
   18.8100   19.9860   22.1528 C   0  0  0  0  0  0  0  0  0  0  0  0
   18.5878   20.2927   21.1213 H   0  0  0  0  0  0  0  0  0  0  0  0
   18.4963   20.8178   22.7986 H   0  0  0  0  0  0  0  0  0  0  0  0
   17.9796   18.7356   22.5130 C   0  0  0  0  0  0  0  0  0  0  0  0
   18.1776   17.9092   21.8190 H   0  0  0  0  0  0  0  0  0  0  0  0
   16.9063   18.9607   22.4637 H   0  0  0  0  0  0  0  0  0  0  0  0
   18.2066   18.3931   23.5311 H   0  0  0  0  0  0  0  0  0  0  0  0
  1  2  1  0  0  0  0
  1  3  2  0  0  0  0
  1  4  1  0  0  0  0
  4  5  1  0  0  0  0
  4  6  1  0  0  0  0
  4  7  1  0  0  0  0
  7  8  1  0  0  0  0
  7  9  1  0  0  0  0
  7 10  1  0  0  0  0
 10 11  1  0  0  0  0
 10 12  1  0  0  0  0
 10 13  1  0  0  0  0
 13 14  1  0  0  0  0
 13 15  1  0  0  0  0
 13 16  1  0  0  0  0
M  END
> <VConfSearch Rank>
204

> <Conf_Id>
17

> <Delta U+W>
-0.432

> <U+W>
-57.336

> <U>
7.263

> <W>
-64.599

> <W(PB)>
-66.503

> <W(SA)>
1.904

> <Valence>
6.734

> <Coulomb>
-0.068

> <VdW>
0.598

> <VdW6>
-4.819

> <VdW12>
5.417

> <Bond>
0.107

> <Angle>
2.469

> <Pdih>
4.157

> <Idih>
0.001

> <Tether>
0.000

$$$$
VeraChem MOL file


 16 15  0  0  0  0  0  0  0  0999 V2000     
   18.4593   17.4776   21.8789 C   0  0  0  0  0  0  0  0  0  0  0  0
   17.3756   17.8243   22.3054 O   0  5  0  0  0  0  0  0  0  0  0  0
   18.6188   16.9648   20.7890 O   0  0  0  0  0  0  0  0  0  0  0  0
   19.6811   17.6758   22.7718 C   0  0  0  0  0  0  0  0  0  0  0  0
   20.4855   17.0206   22.4158 H   0  0  0  0  0  0  0  0  0  0  0  0
   19.4125   17.3303   23.7771 H   0  0  0  0  0  0  0  0  0  0  0  0
   20.1792   19.1427   22.8451 C   0  0  0  0  0  0  0  0  0  0  0  0
   19.3555   19.7908   23.1754 H   0  0  0  0  0  0  0  0  0  0  0  0
   20.9643   19.2147   23.6099 H   0  0  0  0  0  0  0  0  0  0  0  0
   20.7347   19.6493   21.4965 C   0  0  0  0  0  0  0  0  0  0  0  0
   19.9510   19.6011   20.7276 H   0  0  0  0  0  0  0  0  0  0  0  0
   21.5499   18.9931   21.1615 H   0  0  0  0  0  0  0  0  0  0  0  0
   21.2534   21.0969   21.6057 C   0  0  0  0  0  0  0  0  0  0  0  0
   20.4494   21.7799   21.9097 H   0  0  0  0  0  0  0  0  0  0  0  0
   21.6437   21.4416   20.6392 H   0  0  0  0  0  0  0  0  0  0  0  0
   22.0631   21.1697   22.3436 H   0  0  0  0  0  0  0  0  0  0  0  0
  1  2  1  0  0  0  0
  1  3  2  0  0  0  0
  1  4  1  0  0  0  0
  4  5  1  0  0  0  0
  4  6  1  0  0  0  0
  4  7  1  0  0  0  0
  7  8  1  0  0  0  0
  7  9  1  0  0  0  0
  7 10  1  0  0  0  0
 10 11  1  0  0  0  0
 10 12  1  0  0  0  0
 10 13  1  0  0  0  0
 13 14  1  0  0  0  0
 13 15  1  0  0  0  0
 13 16  1  0  0  0  0
M  END
> <VConfSearch Rank>
205

> <Conf_Id>
19

> <Delta U+W>
0.048

> <U+W>
-56.856

> <U>
8.276

> <W>
-65.132

> <W(PB)>
-67.031

> <W(SA)>
1.899

> <Valence>
6.513

> <Coulomb>
1.428

> <VdW>
0.335

> <VdW6>
-5.021

> <VdW12>
5.356

> <Bond>
0.092

> <Angle>
2.417

> <Pdih>
4.003

> <Idih>
0.001

> <Tether>
0.000

$$$$
VeraChem MOL file


 16 15  0  0  0  0  0  0  0  0999 V2000     
   17.8289   20.2580   21.5812 C   0  0  0  0  0  0  0  0  0  0  0  0
   17.5946   21.2076   22.3022 O   0  5  0  0  0  0  0  0  0  0  0  0
   17.0199   19.3849   21.3373 O   0  0  0  0  0  0  0  0  0  0  0  0
   19.2062   20.1718   20.9293 C   0  0  0  0  0  0  0  0  0  0  0  0
   19.4431   21.1652   20.5300 H   0  0  0  0  0  0  0  0  0  0  0  0
   19.1460   19.4913   20.0712 H   0  0  0  0  0  0  0  0  0  0  0  0
   20.3343   19.7194   21.8926 C   0  0  0  0  0  0  0  0  0  0  0  0
   21.3012   19.8198   21.3812 H   0  0  0  0  0  0  0  0  0  0  0  0
   20.3639   20.3928   22.7604 H   0  0  0  0  0  0  0  0  0  0  0  0
   20.1596   18.2608   22.3682 C   0  0  0  0  0  0  0  0  0  0  0  0
   20.1176   17.5900   21.4989 H   0  0  0  0  0  0  0  0  0  0  0  0
   19.2037   18.1529   22.8996 H   0  0  0  0  0  0  0  0  0  0  0  0
   21.3109   17.8261   23.2965 C   0  0  0  0  0  0  0  0  0  0  0  0
   22.2778   17.8906   22.7803 H   0  0  0  0  0  0  0  0  0  0  0  0
   21.1711   16.7883   23.6259 H   0  0  0  0  0  0  0  0  0  0  0  0
   21.3559   18.4623   24.1902 H   0  0  0  0  0  0  0  0  0  0  0  0
  1  2  1  0  0  0  0
  1  3  2  0  0  0  0
  1  4  1  0  0  0  0
  4  5  1  0  0  0  0
  4  6  1  0  0  0  0
  4  7  1  0  0  0  0
  7  8  1  0  0  0  0
  7  9  1  0  0  0  0
  7 10  1  0  0  0  0
 10 11  1  0  0  0  0
 10 12  1  0  0  0  0
 10 13  1  0  0  0  0
 13 14  1  0  0  0  0
 13 15  1  0  0  0  0
 13 16  1  0  0  0  0
M  END
> <VConfSearch Rank>
206

> <Conf_Id>
20

> <Delta U+W>
-0.010

> <U+W>
-56.914

> <U>
8.277

> <W>
-65.191

> <W(PB)>
-67.081

> <W(SA)>
1.890

> <Valence>
6.513

> <Coulomb>
1.429

> <VdW>
0.335

> <VdW6>
-5.021

> <VdW12>
5.356

> <Bond>
0.092

> <Angle>
2.417

> <Pdih>
4.002

> <Idih>
0.001

> <Tether>
0.000

$$$$
VeraChem MOL file


 16 15  0  0  0  0  0  0  0  0999 V2000     
   17.7405   19.1654   21.8380 C   0  0  0  0  0  0  0  0  0  0  0  0
   17.1402   20.1212   21.3875 O   0  5  0  0  0  0  0  0  0  0  0  0
   17.3630   18.5310   22.8030 O   0  0  0  0  0  0  0  0  0  0  0  0
   19.0180   18.7198   21.1315 C   0  0  0  0  0  0  0  0  0  0  0  0
   18.7852   18.6301   20.0639 H   0  0  0  0  0  0  0  0  0  0  0  0
   19.2787   17.7130   21.4775 H   0  0  0  0  0  0  0  0  0  0  0  0
   20.2175   19.6895   21.3148 C   0  0  0  0  0  0  0  0  0  0  0  0
   21.0634   19.3341   20.7111 H   0  0  0  0  0  0  0  0  0  0  0  0
   19.9414   20.6727   20.9094 H   0  0  0  0  0  0  0  0  0  0  0  0
   20.6773   19.8649   22.7817 C   0  0  0  0  0  0  0  0  0  0  0  0
   19.8488   20.2536   23.3899 H   0  0  0  0  0  0  0  0  0  0  0  0
   21.4685   20.6266   22.8143 H   0  0  0  0  0  0  0  0  0  0  0  0
   21.2143   18.5619   23.4113 C   0  0  0  0  0  0  0  0  0  0  0  0
   20.4197   17.8115   23.5116 H   0  0  0  0  0  0  0  0  0  0  0  0
   21.6144   18.7572   24.4146 H   0  0  0  0  0  0  0  0  0  0  0  0
   22.0209   18.1332   22.8024 H   0  0  0  0  0  0  0  0  0  0  0  0
  1  2  1  0  0  0  0
  1  3  2  0  0  0  0
  1  4  1  0  0  0  0
  4  5  1  0  0  0  0
  4  6  1  0  0  0  0
  4  7  1  0  0  0  0
  7  8  1  0  0  0  0
  7  9  1  0  0  0  0
  7 10  1  0  0  0  0
 10 11  1  0  0  0  0
 10 12  1  0  0  0  0
 10 13  1  0  0  0  0
 13 14  1  0  0  0  0
 13 15  1  0  0  0  0
 13 16  1  0  0  0  0
M  END
> <VConfSearch Rank>
207

> <Conf_Id>
37

> <Delta U+W>
1.063

> <U+W>
-55.841

> <U>
9.719

> <W>
-65.560

> <W(PB)>
-67.414

> <W(SA)>
1.854

> <Valence>
7.002

> <Coulomb>
2.402

> <VdW>
0.314

> <VdW6>
-5.861

> <VdW12>
6.175

> <Bond>
0.134

> <Angle>
2.733

> <Pdih>
4.133

> <Idih>
0.002

> <Tether>
0.000

$$$$
VeraChem MOL file


 16 15  0  0  0  0  0  0  0  0999 V2000     
   22.2671   18.8739   22.0588 C   0  0  0  0  0  0  0  0  0  0  0  0
   23.0091   19.0386   23.0069 O   0  5  0  0  0  0  0  0  0  0  0  0
   22.3329   17.9156   21.3147 O   0  0  0  0  0  0  0  0  0  0  0  0
   21.2205   19.9465   21.7691 C   0  0  0  0  0  0  0  0  0  0  0  0
   20.8313   19.7940   20.7559 H   0  0  0  0  0  0  0  0  0  0  0  0
   21.7384   20.9127   21.7601 H   0  0  0  0  0  0  0  0  0  0  0  0
   20.0594   19.9970   22.7997 C   0  0  0  0  0  0  0  0  0  0  0  0
   20.4790   20.2046   23.7938 H   0  0  0  0  0  0  0  0  0  0  0  0
   19.4018   20.8434   22.5602 H   0  0  0  0  0  0  0  0  0  0  0  0
   19.2157   18.7021   22.8738 C   0  0  0  0  0  0  0  0  0  0  0  0
   18.4797   18.8069   23.6828 H   0  0  0  0  0  0  0  0  0  0  0  0
   19.8568   17.8525   23.1473 H   0  0  0  0  0  0  0  0  0  0  0  0
   18.4699   18.3855   21.5601 C   0  0  0  0  0  0  0  0  0  0  0  0
   17.8483   19.2339   21.2455 H   0  0  0  0  0  0  0  0  0  0  0  0
   17.8139   17.5153   21.6915 H   0  0  0  0  0  0  0  0  0  0  0  0
   19.1725   18.1516   20.7500 H   0  0  0  0  0  0  0  0  0  0  0  0
  1  2  1  0  0  0  0
  1  3  2  0  0  0  0
  1  4  1  0  0  0  0
  4  5  1  0  0  0  0
  4  6  1  0  0  0  0
  4  7  1  0  0  0  0
  7  8  1  0  0  0  0
  7  9  1  0  0  0  0
  7 10  1  0  0  0  0
 10 11  1  0  0  0  0
 10 12  1  0  0  0  0
 10 13  1  0  0  0  0
 13 14  1  0  0  0  0
 13 15  1  0  0  0  0
 13 16  1  0  0  0  0
M  END
> <VConfSearch Rank>
208

> <Conf_Id>
39

> <Delta U+W>
1.129

> <U+W>
-55.775

> <U>
9.718

> <W>
-65.493

> <W(PB)>
-67.361

> <W(SA)>
1.869

> <Valence>
7.002

> <Coulomb>
2.402

> <VdW>
0.314

> <VdW6>
-5.861

> <VdW12>
6.175

> <Bond>
0.134

> <Angle>
2.734

> <Pdih>
4.133

> <Idih>
0.002

> <Tether>
0.000

$$$$
VeraChem MOL file


 16 15  0  0  0  0  0  0  0  0999 V2000     
   21.7853   19.5642   21.8350 C   0  0  0  0  0  0  0  0  0  0  0  0
   21.8319   20.4662   21.0219 O   0  5  0  0  0  0  0  0  0  0  0  0
   22.4360   18.5423   21.7379 O   0  0  0  0  0  0  0  0  0  0  0  0
   20.9337   19.7655   23.0871 C   0  0  0  0  0  0  0  0  0  0  0  0
   20.4806   20.7638   23.0539 H   0  0  0  0  0  0  0  0  0  0  0  0
   21.6275   19.7646   23.9359 H   0  0  0  0  0  0  0  0  0  0  0  0
   19.8406   18.6866   23.3278 C   0  0  0  0  0  0  0  0  0  0  0  0
   20.2591   17.6849   23.1573 H   0  0  0  0  0  0  0  0  0  0  0  0
   19.5589   18.7203   24.3889 H   0  0  0  0  0  0  0  0  0  0  0  0
   18.5518   18.8734   22.4913 C   0  0  0  0  0  0  0  0  0  0  0  0
   18.1377   19.8765   22.6630 H   0  0  0  0  0  0  0  0  0  0  0  0
   17.7967   18.1619   22.8532 H   0  0  0  0  0  0  0  0  0  0  0  0
   18.7516   18.6464   20.9784 C   0  0  0  0  0  0  0  0  0  0  0  0
   19.3710   19.4352   20.5345 H   0  0  0  0  0  0  0  0  0  0  0  0
   17.7852   18.6539   20.4581 H   0  0  0  0  0  0  0  0  0  0  0  0
   19.2337   17.6791   20.7852 H   0  0  0  0  0  0  0  0  0  0  0  0
  1  2  1  0  0  0  0
  1  3  2  0  0  0  0
  1  4  1  0  0  0  0
  4  5  1  0  0  0  0
  4  6  1  0  0  0  0
  4  7  1  0  0  0  0
  7  8  1  0  0  0  0
  7  9  1  0  0  0  0
  7 10  1  0  0  0  0
 10 11  1  0  0  0  0
 10 12  1  0  0  0  0
 10 13  1  0  0  0  0
 13 14  1  0  0  0  0
 13 15  1  0  0  0  0
 13 16  1  0  0  0  0
M  END
> <VConfSearch Rank>
209

> <Conf_Id>
47

> <Delta U+W>
2.301

> <U+W>
-54.603

> <U>
11.258

> <W>
-65.861

> <W(PB)>
-67.702

> <W(SA)>
1.841

> <Valence>
8.169

> <Coulomb>
2.735

> <VdW>
0.355

> <VdW6>
-6.245

> <VdW12>
6.600

> <Bond>
0.149

> <Angle>
3.168

> <Pdih>
4.840

> <Idih>
0.011

> <Tether>
0.000

$$$$
VeraChem MOL file


 16 15  0  0  0  0  0  0  0  0999 V2000     
   19.4238   20.7776   21.2625 C   0  0  0  0  0  0  0  0  0  0  0  0
   18.3478   21.1861   21.6531 O   0  5  0  0  0  0  0  0  0  0  0  0
   19.7132   20.6752   20.0866 O   0  0  0  0  0  0  0  0  0  0  0  0
   20.4996   20.4617   22.3000 C   0  0  0  0  0  0  0  0  0  0  0  0
   20.7039   21.4002   22.8285 H   0  0  0  0  0  0  0  0  0  0  0  0
   21.4258   20.1863   21.7812 H   0  0  0  0  0  0  0  0  0  0  0  0
   20.1201   19.3696   23.3393 C   0  0  0  0  0  0  0  0  0  0  0  0
   20.7788   19.4871   24.2103 H   0  0  0  0  0  0  0  0  0  0  0  0
   19.0988   19.5411   23.7068 H   0  0  0  0  0  0  0  0  0  0  0  0
   20.2646   17.9148   22.8312 C   0  0  0  0  0  0  0  0  0  0  0  0
   20.1288   17.2343   23.6831 H   0  0  0  0  0  0  0  0  0  0  0  0
   21.2863   17.7479   22.4631 H   0  0  0  0  0  0  0  0  0  0  0  0
   19.2489   17.5333   21.7343 C   0  0  0  0  0  0  0  0  0  0  0  0
   19.3061   16.4593   21.5149 H   0  0  0  0  0  0  0  0  0  0  0  0
   19.4490   18.0716   20.7999 H   0  0  0  0  0  0  0  0  0  0  0  0
   18.2226   17.7609   22.0510 H   0  0  0  0  0  0  0  0  0  0  0  0
  1  2  1  0  0  0  0
  1  3  2  0  0  0  0
  1  4  1  0  0  0  0
  4  5  1  0  0  0  0
  4  6  1  0  0  0  0
  4  7  1  0  0  0  0
  7  8  1  0  0  0  0
  7  9  1  0  0  0  0
  7 10  1  0  0  0  0
 10 11  1  0  0  0  0
 10 12  1  0  0  0  0
 10 13  1  0  0  0  0
 13 14  1  0  0  0  0
 13 15  1  0  0  0  0
 13 16  1  0  0  0  0
M  END
> <VConfSearch Rank>
210

> <Conf_Id>
45

> <Delta U+W>
2.303

> <U+W>
-54.601

> <U>
11.258

> <W>
-65.860

> <W(PB)>
-67.709

> <W(SA)>
1.849

> <Valence>
8.169

> <Coulomb>
2.735

> <VdW>
0.355

> <VdW6>
-6.245

> <VdW12>
6.600

> <Bond>
0.149

> <Angle>
3.168

> <Pdih>
4.840

> <Idih>
0.011

> <Tether>
0.000

$$$$
VeraChem MOL file


 16 15  0  0  0  0  0  0  0  0999 V2000     
   17.9877   17.3278   22.5260 C   0  0  0  0  0  0  0  0  0  0  0  0
   18.7453   16.3991   22.7292 O   0  5  0  0  0  0  0  0  0  0  0  0
   16.7808   17.2313   22.6227 O   0  0  0  0  0  0  0  0  0  0  0  0
   18.5493   18.6940   22.1285 C   0  0  0  0  0  0  0  0  0  0  0  0
   18.1961   19.4212   22.8692 H   0  0  0  0  0  0  0  0  0  0  0  0
   18.0953   18.9678   21.1687 H   0  0  0  0  0  0  0  0  0  0  0  0
   20.0953   18.7692   22.0168 C   0  0  0  0  0  0  0  0  0  0  0  0
   20.5445   18.4887   22.9796 H   0  0  0  0  0  0  0  0  0  0  0  0
   20.4437   18.0349   21.2773 H   0  0  0  0  0  0  0  0  0  0  0  0
   20.5732   20.1797   21.6125 C   0  0  0  0  0  0  0  0  0  0  0  0
   20.2269   20.9149   22.3521 H   0  0  0  0  0  0  0  0  0  0  0  0
   20.1260   20.4607   20.6488 H   0  0  0  0  0  0  0  0  0  0  0  0
   22.1093   20.2480   21.5032 C   0  0  0  0  0  0  0  0  0  0  0  0
   22.5826   20.0017   22.4628 H   0  0  0  0  0  0  0  0  0  0  0  0
   22.4321   21.2569   21.2151 H   0  0  0  0  0  0  0  0  0  0  0  0
   22.4809   19.5442   20.7469 H   0  0  0  0  0  0  0  0  0  0  0  0
  1  2  1  0  0  0  0
  1  3  2  0  0  0  0
  1  4  1  0  0  0  0
  4  5  1  0  0  0  0
  4  6  1  0  0  0  0
  4  7  1  0  0  0  0
  7  8  1  0  0  0  0
  7  9  1  0  0  0  0
  7 10  1  0  0  0  0
 10 11  1  0  0  0  0
 10 12  1  0  0  0  0
 10 13  1  0  0  0  0
 13 14  1  0  0  0  0
 13 15  1  0  0  0  0
 13 16  1  0  0  0  0
M  END
> <VConfSearch Rank>
211

> <Conf_Id>
0

> <Delta U+W>
0.000

> <U+W>
-56.904

> <U>
7.329

> <W>
-64.233

> <W(PB)>
-66.148

> <W(SA)>
1.915

> <Valence>
6.755

> <Coulomb>
-0.421

> <VdW>
0.995

> <VdW6>
-4.495

> <VdW12>
5.490

> <Bond>
0.106

> <Angle>
2.715

> <Pdih>
3.934

> <Idih>
0.000

> <Tether>
0.000

$$$$
VeraChem MOL file


 16 15  0  0  0  0  0  0  0  0999 V2000     
   19.4465   19.3410   19.2829 C   0  0  0  0  0  0  0  0  0  0  0  0
   19.9807   20.2743   18.7178 O   0  5  0  0  0  0  0  0  0  0  0  0
   19.1707   18.2924   18.7350 O   0  0  0  0  0  0  0  0  0  0  0  0
   19.1209   19.4869   20.7652 C   0  0  0  0  0  0  0  0  0  0  0  0
   18.2146   18.9057   20.9742 H   0  0  0  0  0  0  0  0  0  0  0  0
   18.8826   20.5396   20.9601 H   0  0  0  0  0  0  0  0  0  0  0  0
   20.2769   19.0223   21.6849 C   0  0  0  0  0  0  0  0  0  0  0  0
   20.5120   17.9707   21.4693 H   0  0  0  0  0  0  0  0  0  0  0  0
   21.1800   19.6047   21.4552 H   0  0  0  0  0  0  0  0  0  0  0  0
   19.9218   19.1804   23.1780 C   0  0  0  0  0  0  0  0  0  0  0  0
   19.0191   18.5976   23.4083 H   0  0  0  0  0  0  0  0  0  0  0  0
   19.6873   20.2320   23.3941 H   0  0  0  0  0  0  0  0  0  0  0  0
   21.0768   18.7161   24.0872 C   0  0  0  0  0  0  0  0  0  0  0  0
   21.9849   19.3041   23.8999 H   0  0  0  0  0  0  0  0  0  0  0  0
   21.3118   17.6577   23.9141 H   0  0  0  0  0  0  0  0  0  0  0  0
   20.8082   18.8351   25.1449 H   0  0  0  0  0  0  0  0  0  0  0  0
  1  2  1  0  0  0  0
  1  3  2  0  0  0  0
  1  4  1  0  0  0  0
  4  5  1  0  0  0  0
  4  6  1  0  0  0  0
  4  7  1  0  0  0  0
  7  8  1  0  0  0  0
  7  9  1  0  0  0  0
  7 10  1  0  0  0  0
 10 11  1  0  0  0  0
 10 12  1  0  0  0  0
 10 13  1  0  0  0  0
 13 14  1  0  0  0  0
 13 15  1  0  0  0  0
 13 16  1  0  0  0  0
M  END
> <VConfSearch Rank>
212

> <Conf_Id>
22

> <Delta U+W>
-1.185

> <U+W>
-58.089

> <U>
6.298

> <W>
-64.387

> <W(PB)>
-66.329

> <W(SA)>
1.942

> <Valence>
6.246

> <Coulomb>
-0.408

> <VdW>
0.460

> <VdW6>
-4.207

> <VdW12>
4.667

> <Bond>
0.072

> <Angle>
2.246

> <Pdih>
3.928

> <Idih>
0.001

> <Tether>
0.000

$$$$
VeraChem MOL file


 16 15  0  0  0  0  0  0  0  0999 V2000     
   20.6743   21.5860   21.4992 C   0  0  0  0  0  0  0  0  0  0  0  0
   20.8712   21.9920   20.3712 O   0  5  0  0  0  0  0  0  0  0  0  0
   21.1232   22.1209   22.4933 O   0  0  0  0  0  0  0  0  0  0  0  0
   19.8349   20.3254   21.6748 C   0  0  0  0  0  0  0  0  0  0  0  0
   19.0878   20.2992   20.8725 H   0  0  0  0  0  0  0  0  0  0  0  0
   19.2915   20.4148   22.6224 H   0  0  0  0  0  0  0  0  0  0  0  0
   20.6858   19.0290   21.6549 C   0  0  0  0  0  0  0  0  0  0  0  0
   21.2831   19.0127   20.7328 H   0  0  0  0  0  0  0  0  0  0  0  0
   21.4015   19.0475   22.4884 H   0  0  0  0  0  0  0  0  0  0  0  0
   19.8398   17.7366   21.7216 C   0  0  0  0  0  0  0  0  0  0  0  0
   20.5053   16.8719   21.5924 H   0  0  0  0  0  0  0  0  0  0  0  0
   19.1320   17.7123   20.8815 H   0  0  0  0  0  0  0  0  0  0  0  0
   19.0723   17.5795   23.0517 C   0  0  0  0  0  0  0  0  0  0  0  0
   18.3126   18.3620   23.1710 H   0  0  0  0  0  0  0  0  0  0  0  0
   19.7568   17.6297   23.9086 H   0  0  0  0  0  0  0  0  0  0  0  0
   18.5587   16.6100   23.0860 H   0  0  0  0  0  0  0  0  0  0  0  0
  1  2  1  0  0  0  0
  1  3  2  0  0  0  0
  1  4  1  0  0  0  0
  4  5  1  0  0  0  0
  4  6  1  0  0  0  0
  4  7  1  0  0  0  0
  7  8  1  0  0  0  0
  7  9  1  0  0  0  0
  7 10  1  0  0  0  0
 10 11  1  0  0  0  0
 10 12  1  0  0  0  0
 10 13  1  0  0  0  0
 13 14  1  0  0  0  0
 13 15  1  0  0  0  0
 13 16  1  0  0  0  0
M  END
> <VConfSearch Rank>
213

> <Conf_Id>
36

> <Delta U+W>
-0.427

> <U+W>
-57.331

> <U>
7.263

> <W>
-64.594

> <W(PB)>
-66.513

> <W(SA)>
1.920

> <Valence>
6.734

> <Coulomb>
-0.068

> <VdW>
0.598

> <VdW6>
-4.819

> <VdW12>
5.417

> <Bond>
0.107

> <Angle>
2.469

> <Pdih>
4.157

> <Idih>
0.001

> <Tether>
0.000

$$$$
VeraChem MOL file


 16 15  0  0  0  0  0  0  0  0999 V2000     
   18.3213   19.5643   23.9441 C   0  0  0  0  0  0  0  0  0  0  0  0
   17.1822   19.6903   23.5411 O   0  5  0  0  0  0  0  0  0  0  0  0
   18.6936   19.9469   25.0355 O   0  0  0  0  0  0  0  0  0  0  0  0
   19.3441   18.9086   23.0230 C   0  0  0  0  0  0  0  0  0  0  0  0
   18.8194   18.1578   22.4213 H   0  0  0  0  0  0  0  0  0  0  0  0
   20.0715   18.3752   23.6467 H   0  0  0  0  0  0  0  0  0  0  0  0
   20.0708   19.9289   22.1088 C   0  0  0  0  0  0  0  0  0  0  0  0
   19.3375   20.4261   21.4589 H   0  0  0  0  0  0  0  0  0  0  0  0
   20.5121   20.7147   22.7374 H   0  0  0  0  0  0  0  0  0  0  0  0
   21.1879   19.2964   21.2471 C   0  0  0  0  0  0  0  0  0  0  0  0
   21.9276   18.8092   21.8974 H   0  0  0  0  0  0  0  0  0  0  0  0
   21.7207   20.0974   20.7162 H   0  0  0  0  0  0  0  0  0  0  0  0
   20.6574   18.2809   20.2126 C   0  0  0  0  0  0  0  0  0  0  0  0
   20.2153   17.4040   20.7019 H   0  0  0  0  0  0  0  0  0  0  0  0
   21.4735   17.9263   19.5697 H   0  0  0  0  0  0  0  0  0  0  0  0
   19.8945   18.7380   19.5689 H   0  0  0  0  0  0  0  0  0  0  0  0
  1  2  1  0  0  0  0
  1  3  2  0  0  0  0
  1  4  1  0  0  0  0
  4  5  1  0  0  0  0
  4  6  1  0  0  0  0
  4  7  1  0  0  0  0
  7  8  1  0  0  0  0
  7  9  1  0  0  0  0
  7 10  1  0  0  0  0
 10 11  1  0  0  0  0
 10 12  1  0  0  0  0
 10 13  1  0  0  0  0
 13 14  1  0  0  0  0
 13 15  1  0  0  0  0
 13 16  1  0  0  0  0
M  END
> <VConfSearch Rank>
214

> <Conf_Id>
17

> <Delta U+W>
-0.432

> <U+W>
-57.336

> <U>
7.263

> <W>
-64.599

> <W(PB)>
-66.503

> <W(SA)>
1.904

> <Valence>
6.734

> <Coulomb>
-0.068

> <VdW>
0.598

> <VdW6>
-4.819

> <VdW12>
5.417

> <Bond>
0.107

> <Angle>
2.469

> <Pdih>
4.157

> <Idih>
0.001

> <Tether>
0.000

$$$$
VeraChem MOL file


 16 15  0  0  0  0  0  0  0  0999 V2000     
   18.8531   19.2511   20.1041 C   0  0  0  0  0  0  0  0  0  0  0  0
   19.1915   18.4461   19.2592 O   0  5  0  0  0  0  0  0  0  0  0  0
   17.7000   19.4175   20.4488 O   0  0  0  0  0  0  0  0  0  0  0  0
   19.9336   20.1153   20.7484 C   0  0  0  0  0  0  0  0  0  0  0  0
   19.4565   20.9930   21.2014 H   0  0  0  0  0  0  0  0  0  0  0  0
   20.5804   20.4858   19.9443 H   0  0  0  0  0  0  0  0  0  0  0  0
   20.7938   19.3706   21.8022 C   0  0  0  0  0  0  0  0  0  0  0  0
   21.2419   18.4789   21.3421 H   0  0  0  0  0  0  0  0  0  0  0  0
   21.6251   20.0205   22.1074 H   0  0  0  0  0  0  0  0  0  0  0  0
   19.9820   18.9630   23.0508 C   0  0  0  0  0  0  0  0  0  0  0  0
   19.1589   18.2954   22.7599 H   0  0  0  0  0  0  0  0  0  0  0  0
   19.5244   19.8540   23.5025 H   0  0  0  0  0  0  0  0  0  0  0  0
   20.8673   18.2553   24.0957 C   0  0  0  0  0  0  0  0  0  0  0  0
   21.3133   17.3428   23.6787 H   0  0  0  0  0  0  0  0  0  0  0  0
   20.2752   17.9718   24.9755 H   0  0  0  0  0  0  0  0  0  0  0  0
   21.6804   18.9122   24.4315 H   0  0  0  0  0  0  0  0  0  0  0  0
  1  2  1  0  0  0  0
  1  3  2  0  0  0  0
  1  4  1  0  0  0  0
  4  5  1  0  0  0  0
  4  6  1  0  0  0  0
  4  7  1  0  0  0  0
  7  8  1  0  0  0  0
  7  9  1  0  0  0  0
  7 10  1  0  0  0  0
 10 11  1  0  0  0  0
 10 12  1  0  0  0  0
 10 13  1  0  0  0  0
 13 14  1  0  0  0  0
 13 15  1  0  0  0  0
 13 16  1  0  0  0  0
M  END
> <VConfSearch Rank>
215

> <Conf_Id>
19

> <Delta U+W>
0.048

> <U+W>
-56.856

> <U>
8.276

> <W>
-65.132

> <W(PB)>
-67.031

> <W(SA)>
1.899

> <Valence>
6.513

> <Coulomb>
1.428

> <VdW>
0.335

> <VdW6>
-5.021

> <VdW12>
5.356

> <Bond>
0.092

> <Angle>
2.417

> <Pdih>
4.003

> <Idih>
0.001

> <Tether>
0.000

$$$$
VeraChem MOL file


 16 15  0  0  0  0  0  0  0  0999 V2000     
   18.3131   19.8500   23.7409 C   0  0  0  0  0  0  0  0  0  0  0  0
   17.2535   20.2303   23.2837 O   0  5  0  0  0  0  0  0  0  0  0  0
   18.9472   20.4708   24.5709 O   0  0  0  0  0  0  0  0  0  0  0  0
   18.8635   18.5092   23.2629 C   0  0  0  0  0  0  0  0  0  0  0  0
   18.0348   17.7913   23.2744 H   0  0  0  0  0  0  0  0  0  0  0  0
   19.6016   18.1532   23.9920 H   0  0  0  0  0  0  0  0  0  0  0  0
   19.4904   18.5525   21.8451 C   0  0  0  0  0  0  0  0  0  0  0  0
   19.7304   17.5279   21.5300 H   0  0  0  0  0  0  0  0  0  0  0  0
   18.7493   18.9376   21.1309 H   0  0  0  0  0  0  0  0  0  0  0  0
   20.7697   19.4152   21.7874 C   0  0  0  0  0  0  0  0  0  0  0  0
   21.5050   19.0365   22.5107 H   0  0  0  0  0  0  0  0  0  0  0  0
   20.5373   20.4483   22.0812 H   0  0  0  0  0  0  0  0  0  0  0  0
   21.3905   19.4138   20.3764 C   0  0  0  0  0  0  0  0  0  0  0  0
   21.6653   18.3963   20.0688 H   0  0  0  0  0  0  0  0  0  0  0  0
   22.2975   20.0317   20.3525 H   0  0  0  0  0  0  0  0  0  0  0  0
   20.6859   19.8172   19.6373 H   0  0  0  0  0  0  0  0  0  0  0  0
  1  2  1  0  0  0  0
  1  3  2  0  0  0  0
  1  4  1  0  0  0  0
  4  5  1  0  0  0  0
  4  6  1  0  0  0  0
  4  7  1  0  0  0  0
  7  8  1  0  0  0  0
  7  9  1  0  0  0  0
  7 10  1  0  0  0  0
 10 11  1  0  0  0  0
 10 12  1  0  0  0  0
 10 13  1  0  0  0  0
 13 14  1  0  0  0  0
 13 15  1  0  0  0  0
 13 16  1  0  0  0  0
M  END
> <VConfSearch Rank>
216

> <Conf_Id>
20

> <Delta U+W>
-0.010

> <U+W>
-56.914

> <U>
8.277

> <W>
-65.191

> <W(PB)>
-67.081

> <W(SA)>
1.890

> <Valence>
6.513

> <Coulomb>
1.429

> <VdW>
0.335

> <VdW6>
-5.021

> <VdW12>
5.356

> <Bond>
0.092

> <Angle>
2.417

> <Pdih>
4.002

> <Idih>
0.001

> <Tether>
0.000

$$$$
VeraChem MOL file


 16 15  0  0  0  0  0  0  0  0999 V2000     
   19.8050   19.5304   20.0564 C   0  0  0  0  0  0  0  0  0  0  0  0
   20.3461   20.4841   19.5325 O   0  5  0  0  0  0  0  0  0  0  0  0
   18.6695   19.1808   19.8018 O   0  0  0  0  0  0  0  0  0  0  0  0
   20.6084   18.7097   21.0617 C   0  0  0  0  0  0  0  0  0  0  0  0
   21.5684   18.4674   20.5909 H   0  0  0  0  0  0  0  0  0  0  0  0
   20.0949   17.7557   21.2277 H   0  0  0  0  0  0  0  0  0  0  0  0
   20.8677   19.4339   22.4112 C   0  0  0  0  0  0  0  0  0  0  0  0
   21.5161   18.8067   23.0377 H   0  0  0  0  0  0  0  0  0  0  0  0
   21.4299   20.3571   22.2137 H   0  0  0  0  0  0  0  0  0  0  0  0
   19.5856   19.7888   23.2012 C   0  0  0  0  0  0  0  0  0  0  0  0
   18.9435   20.4453   22.5977 H   0  0  0  0  0  0  0  0  0  0  0  0
   19.8689   20.3669   24.0915 H   0  0  0  0  0  0  0  0  0  0  0  0
   18.7828   18.5483   23.6477 C   0  0  0  0  0  0  0  0  0  0  0  0
   18.3742   18.0070   22.7848 H   0  0  0  0  0  0  0  0  0  0  0  0
   17.9383   18.8461   24.2825 H   0  0  0  0  0  0  0  0  0  0  0  0
   19.4124   17.8577   24.2235 H   0  0  0  0  0  0  0  0  0  0  0  0
  1  2  1  0  0  0  0
  1  3  2  0  0  0  0
  1  4  1  0  0  0  0
  4  5  1  0  0  0  0
  4  6  1  0  0  0  0
  4  7  1  0  0  0  0
  7  8  1  0  0  0  0
  7  9  1  0  0  0  0
  7 10  1  0  0  0  0
 10 11  1  0  0  0  0
 10 12  1  0  0  0  0
 10 13  1  0  0  0  0
 13 14  1  0  0  0  0
 13 15  1  0  0  0  0
 13 16  1  0  0  0  0
M  END
> <VConfSearch Rank>
217

> <Conf_Id>
37

> <Delta U+W>
1.063

> <U+W>
-55.841

> <U>
9.719

> <W>
-65.560

> <W(PB)>
-67.414

> <W(SA)>
1.854

> <Valence>
7.002

> <Coulomb>
2.402

> <VdW>
0.314

> <VdW6>
-5.861

> <VdW12>
6.175

> <Bond>
0.134

> <Angle>
2.733

> <Pdih>
4.133

> <Idih>
0.002

> <Tether>
0.000

$$$$
VeraChem MOL file


 16 15  0  0  0  0  0  0  0  0999 V2000     
   19.7474   19.8108   20.1706 C   0  0  0  0  0  0  0  0  0  0  0  0
   19.7384   19.0683   19.2086 O   0  5  0  0  0  0  0  0  0  0  0  0
   18.8899   20.6456   20.3810 O   0  0  0  0  0  0  0  0  0  0  0  0
   20.9171   19.7108   21.1460 C   0  0  0  0  0  0  0  0  0  0  0  0
   20.9224   20.6035   21.7819 H   0  0  0  0  0  0  0  0  0  0  0  0
   21.8389   19.7467   20.5536 H   0  0  0  0  0  0  0  0  0  0  0  0
   20.9144   18.4215   22.0123 C   0  0  0  0  0  0  0  0  0  0  0  0
   20.9640   17.5490   21.3463 H   0  0  0  0  0  0  0  0  0  0  0  0
   21.8274   18.3955   22.6222 H   0  0  0  0  0  0  0  0  0  0  0  0
   19.6813   18.2761   22.9355 C   0  0  0  0  0  0  0  0  0  0  0  0
   19.7317   17.3013   23.4398 H   0  0  0  0  0  0  0  0  0  0  0  0
   18.7620   18.2656   22.3336 H   0  0  0  0  0  0  0  0  0  0  0  0
   19.5871   19.3855   24.0045 C   0  0  0  0  0  0  0  0  0  0  0  0
   20.5091   19.4406   24.5977 H   0  0  0  0  0  0  0  0  0  0  0  0
   18.7540   19.1867   24.6911 H   0  0  0  0  0  0  0  0  0  0  0  0
   19.4113   20.3667   23.5454 H   0  0  0  0  0  0  0  0  0  0  0  0
  1  2  1  0  0  0  0
  1  3  2  0  0  0  0
  1  4  1  0  0  0  0
  4  5  1  0  0  0  0
  4  6  1  0  0  0  0
  4  7  1  0  0  0  0
  7  8  1  0  0  0  0
  7  9  1  0  0  0  0
  7 10  1  0  0  0  0
 10 11  1  0  0  0  0
 10 12  1  0  0  0  0
 10 13  1  0  0  0  0
 13 14  1  0  0  0  0
 13 15  1  0  0  0  0
 13 16  1  0  0  0  0
M  END
> <VConfSearch Rank>
218

> <Conf_Id>
39

> <Delta U+W>
1.129

> <U+W>
-55.775

> <U>
9.718

> <W>
-65.493

> <W(PB)>
-67.361

> <W(SA)>
1.869

> <Valence>
7.002

> <Coulomb>
2.402

> <VdW>
0.314

> <VdW6>
-5.861

> <VdW12>
6.175

> <Bond>
0.134

> <Angle>
2.734

> <Pdih>
4.133

> <Idih>
0.002

> <Tether>
0.000

$$$$
VeraChem MOL file


 16 15  0  0  0  0  0  0  0  0999 V2000     
   19.6809   17.2073   21.6168 C   0  0  0  0  0  0  0  0  0  0  0  0
   19.5693   16.4289   22.5433 O   0  5  0  0  0  0  0  0  0  0  0  0
   20.4382   17.0307   20.6826 O   0  0  0  0  0  0  0  0  0  0  0  0
   18.7568   18.4232   21.5814 C   0  0  0  0  0  0  0  0  0  0  0  0
   18.0885   18.3889   22.4504 H   0  0  0  0  0  0  0  0  0  0  0  0
   18.1237   18.3042   20.6944 H   0  0  0  0  0  0  0  0  0  0  0  0
   19.4738   19.8008   21.5084 C   0  0  0  0  0  0  0  0  0  0  0  0
   20.2856   19.7617   20.7689 H   0  0  0  0  0  0  0  0  0  0  0  0
   18.7536   20.5380   21.1286 H   0  0  0  0  0  0  0  0  0  0  0  0
   20.0130   20.3221   22.8623 C   0  0  0  0  0  0  0  0  0  0  0  0
   19.1989   20.3577   23.5993 H   0  0  0  0  0  0  0  0  0  0  0  0
   20.3509   21.3586   22.7256 H   0  0  0  0  0  0  0  0  0  0  0  0
   21.1875   19.4955   23.4260 C   0  0  0  0  0  0  0  0  0  0  0  0
   20.8601   18.4954   23.7350 H   0  0  0  0  0  0  0  0  0  0  0  0
   21.6162   19.9892   24.3076 H   0  0  0  0  0  0  0  0  0  0  0  0
   21.9843   19.3826   22.6791 H   0  0  0  0  0  0  0  0  0  0  0  0
  1  2  1  0  0  0  0
  1  3  2  0  0  0  0
  1  4  1  0  0  0  0
  4  5  1  0  0  0  0
  4  6  1  0  0  0  0
  4  7  1  0  0  0  0
  7  8  1  0  0  0  0
  7  9  1  0  0  0  0
  7 10  1  0  0  0  0
 10 11  1  0  0  0  0
 10 12  1  0  0  0  0
 10 13  1  0  0  0  0
 13 14  1  0  0  0  0
 13 15  1  0  0  0  0
 13 16  1  0  0  0  0
M  END
> <VConfSearch Rank>
219

> <Conf_Id>
47

> <Delta U+W>
2.301

> <U+W>
-54.603

> <U>
11.258

> <W>
-65.861

> <W(PB)>
-67.702

> <W(SA)>
1.841

> <Valence>
8.169

> <Coulomb>
2.735

> <VdW>
0.355

> <VdW6>
-6.245

> <VdW12>
6.600

> <Bond>
0.149

> <Angle>
3.168

> <Pdih>
4.840

> <Idih>
0.011

> <Tether>
0.000

$$$$
VeraChem MOL file


 16 15  0  0  0  0  0  0  0  0999 V2000     
   17.8951   18.8887   22.3484 C   0  0  0  0  0  0  0  0  0  0  0  0
   17.5175   18.3841   21.3092 O   0  5  0  0  0  0  0  0  0  0  0  0
   17.3634   19.8581   22.8528 O   0  0  0  0  0  0  0  0  0  0  0  0
   19.0392   18.2178   23.1064 C   0  0  0  0  0  0  0  0  0  0  0  0
   18.6896   17.2117   23.3660 H   0  0  0  0  0  0  0  0  0  0  0  0
   19.1992   18.7479   24.0532 H   0  0  0  0  0  0  0  0  0  0  0  0
   20.3769   18.1007   22.3229 C   0  0  0  0  0  0  0  0  0  0  0  0
   20.9786   17.3125   22.7954 H   0  0  0  0  0  0  0  0  0  0  0  0
   20.1813   17.7584   21.2972 H   0  0  0  0  0  0  0  0  0  0  0  0
   21.2278   19.3933   22.2986 C   0  0  0  0  0  0  0  0  0  0  0  0
   22.2087   19.1552   21.8644 H   0  0  0  0  0  0  0  0  0  0  0  0
   21.4195   19.7332   23.3257 H   0  0  0  0  0  0  0  0  0  0  0  0
   20.5971   20.5400   21.4816 C   0  0  0  0  0  0  0  0  0  0  0  0
   21.3029   21.3749   21.3835 H   0  0  0  0  0  0  0  0  0  0  0  0
   19.6939   20.9276   21.9685 H   0  0  0  0  0  0  0  0  0  0  0  0
   20.3276   20.2030   20.4721 H   0  0  0  0  0  0  0  0  0  0  0  0
  1  2  1  0  0  0  0
  1  3  2  0  0  0  0
  1  4  1  0  0  0  0
  4  5  1  0  0  0  0
  4  6  1  0  0  0  0
  4  7  1  0  0  0  0
  7  8  1  0  0  0  0
  7  9  1  0  0  0  0
  7 10  1  0  0  0  0
 10 11  1  0  0  0  0
 10 12  1  0  0  0  0
 10 13  1  0  0  0  0
 13 14  1  0  0  0  0
 13 15  1  0  0  0  0
 13 16  1  0  0  0  0
M  END
> <VConfSearch Rank>
220

> <Conf_Id>
45

> <Delta U+W>
2.303

> <U+W>
-54.601

> <U>
11.258

> <W>
-65.860

> <W(PB)>
-67.709

> <W(SA)>
1.849

> <Valence>
8.169

> <Coulomb>
2.735

> <VdW>
0.355

> <VdW6>
-6.245

> <VdW12>
6.600

> <Bond>
0.149

> <Angle>
3.168

> <Pdih>
4.840

> <Idih>
0.011

> <Tether>
0.000

$$$$
VeraChem MOL file


 16 15  0  0  0  0  0  0  0  0999 V2000     
   21.2096   18.3852   19.5612 C   0  0  0  0  0  0  0  0  0  0  0  0
   20.1973   17.9178   19.0770 O   0  5  0  0  0  0  0  0  0  0  0  0
   22.2766   18.3979   18.9809 O   0  0  0  0  0  0  0  0  0  0  0  0
   21.1708   18.9925   20.9646 C   0  0  0  0  0  0  0  0  0  0  0  0
   21.5140   20.0306   20.8816 H   0  0  0  0  0  0  0  0  0  0  0  0
   21.9099   18.4581   21.5731 H   0  0  0  0  0  0  0  0  0  0  0  0
   19.7875   18.9531   21.6669 C   0  0  0  0  0  0  0  0  0  0  0  0
   19.0501   19.4853   21.0501 H   0  0  0  0  0  0  0  0  0  0  0  0
   19.4464   17.9113   21.7424 H   0  0  0  0  0  0  0  0  0  0  0  0
   19.8403   19.5851   23.0737 C   0  0  0  0  0  0  0  0  0  0  0  0
   20.1796   20.6276   22.9995 H   0  0  0  0  0  0  0  0  0  0  0  0
   20.5762   19.0526   23.6922 H   0  0  0  0  0  0  0  0  0  0  0  0
   18.4637   19.5430   23.7660 C   0  0  0  0  0  0  0  0  0  0  0  0
   17.7143   20.0953   23.1840 H   0  0  0  0  0  0  0  0  0  0  0  0
   18.5188   19.9959   24.7645 H   0  0  0  0  0  0  0  0  0  0  0  0
   18.1138   18.5087   23.8817 H   0  0  0  0  0  0  0  0  0  0  0  0
  1  2  1  0  0  0  0
  1  3  2  0  0  0  0
  1  4  1  0  0  0  0
  4  5  1  0  0  0  0
  4  6  1  0  0  0  0
  4  7  1  0  0  0  0
  7  8  1  0  0  0  0
  7  9  1  0  0  0  0
  7 10  1  0  0  0  0
 10 11  1  0  0  0  0
 10 12  1  0  0  0  0
 10 13  1  0  0  0  0
 13 14  1  0  0  0  0
 13 15  1  0  0  0  0
 13 16  1  0  0  0  0
M  END
> <VConfSearch Rank>
221

> <Conf_Id>
0

> <Delta U+W>
0.000

> <U+W>
-56.904

> <U>
7.329

> <W>
-64.233

> <W(PB)>
-66.148

> <W(SA)>
1.915

> <Valence>
6.755

> <Coulomb>
-0.421

> <VdW>
0.995

> <VdW6>
-4.495

> <VdW12>
5.490

> <Bond>
0.106

> <Angle>
2.715

> <Pdih>
3.934

> <Idih>
0.000

> <Tether>
0.000

$$$$
VeraChem MOL file


 16 15  0  0  0  0  0  0  0  0999 V2000     
   21.1572   17.7232   19.8793 C   0  0  0  0  0  0  0  0  0  0  0  0
   21.4769   18.3978   18.9209 O   0  5  0  0  0  0  0  0  0  0  0  0
   21.7353   16.7067   20.2085 O   0  0  0  0  0  0  0  0  0  0  0  0
   19.9771   18.1874   20.7258 C   0  0  0  0  0  0  0  0  0  0  0  0
   19.4750   17.2989   21.1273 H   0  0  0  0  0  0  0  0  0  0  0  0
   19.2620   18.6932   20.0658 H   0  0  0  0  0  0  0  0  0  0  0  0
   20.3973   19.1304   21.8800 C   0  0  0  0  0  0  0  0  0  0  0  0
   21.1224   18.6144   22.5247 H   0  0  0  0  0  0  0  0  0  0  0  0
   20.9095   20.0087   21.4631 H   0  0  0  0  0  0  0  0  0  0  0  0
   19.1857   19.5850   22.7202 C   0  0  0  0  0  0  0  0  0  0  0  0
   18.6736   18.7070   23.1378 H   0  0  0  0  0  0  0  0  0  0  0  0
   18.4606   20.1016   22.0760 H   0  0  0  0  0  0  0  0  0  0  0  0
   19.6113   20.5231   23.8668 C   0  0  0  0  0  0  0  0  0  0  0  0
   20.0988   21.4256   23.4755 H   0  0  0  0  0  0  0  0  0  0  0  0
   20.3135   20.0207   24.5452 H   0  0  0  0  0  0  0  0  0  0  0  0
   18.7385   20.8368   24.4541 H   0  0  0  0  0  0  0  0  0  0  0  0
  1  2  1  0  0  0  0
  1  3  2  0  0  0  0
  1  4  1  0  0  0  0
  4  5  1  0  0  0  0
  4  6  1  0  0  0  0
  4  7  1  0  0  0  0
  7  8  1  0  0  0  0
  7  9  1  0  0  0  0
  7 10  1  0  0  0  0
 10 11  1  0  0  0  0
 10 12  1  0  0  0  0
 10 13  1  0  0  0  0
 13 14  1  0  0  0  0
 13 15  1  0  0  0  0
 13 16  1  0  0  0  0
M  END
> <VConfSearch Rank>
222

> <Conf_Id>
22

> <Delta U+W>
-1.185

> <U+W>
-58.089

> <U>
6.298

> <W>
-64.387

> <W(PB)>
-66.329

> <W(SA)>
1.942

> <Valence>
6.246

> <Coulomb>
-0.408

> <VdW>
0.460

> <VdW6>
-4.207

> <VdW12>
4.667

> <Bond>
0.072

> <Angle>
2.246

> <Pdih>
3.928

> <Idih>
0.001

> <Tether>
0.000

$$$$
VeraChem MOL file


 16 15  0  0  0  0  0  0  0  0999 V2000     
   21.3329   20.6818   23.5594 C   0  0  0  0  0  0  0  0  0  0  0  0
   22.0889   20.2419   24.4026 O   0  5  0  0  0  0  0  0  0  0  0  0
   20.8634   21.8017   23.5971 O   0  0  0  0  0  0  0  0  0  0  0  0
   20.9362   19.7718   22.4023 C   0  0  0  0  0  0  0  0  0  0  0  0
   21.7828   19.1098   22.1840 H   0  0  0  0  0  0  0  0  0  0  0  0
   20.7803   20.4022   21.5194 H   0  0  0  0  0  0  0  0  0  0  0  0
   19.6668   18.9338   22.7045 C   0  0  0  0  0  0  0  0  0  0  0  0
   19.8233   18.3809   23.6411 H   0  0  0  0  0  0  0  0  0  0  0  0
   18.8162   19.6070   22.8794 H   0  0  0  0  0  0  0  0  0  0  0  0
   19.3139   17.9263   21.5861 C   0  0  0  0  0  0  0  0  0  0  0  0
   18.4752   17.3023   21.9246 H   0  0  0  0  0  0  0  0  0  0  0  0
   20.1600   17.2454   21.4191 H   0  0  0  0  0  0  0  0  0  0  0  0
   18.9237   18.6055   20.2559 C   0  0  0  0  0  0  0  0  0  0  0  0
   19.7707   19.1502   19.8204 H   0  0  0  0  0  0  0  0  0  0  0  0
   18.0976   19.3133   20.4037 H   0  0  0  0  0  0  0  0  0  0  0  0
   18.5990   17.8555   19.5230 H   0  0  0  0  0  0  0  0  0  0  0  0
  1  2  1  0  0  0  0
  1  3  2  0  0  0  0
  1  4  1  0  0  0  0
  4  5  1  0  0  0  0
  4  6  1  0  0  0  0
  4  7  1  0  0  0  0
  7  8  1  0  0  0  0
  7  9  1  0  0  0  0
  7 10  1  0  0  0  0
 10 11  1  0  0  0  0
 10 12  1  0  0  0  0
 10 13  1  0  0  0  0
 13 14  1  0  0  0  0
 13 15  1  0  0  0  0
 13 16  1  0  0  0  0
M  END
> <VConfSearch Rank>
223

> <Conf_Id>
36

> <Delta U+W>
-0.427

> <U+W>
-57.331

> <U>
7.263

> <W>
-64.594

> <W(PB)>
-66.513

> <W(SA)>
1.920

> <Valence>
6.734

> <Coulomb>
-0.068

> <VdW>
0.598

> <VdW6>
-4.819

> <VdW12>
5.417

> <Bond>
0.107

> <Angle>
2.469

> <Pdih>
4.157

> <Idih>
0.001

> <Tether>
0.000

$$$$
VeraChem MOL file


 16 15  0  0  0  0  0  0  0  0999 V2000     
   18.2966   17.7777   23.4239 C   0  0  0  0  0  0  0  0  0  0  0  0
   18.5126   17.9275   24.6100 O   0  5  0  0  0  0  0  0  0  0  0  0
   17.6539   16.8520   22.9700 O   0  0  0  0  0  0  0  0  0  0  0  0
   18.8803   18.7954   22.4502 C   0  0  0  0  0  0  0  0  0  0  0  0
   18.8954   19.7690   22.9532 H   0  0  0  0  0  0  0  0  0  0  0  0
   18.1971   18.8808   21.5967 H   0  0  0  0  0  0  0  0  0  0  0  0
   20.3012   18.4128   21.9608 C   0  0  0  0  0  0  0  0  0  0  0  0
   20.9859   18.3721   22.8192 H   0  0  0  0  0  0  0  0  0  0  0  0
   20.2688   17.3979   21.5409 H   0  0  0  0  0  0  0  0  0  0  0  0
   20.8633   19.3757   20.8897 C   0  0  0  0  0  0  0  0  0  0  0  0
   20.1845   19.4075   20.0262 H   0  0  0  0  0  0  0  0  0  0  0  0
   21.8174   18.9750   20.5204 H   0  0  0  0  0  0  0  0  0  0  0  0
   21.0963   20.8066   21.4199 C   0  0  0  0  0  0  0  0  0  0  0  0
   20.1512   21.2907   21.6960 H   0  0  0  0  0  0  0  0  0  0  0  0
   21.5751   21.4272   20.6513 H   0  0  0  0  0  0  0  0  0  0  0  0
   21.7497   20.7972   22.3020 H   0  0  0  0  0  0  0  0  0  0  0  0
  1  2  1  0  0  0  0
  1  3  2  0  0  0  0
  1  4  1  0  0  0  0
  4  5  1  0  0  0  0
  4  6  1  0  0  0  0
  4  7  1  0  0  0  0
  7  8  1  0  0  0  0
  7  9  1  0  0  0  0
  7 10  1  0  0  0  0
 10 11  1  0  0  0  0
 10 12  1  0  0  0  0
 10 13  1  0  0  0  0
 13 14  1  0  0  0  0
 13 15  1  0  0  0  0
 13 16  1  0  0  0  0
M  END
> <VConfSearch Rank>
224

> <Conf_Id>
17

> <Delta U+W>
-0.432

> <U+W>
-57.336

> <U>
7.263

> <W>
-64.599

> <W(PB)>
-66.503

> <W(SA)>
1.904

> <Valence>
6.734

> <Coulomb>
-0.068

> <VdW>
0.598

> <VdW6>
-4.819

> <VdW12>
5.417

> <Bond>
0.107

> <Angle>
2.469

> <Pdih>
4.157

> <Idih>
0.001

> <Tether>
0.000

$$$$
VeraChem MOL file


 16 15  0  0  0  0  0  0  0  0999 V2000     
   18.4975   19.3085   20.3904 C   0  0  0  0  0  0  0  0  0  0  0  0
   18.4324   20.4128   19.8878 O   0  5  0  0  0  0  0  0  0  0  0  0
   18.5615   18.2805   19.7457 O   0  0  0  0  0  0  0  0  0  0  0  0
   18.4730   19.2080   21.9131 C   0  0  0  0  0  0  0  0  0  0  0  0
   18.1894   18.1860   22.1926 H   0  0  0  0  0  0  0  0  0  0  0  0
   17.6748   19.8680   22.2728 H   0  0  0  0  0  0  0  0  0  0  0  0
   19.8112   19.5967   22.5938 C   0  0  0  0  0  0  0  0  0  0  0  0
   20.0969   20.6112   22.2824 H   0  0  0  0  0  0  0  0  0  0  0  0
   19.6613   19.6303   23.6814 H   0  0  0  0  0  0  0  0  0  0  0  0
   20.9522   18.6088   22.2678 C   0  0  0  0  0  0  0  0  0  0  0  0
   21.1251   18.5822   21.1829 H   0  0  0  0  0  0  0  0  0  0  0  0
   20.6601   17.5931   22.5684 H   0  0  0  0  0  0  0  0  0  0  0  0
   22.2608   18.9990   22.9832 C   0  0  0  0  0  0  0  0  0  0  0  0
   22.5922   19.9999   22.6766 H   0  0  0  0  0  0  0  0  0  0  0  0
   23.0610   18.2878   22.7404 H   0  0  0  0  0  0  0  0  0  0  0  0
   22.1277   19.0005   24.0730 H   0  0  0  0  0  0  0  0  0  0  0  0
  1  2  1  0  0  0  0
  1  3  2  0  0  0  0
  1  4  1  0  0  0  0
  4  5  1  0  0  0  0
  4  6  1  0  0  0  0
  4  7  1  0  0  0  0
  7  8  1  0  0  0  0
  7  9  1  0  0  0  0
  7 10  1  0  0  0  0
 10 11  1  0  0  0  0
 10 12  1  0  0  0  0
 10 13  1  0  0  0  0
 13 14  1  0  0  0  0
 13 15  1  0  0  0  0
 13 16  1  0  0  0  0
M  END
> <VConfSearch Rank>
225

> <Conf_Id>
19

> <Delta U+W>
0.048

> <U+W>
-56.856

> <U>
8.276

> <W>
-65.132

> <W(PB)>
-67.031

> <W(SA)>
1.899

> <Valence>
6.513

> <Coulomb>
1.428

> <VdW>
0.335

> <VdW6>
-5.021

> <VdW12>
5.356

> <Bond>
0.092

> <Angle>
2.417

> <Pdih>
4.003

> <Idih>
0.001

> <Tether>
0.000

$$$$
VeraChem MOL file


 16 15  0  0  0  0  0  0  0  0999 V2000     
   20.2176   17.0825   23.1674 C   0  0  0  0  0  0  0  0  0  0  0  0
   19.4799   16.2003   22.7752 O   0  5  0  0  0  0  0  0  0  0  0  0
   20.4008   17.3311   24.3425 O   0  0  0  0  0  0  0  0  0  0  0  0
   20.9716   17.9060   22.1268 C   0  0  0  0  0  0  0  0  0  0  0  0
   21.3864   17.2058   21.3920 H   0  0  0  0  0  0  0  0  0  0  0  0
   21.8235   18.3939   22.6160 H   0  0  0  0  0  0  0  0  0  0  0  0
   20.0966   18.9601   21.3999 C   0  0  0  0  0  0  0  0  0  0  0  0
   20.6793   19.4034   20.5811 H   0  0  0  0  0  0  0  0  0  0  0  0
   19.2327   18.4611   20.9392 H   0  0  0  0  0  0  0  0  0  0  0  0
   19.6109   20.0815   22.3437 C   0  0  0  0  0  0  0  0  0  0  0  0
   20.4753   20.5713   22.8130 H   0  0  0  0  0  0  0  0  0  0  0  0
   19.0090   19.6514   23.1564 H   0  0  0  0  0  0  0  0  0  0  0  0
   18.7725   21.1326   21.5897 C   0  0  0  0  0  0  0  0  0  0  0  0
   19.3601   21.6054   20.7918 H   0  0  0  0  0  0  0  0  0  0  0  0
   18.4347   21.9213   22.2745 H   0  0  0  0  0  0  0  0  0  0  0  0
   17.8840   20.6741   21.1360 H   0  0  0  0  0  0  0  0  0  0  0  0
  1  2  1  0  0  0  0
  1  3  2  0  0  0  0
  1  4  1  0  0  0  0
  4  5  1  0  0  0  0
  4  6  1  0  0  0  0
  4  7  1  0  0  0  0
  7  8  1  0  0  0  0
  7  9  1  0  0  0  0
  7 10  1  0  0  0  0
 10 11  1  0  0  0  0
 10 12  1  0  0  0  0
 10 13  1  0  0  0  0
 13 14  1  0  0  0  0
 13 15  1  0  0  0  0
 13 16  1  0  0  0  0
M  END
> <VConfSearch Rank>
226

> <Conf_Id>
20

> <Delta U+W>
-0.010

> <U+W>
-56.914

> <U>
8.277

> <W>
-65.191

> <W(PB)>
-67.081

> <W(SA)>
1.890

> <Valence>
6.513

> <Coulomb>
1.429

> <VdW>
0.335

> <VdW6>
-5.021

> <VdW12>
5.356

> <Bond>
0.092

> <Angle>
2.417

> <Pdih>
4.002

> <Idih>
0.001

> <Tether>
0.000

$$$$
VeraChem MOL file


 16 15  0  0  0  0  0  0  0  0999 V2000     
   21.9894   19.0344   21.8876 C   0  0  0  0  0  0  0  0  0  0  0  0
   22.5000   18.5031   20.9213 O   0  5  0  0  0  0  0  0  0  0  0  0
   22.3548   18.8406   23.0301 O   0  0  0  0  0  0  0  0  0  0  0  0
   20.8514   20.0229   21.6479 C   0  0  0  0  0  0  0  0  0  0  0  0
   21.1917   20.7321   20.8843 H   0  0  0  0  0  0  0  0  0  0  0  0
   20.6923   20.6051   22.5627 H   0  0  0  0  0  0  0  0  0  0  0  0
   19.5246   19.3641   21.1805 C   0  0  0  0  0  0  0  0  0  0  0  0
   18.7915   20.1506   20.9563 H   0  0  0  0  0  0  0  0  0  0  0  0
   19.7075   18.8349   20.2350 H   0  0  0  0  0  0  0  0  0  0  0  0
   18.9120   18.3724   22.1979 C   0  0  0  0  0  0  0  0  0  0  0  0
   19.6233   17.5606   22.4044 H   0  0  0  0  0  0  0  0  0  0  0  0
   18.0293   17.9017   21.7436 H   0  0  0  0  0  0  0  0  0  0  0  0
   18.4923   19.0422   23.5237 C   0  0  0  0  0  0  0  0  0  0  0  0
   19.3646   19.4193   24.0727 H   0  0  0  0  0  0  0  0  0  0  0  0
   17.9790   18.3205   24.1723 H   0  0  0  0  0  0  0  0  0  0  0  0
   17.8079   19.8810   23.3421 H   0  0  0  0  0  0  0  0  0  0  0  0
  1  2  1  0  0  0  0
  1  3  2  0  0  0  0
  1  4  1  0  0  0  0
  4  5  1  0  0  0  0
  4  6  1  0  0  0  0
  4  7  1  0  0  0  0
  7  8  1  0  0  0  0
  7  9  1  0  0  0  0
  7 10  1  0  0  0  0
 10 11  1  0  0  0  0
 10 12  1  0  0  0  0
 10 13  1  0  0  0  0
 13 14  1  0  0  0  0
 13 15  1  0  0  0  0
 13 16  1  0  0  0  0
M  END
> <VConfSearch Rank>
227

> <Conf_Id>
37

> <Delta U+W>
1.063

> <U+W>
-55.841

> <U>
9.719

> <W>
-65.560

> <W(PB)>
-67.414

> <W(SA)>
1.854

> <Valence>
7.002

> <Coulomb>
2.402

> <VdW>
0.314

> <VdW6>
-5.861

> <VdW12>
6.175

> <Bond>
0.134

> <Angle>
2.733

> <Pdih>
4.133

> <Idih>
0.002

> <Tether>
0.000

$$$$
VeraChem MOL file


 16 15  0  0  0  0  0  0  0  0999 V2000     
   19.6430   20.8019   23.4371 C   0  0  0  0  0  0  0  0  0  0  0  0
   19.4352   20.6932   24.6295 O   0  5  0  0  0  0  0  0  0  0  0  0
   20.3523   21.6632   22.9562 O   0  0  0  0  0  0  0  0  0  0  0  0
   18.9471   19.8248   22.4933 C   0  0  0  0  0  0  0  0  0  0  0  0
   19.0125   20.2156   21.4714 H   0  0  0  0  0  0  0  0  0  0  0  0
   17.8828   19.8205   22.7561 H   0  0  0  0  0  0  0  0  0  0  0  0
   19.4976   18.3740   22.5610 C   0  0  0  0  0  0  0  0  0  0  0  0
   19.3675   17.9947   23.5840 H   0  0  0  0  0  0  0  0  0  0  0  0
   18.8899   17.7276   21.9134 H   0  0  0  0  0  0  0  0  0  0  0  0
   20.9866   18.2376   22.1630 C   0  0  0  0  0  0  0  0  0  0  0  0
   21.3001   17.1967   22.3225 H   0  0  0  0  0  0  0  0  0  0  0  0
   21.6095   18.8532   22.8268 H   0  0  0  0  0  0  0  0  0  0  0  0
   21.2614   18.6207   20.6933 C   0  0  0  0  0  0  0  0  0  0  0  0
   20.6247   18.0438   20.0099 H   0  0  0  0  0  0  0  0  0  0  0  0
   22.3083   18.4178   20.4333 H   0  0  0  0  0  0  0  0  0  0  0  0
   21.0777   19.6887   20.5194 H   0  0  0  0  0  0  0  0  0  0  0  0
  1  2  1  0  0  0  0
  1  3  2  0  0  0  0
  1  4  1  0  0  0  0
  4  5  1  0  0  0  0
  4  6  1  0  0  0  0
  4  7  1  0  0  0  0
  7  8  1  0  0  0  0
  7  9  1  0  0  0  0
  7 10  1  0  0  0  0
 10 11  1  0  0  0  0
 10 12  1  0  0  0  0
 10 13  1  0  0  0  0
 13 14  1  0  0  0  0
 13 15  1  0  0  0  0
 13 16  1  0  0  0  0
M  END
> <VConfSearch Rank>
228

> <Conf_Id>
39

> <Delta U+W>
1.129

> <U+W>
-55.775

> <U>
9.718

> <W>
-65.493

> <W(PB)>
-67.361

> <W(SA)>
1.869

> <Valence>
7.002

> <Coulomb>
2.402

> <VdW>
0.314

> <VdW6>
-5.861

> <VdW12>
6.175

> <Bond>
0.134

> <Angle>
2.734

> <Pdih>
4.133

> <Idih>
0.002

> <Tether>
0.000

$$$$
VeraChem MOL file


 16 15  0  0  0  0  0  0  0  0999 V2000     
   19.8439   20.6485   23.5019 C   0  0  0  0  0  0  0  0  0  0  0  0
   19.5307   20.3128   24.6271 O   0  5  0  0  0  0  0  0  0  0  0  0
   19.3348   21.5846   22.9173 O   0  0  0  0  0  0  0  0  0  0  0  0
   20.9984   19.9119   22.8249 C   0  0  0  0  0  0  0  0  0  0  0  0
   21.3927   19.1558   23.5147 H   0  0  0  0  0  0  0  0  0  0  0  0
   21.7950   20.6514   22.6820 H   0  0  0  0  0  0  0  0  0  0  0  0
   20.6595   19.2638   21.4530 C   0  0  0  0  0  0  0  0  0  0  0  0
   20.0803   19.9675   20.8392 H   0  0  0  0  0  0  0  0  0  0  0  0
   21.6023   19.0976   20.9145 H   0  0  0  0  0  0  0  0  0  0  0  0
   19.9221   17.9060   21.5434 C   0  0  0  0  0  0  0  0  0  0  0  0
   20.5034   17.2060   22.1593 H   0  0  0  0  0  0  0  0  0  0  0  0
   19.8775   17.4674   20.5370 H   0  0  0  0  0  0  0  0  0  0  0  0
   18.4850   18.0120   22.0944 C   0  0  0  0  0  0  0  0  0  0  0  0
   18.4835   18.2894   23.1556 H   0  0  0  0  0  0  0  0  0  0  0  0
   17.9673   17.0483   22.0047 H   0  0  0  0  0  0  0  0  0  0  0  0
   17.9048   18.7618   21.5407 H   0  0  0  0  0  0  0  0  0  0  0  0
  1  2  1  0  0  0  0
  1  3  2  0  0  0  0
  1  4  1  0  0  0  0
  4  5  1  0  0  0  0
  4  6  1  0  0  0  0
  4  7  1  0  0  0  0
  7  8  1  0  0  0  0
  7  9  1  0  0  0  0
  7 10  1  0  0  0  0
 10 11  1  0  0  0  0
 10 12  1  0  0  0  0
 10 13  1  0  0  0  0
 13 14  1  0  0  0  0
 13 15  1  0  0  0  0
 13 16  1  0  0  0  0
M  END
> <VConfSearch Rank>
229

> <Conf_Id>
47

> <Delta U+W>
2.301

> <U+W>
-54.603

> <U>
11.258

> <W>
-65.861

> <W(PB)>
-67.702

> <W(SA)>
1.841

> <Valence>
8.169

> <Coulomb>
2.735

> <VdW>
0.355

> <VdW6>
-6.245

> <VdW12>
6.600

> <Bond>
0.149

> <Angle>
3.168

> <Pdih>
4.840

> <Idih>
0.011

> <Tether>
0.000

$$$$
VeraChem MOL file


 16 15  0  0  0  0  0  0  0  0999 V2000     
   19.9717   18.8740   24.2441 C   0  0  0  0  0  0  0  0  0  0  0  0
   20.8604   18.0846   24.4975 O   0  5  0  0  0  0  0  0  0  0  0  0
   18.8613   18.8105   24.7337 O   0  0  0  0  0  0  0  0  0  0  0  0
   20.2918   20.0585   23.3341 C   0  0  0  0  0  0  0  0  0  0  0  0
   21.0752   20.6343   23.8407 H   0  0  0  0  0  0  0  0  0  0  0  0
   19.4121   20.7109   23.2748 H   0  0  0  0  0  0  0  0  0  0  0  0
   20.7824   19.6862   21.9066 C   0  0  0  0  0  0  0  0  0  0  0  0
   21.3117   20.5552   21.4927 H   0  0  0  0  0  0  0  0  0  0  0  0
   21.5254   18.8787   21.9648 H   0  0  0  0  0  0  0  0  0  0  0  0
   19.6574   19.3028   20.9153 C   0  0  0  0  0  0  0  0  0  0  0  0
   20.0940   19.2174   19.9106 H   0  0  0  0  0  0  0  0  0  0  0  0
   18.9158   20.1118   20.8614 H   0  0  0  0  0  0  0  0  0  0  0  0
   18.9518   17.9738   21.2561 C   0  0  0  0  0  0  0  0  0  0  0  0
   18.2662   17.6851   20.4490 H   0  0  0  0  0  0  0  0  0  0  0  0
   18.3604   18.0599   22.1758 H   0  0  0  0  0  0  0  0  0  0  0  0
   19.6804   17.1633   21.3887 H   0  0  0  0  0  0  0  0  0  0  0  0
  1  2  1  0  0  0  0
  1  3  2  0  0  0  0
  1  4  1  0  0  0  0
  4  5  1  0  0  0  0
  4  6  1  0  0  0  0
  4  7  1  0  0  0  0
  7  8  1  0  0  0  0
  7  9  1  0  0  0  0
  7 10  1  0  0  0  0
 10 11  1  0  0  0  0
 10 12  1  0  0  0  0
 10 13  1  0  0  0  0
 13 14  1  0  0  0  0
 13 15  1  0  0  0  0
 13 16  1  0  0  0  0
M  END
> <VConfSearch Rank>
230

> <Conf_Id>
45

> <Delta U+W>
2.303

> <U+W>
-54.601

> <U>
11.258

> <W>
-65.860

> <W(PB)>
-67.709

> <W(SA)>
1.849

> <Valence>
8.169

> <Coulomb>
2.735

> <VdW>
0.355

> <VdW6>
-6.245

> <VdW12>
6.600

> <Bond>
0.149

> <Angle>
3.168

> <Pdih>
4.840

> <Idih>
0.011

> <Tether>
0.000

$$$$
VeraChem MOL file


 16 15  0  0  0  0  0  0  0  0999 V2000     
   17.9617   19.7935   23.6654 C   0  0  0  0  0  0  0  0  0  0  0  0
   17.4177   20.5516   22.8861 O   0  5  0  0  0  0  0  0  0  0  0  0
   17.5404   19.5796   24.7843 O   0  0  0  0  0  0  0  0  0  0  0  0
   19.2375   19.0603   23.2475 C   0  0  0  0  0  0  0  0  0  0  0  0
   19.0466   17.9857   23.3523 H   0  0  0  0  0  0  0  0  0  0  0  0
   20.0169   19.3198   23.9736 H   0  0  0  0  0  0  0  0  0  0  0  0
   19.7381   19.3654   21.8106 C   0  0  0  0  0  0  0  0  0  0  0  0
   18.9511   19.1084   21.0880 H   0  0  0  0  0  0  0  0  0  0  0  0
   19.9224   20.4439   21.7100 H   0  0  0  0  0  0  0  0  0  0  0  0
   21.0262   18.5851   21.4743 C   0  0  0  0  0  0  0  0  0  0  0  0
   20.8427   17.5061   21.5728 H   0  0  0  0  0  0  0  0  0  0  0  0
   21.8146   18.8424   22.1951 H   0  0  0  0  0  0  0  0  0  0  0  0
   21.5183   18.8922   20.0461 C   0  0  0  0  0  0  0  0  0  0  0  0
   20.7606   18.6150   19.3015 H   0  0  0  0  0  0  0  0  0  0  0  0
   22.4344   18.3298   19.8233 H   0  0  0  0  0  0  0  0  0  0  0  0
   21.7397   19.9612   19.9284 H   0  0  0  0  0  0  0  0  0  0  0  0
  1  2  1  0  0  0  0
  1  3  2  0  0  0  0
  1  4  1  0  0  0  0
  4  5  1  0  0  0  0
  4  6  1  0  0  0  0
  4  7  1  0  0  0  0
  7  8  1  0  0  0  0
  7  9  1  0  0  0  0
  7 10  1  0  0  0  0
 10 11  1  0  0  0  0
 10 12  1  0  0  0  0
 10 13  1  0  0  0  0
 13 14  1  0  0  0  0
 13 15  1  0  0  0  0
 13 16  1  0  0  0  0
M  END
> <VConfSearch Rank>
231

> <Conf_Id>
0

> <Delta U+W>
0.000

> <U+W>
-56.904

> <U>
7.329

> <W>
-64.233

> <W(PB)>
-66.148

> <W(SA)>
1.915

> <Valence>
6.755

> <Coulomb>
-0.421

> <VdW>
0.995

> <VdW6>
-4.495

> <VdW12>
5.490

> <Bond>
0.106

> <Angle>
2.715

> <Pdih>
3.934

> <Idih>
0.000

> <Tether>
0.000

$$$$
VeraChem MOL file


 16 15  0  0  0  0  0  0  0  0999 V2000     
   21.4532   20.8926   20.4159 C   0  0  0  0  0  0  0  0  0  0  0  0
   21.7989   21.9023   20.9963 O   0  5  0  0  0  0  0  0  0  0  0  0
   22.0842   20.3904   19.5074 O   0  0  0  0  0  0  0  0  0  0  0  0
   20.1666   20.2083   20.8643 C   0  0  0  0  0  0  0  0  0  0  0  0
   19.7081   19.7357   19.9872 H   0  0  0  0  0  0  0  0  0  0  0  0
   19.4730   20.9822   21.2149 H   0  0  0  0  0  0  0  0  0  0  0  0
   20.3994   19.1565   21.9768 C   0  0  0  0  0  0  0  0  0  0  0  0
   21.1051   18.3958   21.6151 H   0  0  0  0  0  0  0  0  0  0  0  0
   20.8701   19.6423   22.8429 H   0  0  0  0  0  0  0  0  0  0  0  0
   19.0829   18.4798   22.4118 C   0  0  0  0  0  0  0  0  0  0  0  0
   18.6123   17.9934   21.5461 H   0  0  0  0  0  0  0  0  0  0  0  0
   18.3771   19.2402   22.7741 H   0  0  0  0  0  0  0  0  0  0  0  0
   19.3222   17.4344   23.5190 C   0  0  0  0  0  0  0  0  0  0  0  0
   19.7640   17.8999   24.4099 H   0  0  0  0  0  0  0  0  0  0  0  0
   20.0009   16.6439   23.1728 H   0  0  0  0  0  0  0  0  0  0  0  0
   18.3766   16.9629   23.8167 H   0  0  0  0  0  0  0  0  0  0  0  0
  1  2  1  0  0  0  0
  1  3  2  0  0  0  0
  1  4  1  0  0  0  0
  4  5  1  0  0  0  0
  4  6  1  0  0  0  0
  4  7  1  0  0  0  0
  7  8  1  0  0  0  0
  7  9  1  0  0  0  0
  7 10  1  0  0  0  0
 10 11  1  0  0  0  0
 10 12  1  0  0  0  0
 10 13  1  0  0  0  0
 13 14  1  0  0  0  0
 13 15  1  0  0  0  0
 13 16  1  0  0  0  0
M  END
> <VConfSearch Rank>
232

> <Conf_Id>
22

> <Delta U+W>
-1.185

> <U+W>
-58.089

> <U>
6.298

> <W>
-64.387

> <W(PB)>
-66.329

> <W(SA)>
1.942

> <Valence>
6.246

> <Coulomb>
-0.408

> <VdW>
0.460

> <VdW6>
-4.207

> <VdW12>
4.667

> <Bond>
0.072

> <Angle>
2.246

> <Pdih>
3.928

> <Idih>
0.001

> <Tether>
0.000

$$$$
VeraChem MOL file


 16 15  0  0  0  0  0  0  0  0999 V2000     
   18.8051   20.4014   23.9327 C   0  0  0  0  0  0  0  0  0  0  0  0
   17.6219   20.6765   23.9151 O   0  5  0  0  0  0  0  0  0  0  0  0
   19.6171   20.9729   24.6327 O   0  0  0  0  0  0  0  0  0  0  0  0
   19.3007   19.2923   23.0113 C   0  0  0  0  0  0  0  0  0  0  0  0
   18.4985   18.5518   22.9078 H   0  0  0  0  0  0  0  0  0  0  0  0
   20.1406   18.7944   23.5090 H   0  0  0  0  0  0  0  0  0  0  0  0
   19.7275   19.8163   21.6155 C   0  0  0  0  0  0  0  0  0  0  0  0
   18.8929   20.3840   21.1810 H   0  0  0  0  0  0  0  0  0  0  0  0
   20.5596   20.5249   21.7286 H   0  0  0  0  0  0  0  0  0  0  0  0
   20.1286   18.6924   20.6325 C   0  0  0  0  0  0  0  0  0  0  0  0
   20.3091   19.1359   19.6435 H   0  0  0  0  0  0  0  0  0  0  0  0
   19.2924   17.9901   20.5101 H   0  0  0  0  0  0  0  0  0  0  0  0
   21.3929   17.9228   21.0711 C   0  0  0  0  0  0  0  0  0  0  0  0
   21.2218   17.3683   22.0022 H   0  0  0  0  0  0  0  0  0  0  0  0
   22.2357   18.6086   21.2278 H   0  0  0  0  0  0  0  0  0  0  0  0
   21.6864   17.1971   20.3015 H   0  0  0  0  0  0  0  0  0  0  0  0
  1  2  1  0  0  0  0
  1  3  2  0  0  0  0
  1  4  1  0  0  0  0
  4  5  1  0  0  0  0
  4  6  1  0  0  0  0
  4  7  1  0  0  0  0
  7  8  1  0  0  0  0
  7  9  1  0  0  0  0
  7 10  1  0  0  0  0
 10 11  1  0  0  0  0
 10 12  1  0  0  0  0
 10 13  1  0  0  0  0
 13 14  1  0  0  0  0
 13 15  1  0  0  0  0
 13 16  1  0  0  0  0
M  END
> <VConfSearch Rank>
233

> <Conf_Id>
36

> <Delta U+W>
-0.427

> <U+W>
-57.331

> <U>
7.263

> <W>
-64.594

> <W(PB)>
-66.513

> <W(SA)>
1.920

> <Valence>
6.734

> <Coulomb>
-0.068

> <VdW>
0.598

> <VdW6>
-4.819

> <VdW12>
5.417

> <Bond>
0.107

> <Angle>
2.469

> <Pdih>
4.157

> <Idih>
0.001

> <Tether>
0.000

$$$$
VeraChem MOL file


 16 15  0  0  0  0  0  0  0  0999 V2000     
   19.7359   17.4915   23.9705 C   0  0  0  0  0  0  0  0  0  0  0  0
   19.8729   16.3418   23.6025 O   0  5  0  0  0  0  0  0  0  0  0  0
   19.2052   17.8027   25.0181 O   0  0  0  0  0  0  0  0  0  0  0  0
   20.2392   18.6054   23.0591 C   0  0  0  0  0  0  0  0  0  0  0  0
   21.1234   18.2312   22.5306 H   0  0  0  0  0  0  0  0  0  0  0  0
   20.5666   19.4401   23.6905 H   0  0  0  0  0  0  0  0  0  0  0  0
   19.1650   19.0880   22.0501 C   0  0  0  0  0  0  0  0  0  0  0  0
   18.8761   18.2542   21.3954 H   0  0  0  0  0  0  0  0  0  0  0  0
   18.2614   19.3740   22.6061 H   0  0  0  0  0  0  0  0  0  0  0  0
   19.6222   20.2908   21.1929 C   0  0  0  0  0  0  0  0  0  0  0  0
   19.9000   21.1288   21.8471 H   0  0  0  0  0  0  0  0  0  0  0  0
   18.7724   20.6370   20.5884 H   0  0  0  0  0  0  0  0  0  0  0  0
   20.7986   19.9551   20.2515 C   0  0  0  0  0  0  0  0  0  0  0  0
   21.7073   19.7122   20.8163 H   0  0  0  0  0  0  0  0  0  0  0  0
   21.0286   20.8116   19.6045 H   0  0  0  0  0  0  0  0  0  0  0  0
   20.5544   19.1007   19.6068 H   0  0  0  0  0  0  0  0  0  0  0  0
  1  2  1  0  0  0  0
  1  3  2  0  0  0  0
  1  4  1  0  0  0  0
  4  5  1  0  0  0  0
  4  6  1  0  0  0  0
  4  7  1  0  0  0  0
  7  8  1  0  0  0  0
  7  9  1  0  0  0  0
  7 10  1  0  0  0  0
 10 11  1  0  0  0  0
 10 12  1  0  0  0  0
 10 13  1  0  0  0  0
 13 14  1  0  0  0  0
 13 15  1  0  0  0  0
 13 16  1  0  0  0  0
M  END
> <VConfSearch Rank>
234

> <Conf_Id>
17

> <Delta U+W>
-0.432

> <U+W>
-57.336

> <U>
7.263

> <W>
-64.599

> <W(PB)>
-66.503

> <W(SA)>
1.904

> <Valence>
6.734

> <Coulomb>
-0.068

> <VdW>
0.598

> <VdW6>
-4.819

> <VdW12>
5.417

> <Bond>
0.107

> <Angle>
2.469

> <Pdih>
4.157

> <Idih>
0.001

> <Tether>
0.000

$$$$
VeraChem MOL file


 16 15  0  0  0  0  0  0  0  0999 V2000     
   19.1772   18.3057   20.0913 C   0  0  0  0  0  0  0  0  0  0  0  0
   17.9771   18.4812   20.0180 O   0  5  0  0  0  0  0  0  0  0  0  0
   19.9519   18.5835   19.1975 O   0  0  0  0  0  0  0  0  0  0  0  0
   19.7366   17.6805   21.3664 C   0  0  0  0  0  0  0  0  0  0  0  0
   20.7327   17.2753   21.1503 H   0  0  0  0  0  0  0  0  0  0  0  0
   19.0963   16.8279   21.6221 H   0  0  0  0  0  0  0  0  0  0  0  0
   19.8053   18.6550   22.5708 C   0  0  0  0  0  0  0  0  0  0  0  0
   18.8068   19.0745   22.7572 H   0  0  0  0  0  0  0  0  0  0  0  0
   20.0841   18.0903   23.4707 H   0  0  0  0  0  0  0  0  0  0  0  0
   20.8203   19.7980   22.3527 C   0  0  0  0  0  0  0  0  0  0  0  0
   20.5396   20.3830   21.4657 H   0  0  0  0  0  0  0  0  0  0  0  0
   21.8156   19.3769   22.1541 H   0  0  0  0  0  0  0  0  0  0  0  0
   20.8933   20.7317   23.5771 C   0  0  0  0  0  0  0  0  0  0  0  0
   19.9167   21.1908   23.7793 H   0  0  0  0  0  0  0  0  0  0  0  0
   21.6180   21.5383   23.4054 H   0  0  0  0  0  0  0  0  0  0  0  0
   21.2057   20.1805   24.4737 H   0  0  0  0  0  0  0  0  0  0  0  0
  1  2  1  0  0  0  0
  1  3  2  0  0  0  0
  1  4  1  0  0  0  0
  4  5  1  0  0  0  0
  4  6  1  0  0  0  0
  4  7  1  0  0  0  0
  7  8  1  0  0  0  0
  7  9  1  0  0  0  0
  7 10  1  0  0  0  0
 10 11  1  0  0  0  0
 10 12  1  0  0  0  0
 10 13  1  0  0  0  0
 13 14  1  0  0  0  0
 13 15  1  0  0  0  0
 13 16  1  0  0  0  0
M  END
> <VConfSearch Rank>
235

> <Conf_Id>
19

> <Delta U+W>
0.048

> <U+W>
-56.856

> <U>
8.276

> <W>
-65.132

> <W(PB)>
-67.031

> <W(SA)>
1.899

> <Valence>
6.513

> <Coulomb>
1.428

> <VdW>
0.335

> <VdW6>
-5.021

> <VdW12>
5.356

> <Bond>
0.092

> <Angle>
2.417

> <Pdih>
4.003

> <Idih>
0.001

> <Tether>
0.000

$$$$
VeraChem MOL file


 16 15  0  0  0  0  0  0  0  0999 V2000     
   21.2339   18.0266   23.6536 C   0  0  0  0  0  0  0  0  0  0  0  0
   20.9912   16.8392   23.7407 O   0  5  0  0  0  0  0  0  0  0  0  0
   21.3400   18.7621   24.6149 O   0  0  0  0  0  0  0  0  0  0  0  0
   21.4392   18.6191   22.2621 C   0  0  0  0  0  0  0  0  0  0  0  0
   22.0980   17.9387   21.7096 H   0  0  0  0  0  0  0  0  0  0  0  0
   21.9769   19.5699   22.3618 H   0  0  0  0  0  0  0  0  0  0  0  0
   20.1259   18.8285   21.4642 C   0  0  0  0  0  0  0  0  0  0  0  0
   20.3767   19.1228   20.4361 H   0  0  0  0  0  0  0  0  0  0  0  0
   19.5845   17.8746   21.3971 H   0  0  0  0  0  0  0  0  0  0  0  0
   19.2140   19.9042   22.0931 C   0  0  0  0  0  0  0  0  0  0  0  0
   19.7607   20.8542   22.1710 H   0  0  0  0  0  0  0  0  0  0  0  0
   18.9397   19.6103   23.1159 H   0  0  0  0  0  0  0  0  0  0  0  0
   17.9327   20.1163   21.2627 C   0  0  0  0  0  0  0  0  0  0  0  0
   18.1747   20.4448   20.2434 H   0  0  0  0  0  0  0  0  0  0  0  0
   17.2958   20.8826   21.7235 H   0  0  0  0  0  0  0  0  0  0  0  0
   17.3508   19.1878   21.1950 H   0  0  0  0  0  0  0  0  0  0  0  0
  1  2  1  0  0  0  0
  1  3  2  0  0  0  0
  1  4  1  0  0  0  0
  4  5  1  0  0  0  0
  4  6  1  0  0  0  0
  4  7  1  0  0  0  0
  7  8  1  0  0  0  0
  7  9  1  0  0  0  0
  7 10  1  0  0  0  0
 10 11  1  0  0  0  0
 10 12  1  0  0  0  0
 10 13  1  0  0  0  0
 13 14  1  0  0  0  0
 13 15  1  0  0  0  0
 13 16  1  0  0  0  0
M  END
> <VConfSearch Rank>
236

> <Conf_Id>
20

> <Delta U+W>
-0.010

> <U+W>
-56.914

> <U>
8.277

> <W>
-65.191

> <W(PB)>
-67.081

> <W(SA)>
1.890

> <Valence>
6.513

> <Coulomb>
1.429

> <VdW>
0.335

> <VdW6>
-5.021

> <VdW12>
5.356

> <Bond>
0.092

> <Angle>
2.417

> <Pdih>
4.002

> <Idih>
0.001

> <Tether>
0.000

$$$$
VeraChem MOL file


 16 15  0  0  0  0  0  0  0  0999 V2000     
   20.1763   18.8405   20.0710 C   0  0  0  0  0  0  0  0  0  0  0  0
   19.2738   18.8382   19.2571 O   0  5  0  0  0  0  0  0  0  0  0  0
   21.0516   17.9984   20.1036 O   0  0  0  0  0  0  0  0  0  0  0  0
   20.2296   19.9817   21.0832 C   0  0  0  0  0  0  0  0  0  0  0  0
   20.1408   20.9191   20.5218 H   0  0  0  0  0  0  0  0  0  0  0  0
   21.2214   19.9924   21.5495 H   0  0  0  0  0  0  0  0  0  0  0  0
   19.1165   19.9248   22.1651 C   0  0  0  0  0  0  0  0  0  0  0  0
   19.1822   20.8208   22.7969 H   0  0  0  0  0  0  0  0  0  0  0  0
   18.1381   19.9701   21.6672 H   0  0  0  0  0  0  0  0  0  0  0  0
   19.1629   18.6650   23.0622 C   0  0  0  0  0  0  0  0  0  0  0  0
   19.0629   17.7616   22.4446 H   0  0  0  0  0  0  0  0  0  0  0  0
   18.2933   18.6782   23.7336 H   0  0  0  0  0  0  0  0  0  0  0  0
   20.4474   18.5705   23.9129 C   0  0  0  0  0  0  0  0  0  0  0  0
   21.3338   18.4310   23.2811 H   0  0  0  0  0  0  0  0  0  0  0  0
   20.3911   17.7154   24.5988 H   0  0  0  0  0  0  0  0  0  0  0  0
   20.5897   19.4780   24.5140 H   0  0  0  0  0  0  0  0  0  0  0  0
  1  2  1  0  0  0  0
  1  3  2  0  0  0  0
  1  4  1  0  0  0  0
  4  5  1  0  0  0  0
  4  6  1  0  0  0  0
  4  7  1  0  0  0  0
  7  8  1  0  0  0  0
  7  9  1  0  0  0  0
  7 10  1  0  0  0  0
 10 11  1  0  0  0  0
 10 12  1  0  0  0  0
 10 13  1  0  0  0  0
 13 14  1  0  0  0  0
 13 15  1  0  0  0  0
 13 16  1  0  0  0  0
M  END
> <VConfSearch Rank>
237

> <Conf_Id>
37

> <Delta U+W>
1.063

> <U+W>
-55.841

> <U>
9.719

> <W>
-65.560

> <W(PB)>
-67.414

> <W(SA)>
1.854

> <Valence>
7.002

> <Coulomb>
2.402

> <VdW>
0.314

> <VdW6>
-5.861

> <VdW12>
6.175

> <Bond>
0.134

> <Angle>
2.733

> <Pdih>
4.133

> <Idih>
0.002

> <Tether>
0.000

$$$$
VeraChem MOL file


 16 15  0  0  0  0  0  0  0  0999 V2000     
   21.7488   18.6463   23.5077 C   0  0  0  0  0  0  0  0  0  0  0  0
   22.8853   18.4398   23.1301 O   0  5  0  0  0  0  0  0  0  0  0  0
   21.4759   19.3567   24.4549 O   0  0  0  0  0  0  0  0  0  0  0  0
   20.6081   17.9474   22.7727 C   0  0  0  0  0  0  0  0  0  0  0  0
   19.7022   18.0123   23.3862 H   0  0  0  0  0  0  0  0  0  0  0  0
   20.8648   16.8834   22.7102 H   0  0  0  0  0  0  0  0  0  0  0  0
   20.3421   18.4953   21.3438 C   0  0  0  0  0  0  0  0  0  0  0  0
   21.2518   18.3658   20.7413 H   0  0  0  0  0  0  0  0  0  0  0  0
   19.5652   17.8856   20.8632 H   0  0  0  0  0  0  0  0  0  0  0  0
   19.9211   19.9835   21.2995 C   0  0  0  0  0  0  0  0  0  0  0  0
   19.8384   20.2953   20.2492 H   0  0  0  0  0  0  0  0  0  0  0  0
   20.7067   20.6084   21.7466 H   0  0  0  0  0  0  0  0  0  0  0  0
   18.5771   20.2572   22.0075 C   0  0  0  0  0  0  0  0  0  0  0  0
   17.7812   19.6186   21.6027 H   0  0  0  0  0  0  0  0  0  0  0  0
   18.2759   21.3034   21.8676 H   0  0  0  0  0  0  0  0  0  0  0  0
   18.6517   20.0753   23.0872 H   0  0  0  0  0  0  0  0  0  0  0  0
  1  2  1  0  0  0  0
  1  3  2  0  0  0  0
  1  4  1  0  0  0  0
  4  5  1  0  0  0  0
  4  6  1  0  0  0  0
  4  7  1  0  0  0  0
  7  8  1  0  0  0  0
  7  9  1  0  0  0  0
  7 10  1  0  0  0  0
 10 11  1  0  0  0  0
 10 12  1  0  0  0  0
 10 13  1  0  0  0  0
 13 14  1  0  0  0  0
 13 15  1  0  0  0  0
 13 16  1  0  0  0  0
M  END
> <VConfSearch Rank>
238

> <Conf_Id>
39

> <Delta U+W>
1.129

> <U+W>
-55.775

> <U>
9.718

> <W>
-65.493

> <W(PB)>
-67.361

> <W(SA)>
1.869

> <Valence>
7.002

> <Coulomb>
2.402

> <VdW>
0.314

> <VdW6>
-5.861

> <VdW12>
6.175

> <Bond>
0.134

> <Angle>
2.734

> <Pdih>
4.133

> <Idih>
0.002

> <Tether>
0.000

$$$$
VeraChem MOL file


 16 15  0  0  0  0  0  0  0  0999 V2000     
   17.9036   19.0549   22.2709 C   0  0  0  0  0  0  0  0  0  0  0  0
   17.4519   19.9483   21.5820 O   0  5  0  0  0  0  0  0  0  0  0  0
   17.5189   18.8213   23.3998 O   0  0  0  0  0  0  0  0  0  0  0  0
   18.9440   18.1231   21.6519 C   0  0  0  0  0  0  0  0  0  0  0  0
   19.1183   18.4237   20.6117 H   0  0  0  0  0  0  0  0  0  0  0  0
   18.4856   17.1279   21.6177 H   0  0  0  0  0  0  0  0  0  0  0  0
   20.2933   18.0311   22.4186 C   0  0  0  0  0  0  0  0  0  0  0  0
   20.1055   17.9332   23.4968 H   0  0  0  0  0  0  0  0  0  0  0  0
   20.7941   17.1025   22.1131 H   0  0  0  0  0  0  0  0  0  0  0  0
   21.2693   19.2027   22.1535 C   0  0  0  0  0  0  0  0  0  0  0  0
   21.4529   19.2985   21.0745 H   0  0  0  0  0  0  0  0  0  0  0  0
   22.2380   18.9580   22.6106 H   0  0  0  0  0  0  0  0  0  0  0  0
   20.7892   20.5550   22.7203 C   0  0  0  0  0  0  0  0  0  0  0  0
   19.9105   20.9258   22.1787 H   0  0  0  0  0  0  0  0  0  0  0  0
   21.5782   21.3123   22.6267 H   0  0  0  0  0  0  0  0  0  0  0  0
   20.5279   20.4665   23.7830 H   0  0  0  0  0  0  0  0  0  0  0  0
  1  2  1  0  0  0  0
  1  3  2  0  0  0  0
  1  4  1  0  0  0  0
  4  5  1  0  0  0  0
  4  6  1  0  0  0  0
  4  7  1  0  0  0  0
  7  8  1  0  0  0  0
  7  9  1  0  0  0  0
  7 10  1  0  0  0  0
 10 11  1  0  0  0  0
 10 12  1  0  0  0  0
 10 13  1  0  0  0  0
 13 14  1  0  0  0  0
 13 15  1  0  0  0  0
 13 16  1  0  0  0  0
M  END
> <VConfSearch Rank>
239

> <Conf_Id>
47

> <Delta U+W>
2.301

> <U+W>
-54.603

> <U>
11.258

> <W>
-65.861

> <W(PB)>
-67.702

> <W(SA)>
1.841

> <Valence>
8.169

> <Coulomb>
2.735

> <VdW>
0.355

> <VdW6>
-6.245

> <VdW12>
6.600

> <Bond>
0.149

> <Angle>
3.168

> <Pdih>
4.840

> <Idih>
0.011

> <Tether>
0.000

$$$$
VeraChem MOL file


 16 15  0  0  0  0  0  0  0  0999 V2000     
   19.8644   19.2067   24.2585 C   0  0  0  0  0  0  0  0  0  0  0  0
   19.2759   18.2346   24.6897 O   0  5  0  0  0  0  0  0  0  0  0  0
   19.6558   20.3400   24.6444 O   0  0  0  0  0  0  0  0  0  0  0  0
   20.9862   18.9850   23.2455 C   0  0  0  0  0  0  0  0  0  0  0  0
   21.7412   18.3712   23.7503 H   0  0  0  0  0  0  0  0  0  0  0  0
   21.4622   19.9479   23.0238 H   0  0  0  0  0  0  0  0  0  0  0  0
   20.5610   18.2790   21.9272 C   0  0  0  0  0  0  0  0  0  0  0  0
   21.4624   17.8571   21.4627 H   0  0  0  0  0  0  0  0  0  0  0  0
   19.9087   17.4242   22.1538 H   0  0  0  0  0  0  0  0  0  0  0  0
   19.8831   19.2038   20.8876 C   0  0  0  0  0  0  0  0  0  0  0  0
   19.7729   18.6467   19.9469 H   0  0  0  0  0  0  0  0  0  0  0  0
   20.5375   20.0579   20.6652 H   0  0  0  0  0  0  0  0  0  0  0  0
   18.4925   19.7139   21.3192 C   0  0  0  0  0  0  0  0  0  0  0  0
   18.0046   20.2451   20.4918 H   0  0  0  0  0  0  0  0  0  0  0  0
   18.5671   20.4129   22.1611 H   0  0  0  0  0  0  0  0  0  0  0  0
   17.8426   18.8812   21.6183 H   0  0  0  0  0  0  0  0  0  0  0  0
  1  2  1  0  0  0  0
  1  3  2  0  0  0  0
  1  4  1  0  0  0  0
  4  5  1  0  0  0  0
  4  6  1  0  0  0  0
  4  7  1  0  0  0  0
  7  8  1  0  0  0  0
  7  9  1  0  0  0  0
  7 10  1  0  0  0  0
 10 11  1  0  0  0  0
 10 12  1  0  0  0  0
 10 13  1  0  0  0  0
 13 14  1  0  0  0  0
 13 15  1  0  0  0  0
 13 16  1  0  0  0  0
M  END
> <VConfSearch Rank>
240

> <Conf_Id>
45

> <Delta U+W>
2.303

> <U+W>
-54.601

> <U>
11.258

> <W>
-65.860

> <W(PB)>
-67.709

> <W(SA)>
1.849

> <Valence>
8.169

> <Coulomb>
2.735

> <VdW>
0.355

> <VdW6>
-6.245

> <VdW12>
6.600

> <Bond>
0.149

> <Angle>
3.168

> <Pdih>
4.840

> <Idih>
0.011

> <Tether>
0.000

$$$$
VeraChem MOL file


 16 15  0  0  0  0  0  0  0  0999 V2000     
   21.0113   18.2760   19.5052 C   0  0  0  0  0  0  0  0  0  0  0  0
   20.5804   17.1443   19.6108 O   0  5  0  0  0  0  0  0  0  0  0  0
   21.6500   18.6544   18.5438 O   0  0  0  0  0  0  0  0  0  0  0  0
   20.7546   19.2941   20.6176 C   0  0  0  0  0  0  0  0  0  0  0  0
   20.2376   20.1490   20.1658 H   0  0  0  0  0  0  0  0  0  0  0  0
   21.7308   19.6554   20.9623 H   0  0  0  0  0  0  0  0  0  0  0  0
   19.9357   18.7655   21.8252 C   0  0  0  0  0  0  0  0  0  0  0  0
   18.9611   18.4001   21.4729 H   0  0  0  0  0  0  0  0  0  0  0  0
   20.4558   17.9059   22.2702 H   0  0  0  0  0  0  0  0  0  0  0  0
   19.7247   19.8560   22.8965 C   0  0  0  0  0  0  0  0  0  0  0  0
   19.2031   20.7156   22.4531 H   0  0  0  0  0  0  0  0  0  0  0  0
   20.6987   20.2211   23.2509 H   0  0  0  0  0  0  0  0  0  0  0  0
   18.9109   19.3250   24.0931 C   0  0  0  0  0  0  0  0  0  0  0  0
   17.9187   18.9816   23.7718 H   0  0  0  0  0  0  0  0  0  0  0  0
   18.7701   20.1124   24.8450 H   0  0  0  0  0  0  0  0  0  0  0  0
   19.4253   18.4835   24.5755 H   0  0  0  0  0  0  0  0  0  0  0  0
  1  2  1  0  0  0  0
  1  3  2  0  0  0  0
  1  4  1  0  0  0  0
  4  5  1  0  0  0  0
  4  6  1  0  0  0  0
  4  7  1  0  0  0  0
  7  8  1  0  0  0  0
  7  9  1  0  0  0  0
  7 10  1  0  0  0  0
 10 11  1  0  0  0  0
 10 12  1  0  0  0  0
 10 13  1  0  0  0  0
 13 14  1  0  0  0  0
 13 15  1  0  0  0  0
 13 16  1  0  0  0  0
M  END
> <VConfSearch Rank>
241

> <Conf_Id>
0

> <Delta U+W>
0.000

> <U+W>
-56.904

> <U>
7.329

> <W>
-64.233

> <W(PB)>
-66.148

> <W(SA)>
1.915

> <Valence>
6.755

> <Coulomb>
-0.421

> <VdW>
0.995

> <VdW6>
-4.495

> <VdW12>
5.490

> <Bond>
0.106

> <Angle>
2.715

> <Pdih>
3.934

> <Idih>
0.000

> <Tether>
0.000

$$$$
VeraChem MOL file


 16 15  0  0  0  0  0  0  0  0999 V2000     
   20.5361   21.7799   22.3378 C   0  0  0  0  0  0  0  0  0  0  0  0
   19.6852   22.5283   21.9001 O   0  5  0  0  0  0  0  0  0  0  0  0
   21.2135   22.0306   23.3147 O   0  0  0  0  0  0  0  0  0  0  0  0
   20.7532   20.4451   21.6336 C   0  0  0  0  0  0  0  0  0  0  0  0
   21.8121   20.1764   21.7310 H   0  0  0  0  0  0  0  0  0  0  0  0
   20.5520   20.5867   20.5648 H   0  0  0  0  0  0  0  0  0  0  0  0
   19.8609   19.3130   22.1994 C   0  0  0  0  0  0  0  0  0  0  0  0
   20.0650   19.1917   23.2723 H   0  0  0  0  0  0  0  0  0  0  0  0
   18.8049   19.6021   22.1062 H   0  0  0  0  0  0  0  0  0  0  0  0
   20.1001   17.9746   21.4700 C   0  0  0  0  0  0  0  0  0  0  0  0
   21.1559   17.6847   21.5636 H   0  0  0  0  0  0  0  0  0  0  0  0
   19.8955   18.0952   20.3971 H   0  0  0  0  0  0  0  0  0  0  0  0
   19.2088   16.8526   22.0382 C   0  0  0  0  0  0  0  0  0  0  0  0
   18.1453   17.1025   21.9291 H   0  0  0  0  0  0  0  0  0  0  0  0
   19.4150   16.6890   23.1042 H   0  0  0  0  0  0  0  0  0  0  0  0
   19.3912   15.9083   21.5089 H   0  0  0  0  0  0  0  0  0  0  0  0
  1  2  1  0  0  0  0
  1  3  2  0  0  0  0
  1  4  1  0  0  0  0
  4  5  1  0  0  0  0
  4  6  1  0  0  0  0
  4  7  1  0  0  0  0
  7  8  1  0  0  0  0
  7  9  1  0  0  0  0
  7 10  1  0  0  0  0
 10 11  1  0  0  0  0
 10 12  1  0  0  0  0
 10 13  1  0  0  0  0
 13 14  1  0  0  0  0
 13 15  1  0  0  0  0
 13 16  1  0  0  0  0
M  END
> <VConfSearch Rank>
242

> <Conf_Id>
22

> <Delta U+W>
-1.185

> <U+W>
-58.089

> <U>
6.298

> <W>
-64.387

> <W(PB)>
-66.329

> <W(SA)>
1.942

> <Valence>
6.246

> <Coulomb>
-0.408

> <VdW>
0.460

> <VdW6>
-4.207

> <VdW12>
4.667

> <Bond>
0.072

> <Angle>
2.246

> <Pdih>
3.928

> <Idih>
0.001

> <Tether>
0.000

$$$$
VeraChem MOL file


 16 15  0  0  0  0  0  0  0  0999 V2000     
   22.4850   18.6284   22.2692 C   0  0  0  0  0  0  0  0  0  0  0  0
   22.9034   17.4988   22.4271 O   0  5  0  0  0  0  0  0  0  0  0  0
   23.1055   19.6244   22.5837 O   0  0  0  0  0  0  0  0  0  0  0  0
   21.0976   18.8045   21.6620 C   0  0  0  0  0  0  0  0  0  0  0  0
   20.9272   17.9814   20.9576 H   0  0  0  0  0  0  0  0  0  0  0  0
   21.1024   19.7338   21.0810 H   0  0  0  0  0  0  0  0  0  0  0  0
   19.9735   18.8352   22.7299 C   0  0  0  0  0  0  0  0  0  0  0  0
   20.0507   17.9314   23.3500 H   0  0  0  0  0  0  0  0  0  0  0  0
   20.1312   19.6887   23.4037 H   0  0  0  0  0  0  0  0  0  0  0  0
   18.5521   18.9029   22.1254 C   0  0  0  0  0  0  0  0  0  0  0  0
   17.8180   18.8102   22.9377 H   0  0  0  0  0  0  0  0  0  0  0  0
   18.3900   18.0431   21.4606 H   0  0  0  0  0  0  0  0  0  0  0  0
   18.2798   20.2129   21.3555 C   0  0  0  0  0  0  0  0  0  0  0  0
   18.9160   20.2944   20.4653 H   0  0  0  0  0  0  0  0  0  0  0  0
   18.4635   21.0882   21.9922 H   0  0  0  0  0  0  0  0  0  0  0  0
   17.2348   20.2514   21.0215 H   0  0  0  0  0  0  0  0  0  0  0  0
  1  2  1  0  0  0  0
  1  3  2  0  0  0  0
  1  4  1  0  0  0  0
  4  5  1  0  0  0  0
  4  6  1  0  0  0  0
  4  7  1  0  0  0  0
  7  8  1  0  0  0  0
  7  9  1  0  0  0  0
  7 10  1  0  0  0  0
 10 11  1  0  0  0  0
 10 12  1  0  0  0  0
 10 13  1  0  0  0  0
 13 14  1  0  0  0  0
 13 15  1  0  0  0  0
 13 16  1  0  0  0  0
M  END
> <VConfSearch Rank>
243

> <Conf_Id>
36

> <Delta U+W>
-0.427

> <U+W>
-57.331

> <U>
7.263

> <W>
-64.594

> <W(PB)>
-66.513

> <W(SA)>
1.920

> <Valence>
6.734

> <Coulomb>
-0.068

> <VdW>
0.598

> <VdW6>
-4.819

> <VdW12>
5.417

> <Bond>
0.107

> <Angle>
2.469

> <Pdih>
4.157

> <Idih>
0.001

> <Tether>
0.000

$$$$
VeraChem MOL file


 16 15  0  0  0  0  0  0  0  0999 V2000     
   21.4914   17.5000   23.2828 C   0  0  0  0  0  0  0  0  0  0  0  0
   22.5393   17.3193   22.6953 O   0  5  0  0  0  0  0  0  0  0  0  0
   21.0639   16.7517   24.1391 O   0  0  0  0  0  0  0  0  0  0  0  0
   20.6574   18.7212   22.9115 C   0  0  0  0  0  0  0  0  0  0  0  0
   21.3476   19.5234   22.6266 H   0  0  0  0  0  0  0  0  0  0  0  0
   20.1237   19.0548   23.8095 H   0  0  0  0  0  0  0  0  0  0  0  0
   19.6508   18.4362   21.7667 C   0  0  0  0  0  0  0  0  0  0  0  0
   20.1994   18.1442   20.8605 H   0  0  0  0  0  0  0  0  0  0  0  0
   19.0322   17.5725   22.0472 H   0  0  0  0  0  0  0  0  0  0  0  0
   18.7218   19.6314   21.4524 C   0  0  0  0  0  0  0  0  0  0  0  0
   18.1645   19.9160   22.3556 H   0  0  0  0  0  0  0  0  0  0  0  0
   17.9739   19.3125   20.7133 H   0  0  0  0  0  0  0  0  0  0  0  0
   19.4760   20.8595   20.8992 C   0  0  0  0  0  0  0  0  0  0  0  0
   20.1561   21.2833   21.6486 H   0  0  0  0  0  0  0  0  0  0  0  0
   18.7675   21.6468   20.6107 H   0  0  0  0  0  0  0  0  0  0  0  0
   20.0641   20.5923   20.0115 H   0  0  0  0  0  0  0  0  0  0  0  0
  1  2  1  0  0  0  0
  1  3  2  0  0  0  0
  1  4  1  0  0  0  0
  4  5  1  0  0  0  0
  4  6  1  0  0  0  0
  4  7  1  0  0  0  0
  7  8  1  0  0  0  0
  7  9  1  0  0  0  0
  7 10  1  0  0  0  0
 10 11  1  0  0  0  0
 10 12  1  0  0  0  0
 10 13  1  0  0  0  0
 13 14  1  0  0  0  0
 13 15  1  0  0  0  0
 13 16  1  0  0  0  0
M  END
> <VConfSearch Rank>
244

> <Conf_Id>
17

> <Delta U+W>
-0.432

> <U+W>
-57.336

> <U>
7.263

> <W>
-64.599

> <W(PB)>
-66.503

> <W(SA)>
1.904

> <Valence>
6.734

> <Coulomb>
-0.068

> <VdW>
0.598

> <VdW6>
-4.819

> <VdW12>
5.417

> <Bond>
0.107

> <Angle>
2.469

> <Pdih>
4.157

> <Idih>
0.001

> <Tether>
0.000

$$$$
VeraChem MOL file


 16 15  0  0  0  0  0  0  0  0999 V2000     
   21.5410   19.8524   20.3248 C   0  0  0  0  0  0  0  0  0  0  0  0
   22.6956   19.4937   20.4455 O   0  5  0  0  0  0  0  0  0  0  0  0
   20.9007   19.7197   19.3007 O   0  0  0  0  0  0  0  0  0  0  0  0
   20.8686   20.5275   21.5171 C   0  0  0  0  0  0  0  0  0  0  0  0
   19.9971   21.0880   21.1570 H   0  0  0  0  0  0  0  0  0  0  0  0
   21.5749   21.2636   21.9188 H   0  0  0  0  0  0  0  0  0  0  0  0
   20.4466   19.5479   22.6428 C   0  0  0  0  0  0  0  0  0  0  0  0
   21.3233   18.9737   22.9734 H   0  0  0  0  0  0  0  0  0  0  0  0
   20.1033   20.1281   23.5100 H   0  0  0  0  0  0  0  0  0  0  0  0
   19.3255   18.5826   22.2007 C   0  0  0  0  0  0  0  0  0  0  0  0
   19.6653   17.9817   21.3456 H   0  0  0  0  0  0  0  0  0  0  0  0
   18.4542   19.1582   21.8588 H   0  0  0  0  0  0  0  0  0  0  0  0
   18.9019   17.6435   23.3475 C   0  0  0  0  0  0  0  0  0  0  0  0
   19.7487   17.0331   23.6879 H   0  0  0  0  0  0  0  0  0  0  0  0
   18.1057   16.9640   23.0166 H   0  0  0  0  0  0  0  0  0  0  0  0
   18.5246   18.2157   24.2051 H   0  0  0  0  0  0  0  0  0  0  0  0
  1  2  1  0  0  0  0
  1  3  2  0  0  0  0
  1  4  1  0  0  0  0
  4  5  1  0  0  0  0
  4  6  1  0  0  0  0
  4  7  1  0  0  0  0
  7  8  1  0  0  0  0
  7  9  1  0  0  0  0
  7 10  1  0  0  0  0
 10 11  1  0  0  0  0
 10 12  1  0  0  0  0
 10 13  1  0  0  0  0
 13 14  1  0  0  0  0
 13 15  1  0  0  0  0
 13 16  1  0  0  0  0
M  END
> <VConfSearch Rank>
245

> <Conf_Id>
19

> <Delta U+W>
0.048

> <U+W>
-56.856

> <U>
8.276

> <W>
-65.132

> <W(PB)>
-67.031

> <W(SA)>
1.899

> <Valence>
6.513

> <Coulomb>
1.428

> <VdW>
0.335

> <VdW6>
-5.021

> <VdW12>
5.356

> <Bond>
0.092

> <Angle>
2.417

> <Pdih>
4.003

> <Idih>
0.001

> <Tether>
0.000

$$$$
VeraChem MOL file


 16 15  0  0  0  0  0  0  0  0999 V2000     
   20.5240   21.3197   22.8068 C   0  0  0  0  0  0  0  0  0  0  0  0
   21.3554   21.8377   22.0880 O   0  5  0  0  0  0  0  0  0  0  0  0
   20.6234   21.2646   24.0165 O   0  0  0  0  0  0  0  0  0  0  0  0
   19.2773   20.7277   22.1548 C   0  0  0  0  0  0  0  0  0  0  0  0
   18.9114   21.4578   21.4232 H   0  0  0  0  0  0  0  0  0  0  0  0
   18.4969   20.6260   22.9188 H   0  0  0  0  0  0  0  0  0  0  0  0
   19.5177   19.3667   21.4512 C   0  0  0  0  0  0  0  0  0  0  0  0
   18.6115   19.0872   20.8969 H   0  0  0  0  0  0  0  0  0  0  0  0
   20.3208   19.4771   20.7094 H   0  0  0  0  0  0  0  0  0  0  0  0
   19.8745   18.2395   22.4444 C   0  0  0  0  0  0  0  0  0  0  0  0
   19.0763   18.1387   23.1928 H   0  0  0  0  0  0  0  0  0  0  0  0
   20.7919   18.4993   22.9907 H   0  0  0  0  0  0  0  0  0  0  0  0
   20.0748   16.8919   21.7233 C   0  0  0  0  0  0  0  0  0  0  0  0
   19.1610   16.5887   21.1956 H   0  0  0  0  0  0  0  0  0  0  0  0
   20.3285   16.1025   22.4427 H   0  0  0  0  0  0  0  0  0  0  0  0
   20.8893   16.9566   20.9898 H   0  0  0  0  0  0  0  0  0  0  0  0
  1  2  1  0  0  0  0
  1  3  2  0  0  0  0
  1  4  1  0  0  0  0
  4  5  1  0  0  0  0
  4  6  1  0  0  0  0
  4  7  1  0  0  0  0
  7  8  1  0  0  0  0
  7  9  1  0  0  0  0
  7 10  1  0  0  0  0
 10 11  1  0  0  0  0
 10 12  1  0  0  0  0
 10 13  1  0  0  0  0
 13 14  1  0  0  0  0
 13 15  1  0  0  0  0
 13 16  1  0  0  0  0
M  END
> <VConfSearch Rank>
246

> <Conf_Id>
20

> <Delta U+W>
-0.010

> <U+W>
-56.914

> <U>
8.277

> <W>
-65.191

> <W(PB)>
-67.081

> <W(SA)>
1.890

> <Valence>
6.513

> <Coulomb>
1.429

> <VdW>
0.335

> <VdW6>
-5.021

> <VdW12>
5.356

> <Bond>
0.092

> <Angle>
2.417

> <Pdih>
4.002

> <Idih>
0.001

> <Tether>
0.000

$$$$
VeraChem MOL file


 16 15  0  0  0  0  0  0  0  0999 V2000     
   18.6773   19.1523   23.9647 C   0  0  0  0  0  0  0  0  0  0  0  0
   19.0677   19.6052   25.0227 O   0  5  0  0  0  0  0  0  0  0  0  0
   18.1256   18.0748   23.8597 O   0  0  0  0  0  0  0  0  0  0  0  0
   18.8604   19.9990   22.7081 C   0  0  0  0  0  0  0  0  0  0  0  0
   18.4698   20.9991   22.9297 H   0  0  0  0  0  0  0  0  0  0  0  0
   18.2283   19.5888   21.9121 H   0  0  0  0  0  0  0  0  0  0  0  0
   20.3336   20.1184   22.2306 C   0  0  0  0  0  0  0  0  0  0  0  0
   20.3804   20.8057   21.3752 H   0  0  0  0  0  0  0  0  0  0  0  0
   20.9273   20.5817   23.0308 H   0  0  0  0  0  0  0  0  0  0  0  0
   20.9879   18.7723   21.8384 C   0  0  0  0  0  0  0  0  0  0  0  0
   20.9787   18.0870   22.6974 H   0  0  0  0  0  0  0  0  0  0  0  0
   22.0448   18.9512   21.5971 H   0  0  0  0  0  0  0  0  0  0  0  0
   20.3088   18.0949   20.6291 C   0  0  0  0  0  0  0  0  0  0  0  0
   19.2835   17.7863   20.8697 H   0  0  0  0  0  0  0  0  0  0  0  0
   20.8642   17.1963   20.3310 H   0  0  0  0  0  0  0  0  0  0  0  0
   20.2732   18.7728   19.7663 H   0  0  0  0  0  0  0  0  0  0  0  0
  1  2  1  0  0  0  0
  1  3  2  0  0  0  0
  1  4  1  0  0  0  0
  4  5  1  0  0  0  0
  4  6  1  0  0  0  0
  4  7  1  0  0  0  0
  7  8  1  0  0  0  0
  7  9  1  0  0  0  0
  7 10  1  0  0  0  0
 10 11  1  0  0  0  0
 10 12  1  0  0  0  0
 10 13  1  0  0  0  0
 13 14  1  0  0  0  0
 13 15  1  0  0  0  0
 13 16  1  0  0  0  0
M  END
> <VConfSearch Rank>
247

> <Conf_Id>
37

> <Delta U+W>
1.063

> <U+W>
-55.841

> <U>
9.719

> <W>
-65.560

> <W(PB)>
-67.414

> <W(SA)>
1.854

> <Valence>
7.002

> <Coulomb>
2.402

> <VdW>
0.314

> <VdW6>
-5.861

> <VdW12>
6.175

> <Bond>
0.134

> <Angle>
2.733

> <Pdih>
4.133

> <Idih>
0.002

> <Tether>
0.000

$$$$
VeraChem MOL file


 16 15  0  0  0  0  0  0  0  0999 V2000     
   18.6437   17.6390   22.5557 C   0  0  0  0  0  0  0  0  0  0  0  0
   18.5096   16.6435   21.8717 O   0  5  0  0  0  0  0  0  0  0  0  0
   18.6539   17.6210   23.7706 O   0  0  0  0  0  0  0  0  0  0  0  0
   18.7712   18.9859   21.8491 C   0  0  0  0  0  0  0  0  0  0  0  0
   18.6091   19.7845   22.5820 H   0  0  0  0  0  0  0  0  0  0  0  0
   17.9479   19.0546   21.1285 H   0  0  0  0  0  0  0  0  0  0  0  0
   20.1204   19.1895   21.1069 C   0  0  0  0  0  0  0  0  0  0  0  0
   20.2255   18.4052   20.3445 H   0  0  0  0  0  0  0  0  0  0  0  0
   20.0925   20.1442   20.5645 H   0  0  0  0  0  0  0  0  0  0  0  0
   21.3645   19.1627   22.0263 C   0  0  0  0  0  0  0  0  0  0  0  0
   22.2658   19.2311   21.4018 H   0  0  0  0  0  0  0  0  0  0  0  0
   21.4231   18.1979   22.5490 H   0  0  0  0  0  0  0  0  0  0  0  0
   21.3846   20.3115   23.0570 C   0  0  0  0  0  0  0  0  0  0  0  0
   21.2913   21.2868   22.5620 H   0  0  0  0  0  0  0  0  0  0  0  0
   22.3272   20.3058   23.6194 H   0  0  0  0  0  0  0  0  0  0  0  0
   20.5660   20.2108   23.7811 H   0  0  0  0  0  0  0  0  0  0  0  0
  1  2  1  0  0  0  0
  1  3  2  0  0  0  0
  1  4  1  0  0  0  0
  4  5  1  0  0  0  0
  4  6  1  0  0  0  0
  4  7  1  0  0  0  0
  7  8  1  0  0  0  0
  7  9  1  0  0  0  0
  7 10  1  0  0  0  0
 10 11  1  0  0  0  0
 10 12  1  0  0  0  0
 10 13  1  0  0  0  0
 13 14  1  0  0  0  0
 13 15  1  0  0  0  0
 13 16  1  0  0  0  0
M  END
> <VConfSearch Rank>
248

> <Conf_Id>
39

> <Delta U+W>
1.129

> <U+W>
-55.775

> <U>
9.718

> <W>
-65.493

> <W(PB)>
-67.361

> <W(SA)>
1.869

> <Valence>
7.002

> <Coulomb>
2.402

> <VdW>
0.314

> <VdW6>
-5.861

> <VdW12>
6.175

> <Bond>
0.134

> <Angle>
2.734

> <Pdih>
4.133

> <Idih>
0.002

> <Tether>
0.000

$$$$
VeraChem MOL file


 16 15  0  0  0  0  0  0  0  0999 V2000     
   18.9374   19.8665   23.8311 C   0  0  0  0  0  0  0  0  0  0  0  0
   18.7442   19.0327   24.6938 O   0  5  0  0  0  0  0  0  0  0  0  0
   18.0729   20.6147   23.4187 O   0  0  0  0  0  0  0  0  0  0  0  0
   20.3605   20.0422   23.3042 C   0  0  0  0  0  0  0  0  0  0  0  0
   21.0253   19.3490   23.8337 H   0  0  0  0  0  0  0  0  0  0  0  0
   20.6723   21.0540   23.5885 H   0  0  0  0  0  0  0  0  0  0  0  0
   20.5250   19.8768   21.7671 C   0  0  0  0  0  0  0  0  0  0  0  0
   19.7227   20.4159   21.2444 H   0  0  0  0  0  0  0  0  0  0  0  0
   21.4620   20.3679   21.4717 H   0  0  0  0  0  0  0  0  0  0  0  0
   20.5863   18.4099   21.2771 C   0  0  0  0  0  0  0  0  0  0  0  0
   21.3882   17.8740   21.8034 H   0  0  0  0  0  0  0  0  0  0  0  0
   20.8621   18.4103   20.2135 H   0  0  0  0  0  0  0  0  0  0  0  0
   19.2574   17.6427   21.4371 C   0  0  0  0  0  0  0  0  0  0  0  0
   19.0204   17.4703   22.4941 H   0  0  0  0  0  0  0  0  0  0  0  0
   19.3193   16.6616   20.9488 H   0  0  0  0  0  0  0  0  0  0  0  0
   18.4254   18.1963   20.9826 H   0  0  0  0  0  0  0  0  0  0  0  0
  1  2  1  0  0  0  0
  1  3  2  0  0  0  0
  1  4  1  0  0  0  0
  4  5  1  0  0  0  0
  4  6  1  0  0  0  0
  4  7  1  0  0  0  0
  7  8  1  0  0  0  0
  7  9  1  0  0  0  0
  7 10  1  0  0  0  0
 10 11  1  0  0  0  0
 10 12  1  0  0  0  0
 10 13  1  0  0  0  0
 13 14  1  0  0  0  0
 13 15  1  0  0  0  0
 13 16  1  0  0  0  0
M  END
> <VConfSearch Rank>
249

> <Conf_Id>
47

> <Delta U+W>
2.301

> <U+W>
-54.603

> <U>
11.258

> <W>
-65.861

> <W(PB)>
-67.702

> <W(SA)>
1.841

> <Valence>
8.169

> <Coulomb>
2.735

> <VdW>
0.355

> <VdW6>
-6.245

> <VdW12>
6.600

> <Bond>
0.149

> <Angle>
3.168

> <Pdih>
4.840

> <Idih>
0.011

> <Tether>
0.000

$$$$
VeraChem MOL file


 16 15  0  0  0  0  0  0  0  0999 V2000     
   19.4217   21.0069   22.6988 C   0  0  0  0  0  0  0  0  0  0  0  0
   19.3541   21.6372   21.6618 O   0  5  0  0  0  0  0  0  0  0  0  0
   20.0306   21.3926   23.6771 O   0  0  0  0  0  0  0  0  0  0  0  0
   18.6273   19.7068   22.8102 C   0  0  0  0  0  0  0  0  0  0  0  0
   17.5723   19.9781   22.6870 H   0  0  0  0  0  0  0  0  0  0  0  0
   18.7322   19.3106   23.8275 H   0  0  0  0  0  0  0  0  0  0  0  0
   18.9924   18.6136   21.7669 C   0  0  0  0  0  0  0  0  0  0  0  0
   18.1507   17.9107   21.7037 H   0  0  0  0  0  0  0  0  0  0  0  0
   19.0860   19.0645   20.7691 H   0  0  0  0  0  0  0  0  0  0  0  0
   20.2642   17.7978   22.1027 C   0  0  0  0  0  0  0  0  0  0  0  0
   20.3363   16.9602   21.3952 H   0  0  0  0  0  0  0  0  0  0  0  0
   20.1674   17.3503   23.1015 H   0  0  0  0  0  0  0  0  0  0  0  0
   21.5693   18.6168   22.0251 C   0  0  0  0  0  0  0  0  0  0  0  0
   22.4419   17.9599   22.1340 H   0  0  0  0  0  0  0  0  0  0  0  0
   21.6189   19.3659   22.8247 H   0  0  0  0  0  0  0  0  0  0  0  0
   21.6528   19.1350   21.0608 H   0  0  0  0  0  0  0  0  0  0  0  0
  1  2  1  0  0  0  0
  1  3  2  0  0  0  0
  1  4  1  0  0  0  0
  4  5  1  0  0  0  0
  4  6  1  0  0  0  0
  4  7  1  0  0  0  0
  7  8  1  0  0  0  0
  7  9  1  0  0  0  0
  7 10  1  0  0  0  0
 10 11  1  0  0  0  0
 10 12  1  0  0  0  0
 10 13  1  0  0  0  0
 13 14  1  0  0  0  0
 13 15  1  0  0  0  0
 13 16  1  0  0  0  0
M  END
> <VConfSearch Rank>
250

> <Conf_Id>
45

> <Delta U+W>
2.303

> <U+W>
-54.601

> <U>
11.258

> <W>
-65.860

> <W(PB)>
-67.709

> <W(SA)>
1.849

> <Valence>
8.169

> <Coulomb>
2.735

> <VdW>
0.355

> <VdW6>
-6.245

> <VdW12>
6.600

> <Bond>
0.149

> <Angle>
3.168

> <Pdih>
4.840

> <Idih>
0.011

> <Tether>
0.000

$$$$
VeraChem MOL file


 16 15  0  0  0  0  0  0  0  0999 V2000     
   19.6168   21.7379   21.1397 C   0  0  0  0  0  0  0  0  0  0  0  0
   19.9095   21.5311   19.9780 O   0  5  0  0  0  0  0  0  0  0  0  0
   19.2972   22.8328   21.5572 O   0  0  0  0  0  0  0  0  0  0  0  0
   19.6427   20.5867   22.1467 C   0  0  0  0  0  0  0  0  0  0  0  0
   18.6420   20.5164   22.5892 H   0  0  0  0  0  0  0  0  0  0  0  0
   20.3301   20.8718   22.9519 H   0  0  0  0  0  0  0  0  0  0  0  0
   20.0573   19.2078   21.5680 C   0  0  0  0  0  0  0  0  0  0  0  0
   19.3684   18.9301   20.7582 H   0  0  0  0  0  0  0  0  0  0  0  0
   21.0583   19.2858   21.1213 H   0  0  0  0  0  0  0  0  0  0  0  0
   20.0563   18.1078   22.6503 C   0  0  0  0  0  0  0  0  0  0  0  0
   19.0554   18.0275   23.0966 H   0  0  0  0  0  0  0  0  0  0  0  0
   20.7463   18.3835   23.4599 H   0  0  0  0  0  0  0  0  0  0  0  0
   20.4689   16.7408   22.0695 C   0  0  0  0  0  0  0  0  0  0  0  0
   19.7767   16.4255   21.2777 H   0  0  0  0  0  0  0  0  0  0  0  0
   20.4630   15.9705   22.8516 H   0  0  0  0  0  0  0  0  0  0  0  0
   21.4800   16.7840   21.6437 H   0  0  0  0  0  0  0  0  0  0  0  0
  1  2  1  0  0  0  0
  1  3  2  0  0  0  0
  1  4  1  0  0  0  0
  4  5  1  0  0  0  0
  4  6  1  0  0  0  0
  4  7  1  0  0  0  0
  7  8  1  0  0  0  0
  7  9  1  0  0  0  0
  7 10  1  0  0  0  0
 10 11  1  0  0  0  0
 10 12  1  0  0  0  0
 10 13  1  0  0  0  0
 13 14  1  0  0  0  0
 13 15  1  0  0  0  0
 13 16  1  0  0  0  0
M  END
> <VConfSearch Rank>
251

> <Conf_Id>
0

> <Delta U+W>
0.000

> <U+W>
-56.904

> <U>
7.329

> <W>
-64.233

> <W(PB)>
-66.148

> <W(SA)>
1.915

> <Valence>
6.755

> <Coulomb>
-0.421

> <VdW>
0.995

> <VdW6>
-4.495

> <VdW12>
5.490

> <Bond>
0.106

> <Angle>
2.715

> <Pdih>
3.934

> <Idih>
0.000

> <Tether>
0.000

$$$$
VeraChem MOL file


 16 15  0  0  0  0  0  0  0  0999 V2000     
   20.8947   16.9468   20.5285 C   0  0  0  0  0  0  0  0  0  0  0  0
   22.0840   16.7164   20.6206 O   0  5  0  0  0  0  0  0  0  0  0  0
   20.0545   16.0856   20.3603 O   0  0  0  0  0  0  0  0  0  0  0  0
   20.4296   18.3937   20.6489 C   0  0  0  0  0  0  0  0  0  0  0  0
   19.5400   18.5195   20.0198 H   0  0  0  0  0  0  0  0  0  0  0  0
   21.2132   19.0395   20.2345 H   0  0  0  0  0  0  0  0  0  0  0  0
   20.1142   18.8061   22.1079 C   0  0  0  0  0  0  0  0  0  0  0  0
   19.3371   18.1429   22.5127 H   0  0  0  0  0  0  0  0  0  0  0  0
   21.0104   18.6629   22.7274 H   0  0  0  0  0  0  0  0  0  0  0  0
   19.6462   20.2733   22.2015 C   0  0  0  0  0  0  0  0  0  0  0  0
   18.7496   20.4168   21.5826 H   0  0  0  0  0  0  0  0  0  0  0  0
   20.4233   20.9369   21.7974 H   0  0  0  0  0  0  0  0  0  0  0  0
   19.3342   20.6767   23.6562 C   0  0  0  0  0  0  0  0  0  0  0  0
   20.2233   20.5726   24.2919 H   0  0  0  0  0  0  0  0  0  0  0  0
   18.5373   20.0487   24.0756 H   0  0  0  0  0  0  0  0  0  0  0  0
   19.0030   21.7222   23.7051 H   0  0  0  0  0  0  0  0  0  0  0  0
  1  2  1  0  0  0  0
  1  3  2  0  0  0  0
  1  4  1  0  0  0  0
  4  5  1  0  0  0  0
  4  6  1  0  0  0  0
  4  7  1  0  0  0  0
  7  8  1  0  0  0  0
  7  9  1  0  0  0  0
  7 10  1  0  0  0  0
 10 11  1  0  0  0  0
 10 12  1  0  0  0  0
 10 13  1  0  0  0  0
 13 14  1  0  0  0  0
 13 15  1  0  0  0  0
 13 16  1  0  0  0  0
M  END
> <VConfSearch Rank>
252

> <Conf_Id>
22

> <Delta U+W>
-1.185

> <U+W>
-58.089

> <U>
6.298

> <W>
-64.387

> <W(PB)>
-66.329

> <W(SA)>
1.942

> <Valence>
6.246

> <Coulomb>
-0.408

> <VdW>
0.460

> <VdW6>
-4.207

> <VdW12>
4.667

> <Bond>
0.072

> <Angle>
2.246

> <Pdih>
3.928

> <Idih>
0.001

> <Tether>
0.000

$$$$
VeraChem MOL file


 16 15  0  0  0  0  0  0  0  0999 V2000     
   19.4261   21.5372   22.8193 C   0  0  0  0  0  0  0  0  0  0  0  0
   19.7372   21.9262   23.9274 O   0  5  0  0  0  0  0  0  0  0  0  0
   18.5509   22.0483   22.1494 O   0  0  0  0  0  0  0  0  0  0  0  0
   20.1604   20.3298   22.2471 C   0  0  0  0  0  0  0  0  0  0  0  0
   21.1889   20.3451   22.6273 H   0  0  0  0  0  0  0  0  0  0  0  0
   20.2139   20.4553   21.1597 H   0  0  0  0  0  0  0  0  0  0  0  0
   19.4776   18.9848   22.6075 C   0  0  0  0  0  0  0  0  0  0  0  0
   19.3609   18.9291   23.6987 H   0  0  0  0  0  0  0  0  0  0  0  0
   18.4635   18.9638   22.1851 H   0  0  0  0  0  0  0  0  0  0  0  0
   20.2684   17.7455   22.1287 C   0  0  0  0  0  0  0  0  0  0  0  0
   19.7779   16.8420   22.5166 H   0  0  0  0  0  0  0  0  0  0  0  0
   21.2787   17.7602   22.5604 H   0  0  0  0  0  0  0  0  0  0  0  0
   20.3622   17.6399   20.5915 C   0  0  0  0  0  0  0  0  0  0  0  0
   20.9455   18.4668   20.1677 H   0  0  0  0  0  0  0  0  0  0  0  0
   19.3638   17.6526   20.1352 H   0  0  0  0  0  0  0  0  0  0  0  0
   20.8547   16.7029   20.3007 H   0  0  0  0  0  0  0  0  0  0  0  0
  1  2  1  0  0  0  0
  1  3  2  0  0  0  0
  1  4  1  0  0  0  0
  4  5  1  0  0  0  0
  4  6  1  0  0  0  0
  4  7  1  0  0  0  0
  7  8  1  0  0  0  0
  7  9  1  0  0  0  0
  7 10  1  0  0  0  0
 10 11  1  0  0  0  0
 10 12  1  0  0  0  0
 10 13  1  0  0  0  0
 13 14  1  0  0  0  0
 13 15  1  0  0  0  0
 13 16  1  0  0  0  0
M  END
> <VConfSearch Rank>
253

> <Conf_Id>
36

> <Delta U+W>
-0.427

> <U+W>
-57.331

> <U>
7.263

> <W>
-64.594

> <W(PB)>
-66.513

> <W(SA)>
1.920

> <Valence>
6.734

> <Coulomb>
-0.068

> <VdW>
0.598

> <VdW6>
-4.819

> <VdW12>
5.417

> <Bond>
0.107

> <Angle>
2.469

> <Pdih>
4.157

> <Idih>
0.001

> <Tether>
0.000

$$$$
VeraChem MOL file


 16 15  0  0  0  0  0  0  0  0999 V2000     
   18.4895   17.1013   21.3882 C   0  0  0  0  0  0  0  0  0  0  0  0
   19.1698   16.1424   21.0824 O   0  5  0  0  0  0  0  0  0  0  0  0
   17.3147   17.2108   21.0987 O   0  0  0  0  0  0  0  0  0  0  0  0
   19.1505   18.2382   22.1596 C   0  0  0  0  0  0  0  0  0  0  0  0
   19.9204   17.8009   22.8054 H   0  0  0  0  0  0  0  0  0  0  0  0
   18.3953   18.6901   22.8138 H   0  0  0  0  0  0  0  0  0  0  0  0
   19.7665   19.3164   21.2306 C   0  0  0  0  0  0  0  0  0  0  0  0
   20.5510   18.8611   20.6104 H   0  0  0  0  0  0  0  0  0  0  0  0
   18.9904   19.6717   20.5386 H   0  0  0  0  0  0  0  0  0  0  0  0
   20.3438   20.5302   21.9949 C   0  0  0  0  0  0  0  0  0  0  0  0
   19.5565   20.9927   22.6061 H   0  0  0  0  0  0  0  0  0  0  0  0
   20.6577   21.2899   21.2657 H   0  0  0  0  0  0  0  0  0  0  0  0
   21.5499   20.1693   22.8882 C   0  0  0  0  0  0  0  0  0  0  0  0
   21.2573   19.4972   23.7045 H   0  0  0  0  0  0  0  0  0  0  0  0
   21.9770   21.0741   23.3399 H   0  0  0  0  0  0  0  0  0  0  0  0
   22.3391   19.6788   22.3035 H   0  0  0  0  0  0  0  0  0  0  0  0
  1  2  1  0  0  0  0
  1  3  2  0  0  0  0
  1  4  1  0  0  0  0
  4  5  1  0  0  0  0
  4  6  1  0  0  0  0
  4  7  1  0  0  0  0
  7  8  1  0  0  0  0
  7  9  1  0  0  0  0
  7 10  1  0  0  0  0
 10 11  1  0  0  0  0
 10 12  1  0  0  0  0
 10 13  1  0  0  0  0
 13 14  1  0  0  0  0
 13 15  1  0  0  0  0
 13 16  1  0  0  0  0
M  END
> <VConfSearch Rank>
254

> <Conf_Id>
17

> <Delta U+W>
-0.432

> <U+W>
-57.336

> <U>
7.263

> <W>
-64.599

> <W(PB)>
-66.503

> <W(SA)>
1.904

> <Valence>
6.734

> <Coulomb>
-0.068

> <VdW>
0.598

> <VdW6>
-4.819

> <VdW12>
5.417

> <Bond>
0.107

> <Angle>
2.469

> <Pdih>
4.157

> <Idih>
0.001

> <Tether>
0.000

$$$$
VeraChem MOL file


 16 15  0  0  0  0  0  0  0  0999 V2000     
   22.4424   19.4084   21.6294 C   0  0  0  0  0  0  0  0  0  0  0  0
   22.6799   19.6476   20.4620 O   0  5  0  0  0  0  0  0  0  0  0  0
   22.9043   20.0486   22.5530 O   0  0  0  0  0  0  0  0  0  0  0  0
   21.5337   18.2251   21.9512 C   0  0  0  0  0  0  0  0  0  0  0  0
   21.6963   17.9322   22.9957 H   0  0  0  0  0  0  0  0  0  0  0  0
   21.8607   17.3821   21.3311 H   0  0  0  0  0  0  0  0  0  0  0  0
   20.0279   18.4979   21.7005 C   0  0  0  0  0  0  0  0  0  0  0  0
   19.8842   18.8176   20.6589 H   0  0  0  0  0  0  0  0  0  0  0  0
   19.4704   17.5594   21.8229 H   0  0  0  0  0  0  0  0  0  0  0  0
   19.4495   19.5617   22.6586 C   0  0  0  0  0  0  0  0  0  0  0  0
   19.9865   20.5119   22.5302 H   0  0  0  0  0  0  0  0  0  0  0  0
   19.6049   19.2465   23.6997 H   0  0  0  0  0  0  0  0  0  0  0  0
   17.9451   19.7890   22.4106 C   0  0  0  0  0  0  0  0  0  0  0  0
   17.7643   20.1350   21.3844 H   0  0  0  0  0  0  0  0  0  0  0  0
   17.5502   20.5479   23.0986 H   0  0  0  0  0  0  0  0  0  0  0  0
   17.3767   18.8625   22.5655 H   0  0  0  0  0  0  0  0  0  0  0  0
  1  2  1  0  0  0  0
  1  3  2  0  0  0  0
  1  4  1  0  0  0  0
  4  5  1  0  0  0  0
  4  6  1  0  0  0  0
  4  7  1  0  0  0  0
  7  8  1  0  0  0  0
  7  9  1  0  0  0  0
  7 10  1  0  0  0  0
 10 11  1  0  0  0  0
 10 12  1  0  0  0  0
 10 13  1  0  0  0  0
 13 14  1  0  0  0  0
 13 15  1  0  0  0  0
 13 16  1  0  0  0  0
M  END
> <VConfSearch Rank>
255

> <Conf_Id>
19

> <Delta U+W>
0.048

> <U+W>
-56.856

> <U>
8.276

> <W>
-65.132

> <W(PB)>
-67.031

> <W(SA)>
1.899

> <Valence>
6.513

> <Coulomb>
1.428

> <VdW>
0.335

> <VdW6>
-5.021

> <VdW12>
5.356

> <Bond>
0.092

> <Angle>
2.417

> <Pdih>
4.003

> <Idih>
0.001

> <Tether>
0.000

$$$$
VeraChem MOL file


 16 15  0  0  0  0  0  0  0  0999 V2000     
   21.5369   18.6221   20.5031 C   0  0  0  0  0  0  0  0  0  0  0  0
   22.4640   19.4074   20.4877 O   0  5  0  0  0  0  0  0  0  0  0  0
   20.9547   18.2515   19.5031 O   0  0  0  0  0  0  0  0  0  0  0  0
   21.0970   18.0541   21.8497 C   0  0  0  0  0  0  0  0  0  0  0  0
   22.0026   17.7595   22.3932 H   0  0  0  0  0  0  0  0  0  0  0  0
   20.5214   17.1374   21.6723 H   0  0  0  0  0  0  0  0  0  0  0  0
   20.2738   19.0437   22.7146 C   0  0  0  0  0  0  0  0  0  0  0  0
   20.1222   18.6056   23.7105 H   0  0  0  0  0  0  0  0  0  0  0  0
   20.8509   19.9675   22.8599 H   0  0  0  0  0  0  0  0  0  0  0  0
   18.9010   19.3772   22.0913 C   0  0  0  0  0  0  0  0  0  0  0  0
   18.3301   18.4514   21.9352 H   0  0  0  0  0  0  0  0  0  0  0  0
   19.0410   19.8353   21.1022 H   0  0  0  0  0  0  0  0  0  0  0  0
   18.0903   20.3351   22.9866 C   0  0  0  0  0  0  0  0  0  0  0  0
   17.9047   19.8891   23.9726 H   0  0  0  0  0  0  0  0  0  0  0  0
   17.1187   20.5625   22.5291 H   0  0  0  0  0  0  0  0  0  0  0  0
   18.6257   21.2823   23.1337 H   0  0  0  0  0  0  0  0  0  0  0  0
  1  2  1  0  0  0  0
  1  3  2  0  0  0  0
  1  4  1  0  0  0  0
  4  5  1  0  0  0  0
  4  6  1  0  0  0  0
  4  7  1  0  0  0  0
  7  8  1  0  0  0  0
  7  9  1  0  0  0  0
  7 10  1  0  0  0  0
 10 11  1  0  0  0  0
 10 12  1  0  0  0  0
 10 13  1  0  0  0  0
 13 14  1  0  0  0  0
 13 15  1  0  0  0  0
 13 16  1  0  0  0  0
M  END
> <VConfSearch Rank>
256

> <Conf_Id>
20

> <Delta U+W>
-0.010

> <U+W>
-56.914

> <U>
8.277

> <W>
-65.191

> <W(PB)>
-67.081

> <W(SA)>
1.890

> <Valence>
6.513

> <Coulomb>
1.429

> <VdW>
0.335

> <VdW6>
-5.021

> <VdW12>
5.356

> <Bond>
0.092

> <Angle>
2.417

> <Pdih>
4.002

> <Idih>
0.001

> <Tether>
0.000

$$$$
VeraChem MOL file


 16 15  0  0  0  0  0  0  0  0999 V2000     
   19.9846   19.9405   20.1735 C   0  0  0  0  0  0  0  0  0  0  0  0
   20.9200   19.7201   19.4297 O   0  5  0  0  0  0  0  0  0  0  0  0
   19.5034   21.0443   20.3362 O   0  0  0  0  0  0  0  0  0  0  0  0
   19.3614   18.7610   20.9151 C   0  0  0  0  0  0  0  0  0  0  0  0
   19.1590   17.9800   20.1729 H   0  0  0  0  0  0  0  0  0  0  0  0
   18.3881   19.0701   21.3131 H   0  0  0  0  0  0  0  0  0  0  0  0
   20.2538   18.1763   22.0440 C   0  0  0  0  0  0  0  0  0  0  0  0
   19.7647   17.2880   22.4660 H   0  0  0  0  0  0  0  0  0  0  0  0
   21.1977   17.8277   21.6026 H   0  0  0  0  0  0  0  0  0  0  0  0
   20.5731   19.1716   23.1847 C   0  0  0  0  0  0  0  0  0  0  0  0
   21.0944   20.0503   22.7800 H   0  0  0  0  0  0  0  0  0  0  0  0
   21.2717   18.6931   23.8848 H   0  0  0  0  0  0  0  0  0  0  0  0
   19.3208   19.6266   23.9639 C   0  0  0  0  0  0  0  0  0  0  0  0
   18.6499   20.2186   23.3284 H   0  0  0  0  0  0  0  0  0  0  0  0
   19.6073   20.2536   24.8181 H   0  0  0  0  0  0  0  0  0  0  0  0
   18.7616   18.7641   24.3493 H   0  0  0  0  0  0  0  0  0  0  0  0
  1  2  1  0  0  0  0
  1  3  2  0  0  0  0
  1  4  1  0  0  0  0
  4  5  1  0  0  0  0
  4  6  1  0  0  0  0
  4  7  1  0  0  0  0
  7  8  1  0  0  0  0
  7  9  1  0  0  0  0
  7 10  1  0  0  0  0
 10 11  1  0  0  0  0
 10 12  1  0  0  0  0
 10 13  1  0  0  0  0
 13 14  1  0  0  0  0
 13 15  1  0  0  0  0
 13 16  1  0  0  0  0
M  END
> <VConfSearch Rank>
257

> <Conf_Id>
37

> <Delta U+W>
1.063

> <U+W>
-55.841

> <U>
9.719

> <W>
-65.560

> <W(PB)>
-67.414

> <W(SA)>
1.854

> <Valence>
7.002

> <Coulomb>
2.402

> <VdW>
0.314

> <VdW6>
-5.861

> <VdW12>
6.175

> <Bond>
0.134

> <Angle>
2.733

> <Pdih>
4.133

> <Idih>
0.002

> <Tether>
0.000

$$$$
VeraChem MOL file


 16 15  0  0  0  0  0  0  0  0999 V2000     
   21.8602   17.9177   21.7666 C   0  0  0  0  0  0  0  0  0  0  0  0
   23.0011   18.3107   21.9100 O   0  5  0  0  0  0  0  0  0  0  0  0
   21.4679   16.8389   22.1649 O   0  0  0  0  0  0  0  0  0  0  0  0
   20.8792   18.8141   21.0157 C   0  0  0  0  0  0  0  0  0  0  0  0
   20.0021   18.2193   20.7362 H   0  0  0  0  0  0  0  0  0  0  0  0
   21.3630   19.1125   20.0783 H   0  0  0  0  0  0  0  0  0  0  0  0
   20.4516   20.0853   21.7992 C   0  0  0  0  0  0  0  0  0  0  0  0
   21.3471   20.6841   22.0157 H   0  0  0  0  0  0  0  0  0  0  0  0
   19.8137   20.7069   21.1564 H   0  0  0  0  0  0  0  0  0  0  0  0
   19.7101   19.7973   23.1262 C   0  0  0  0  0  0  0  0  0  0  0  0
   19.5259   20.7503   23.6411 H   0  0  0  0  0  0  0  0  0  0  0  0
   20.3520   19.2048   23.7929 H   0  0  0  0  0  0  0  0  0  0  0  0
   18.3628   19.0713   22.9256 C   0  0  0  0  0  0  0  0  0  0  0  0
   17.7153   19.6260   22.2341 H   0  0  0  0  0  0  0  0  0  0  0  0
   17.8329   18.9748   23.8820 H   0  0  0  0  0  0  0  0  0  0  0  0
   18.5113   18.0602   22.5254 H   0  0  0  0  0  0  0  0  0  0  0  0
  1  2  1  0  0  0  0
  1  3  2  0  0  0  0
  1  4  1  0  0  0  0
  4  5  1  0  0  0  0
  4  6  1  0  0  0  0
  4  7  1  0  0  0  0
  7  8  1  0  0  0  0
  7  9  1  0  0  0  0
  7 10  1  0  0  0  0
 10 11  1  0  0  0  0
 10 12  1  0  0  0  0
 10 13  1  0  0  0  0
 13 14  1  0  0  0  0
 13 15  1  0  0  0  0
 13 16  1  0  0  0  0
M  END
> <VConfSearch Rank>
258

> <Conf_Id>
39

> <Delta U+W>
1.129

> <U+W>
-55.775

> <U>
9.718

> <W>
-65.493

> <W(PB)>
-67.361

> <W(SA)>
1.869

> <Valence>
7.002

> <Coulomb>
2.402

> <VdW>
0.314

> <VdW6>
-5.861

> <VdW12>
6.175

> <Bond>
0.134

> <Angle>
2.734

> <Pdih>
4.133

> <Idih>
0.002

> <Tether>
0.000

$$$$
VeraChem MOL file


 16 15  0  0  0  0  0  0  0  0999 V2000     
   19.2868   17.5791   23.4327 C   0  0  0  0  0  0  0  0  0  0  0  0
   19.5217   17.8059   24.6033 O   0  5  0  0  0  0  0  0  0  0  0  0
   19.5609   16.5282   22.8872 O   0  0  0  0  0  0  0  0  0  0  0  0
   18.5277   18.6355   22.6319 C   0  0  0  0  0  0  0  0  0  0  0  0
   18.2906   19.4802   23.2901 H   0  0  0  0  0  0  0  0  0  0  0  0
   17.5712   18.1806   22.3494 H   0  0  0  0  0  0  0  0  0  0  0  0
   19.2456   19.1391   21.3481 C   0  0  0  0  0  0  0  0  0  0  0  0
   19.6617   18.2869   20.7930 H   0  0  0  0  0  0  0  0  0  0  0  0
   18.4890   19.5882   20.6907 H   0  0  0  0  0  0  0  0  0  0  0  0
   20.3452   20.1998   21.5956 C   0  0  0  0  0  0  0  0  0  0  0  0
   19.9258   21.0491   22.1525 H   0  0  0  0  0  0  0  0  0  0  0  0
   20.6688   20.5978   20.6239 H   0  0  0  0  0  0  0  0  0  0  0  0
   21.5833   19.6538   22.3368 C   0  0  0  0  0  0  0  0  0  0  0  0
   21.3450   19.3950   23.3757 H   0  0  0  0  0  0  0  0  0  0  0  0
   22.3807   20.4077   22.3594 H   0  0  0  0  0  0  0  0  0  0  0  0
   21.9772   18.7578   21.8394 H   0  0  0  0  0  0  0  0  0  0  0  0
  1  2  1  0  0  0  0
  1  3  2  0  0  0  0
  1  4  1  0  0  0  0
  4  5  1  0  0  0  0
  4  6  1  0  0  0  0
  4  7  1  0  0  0  0
  7  8  1  0  0  0  0
  7  9  1  0  0  0  0
  7 10  1  0  0  0  0
 10 11  1  0  0  0  0
 10 12  1  0  0  0  0
 10 13  1  0  0  0  0
 13 14  1  0  0  0  0
 13 15  1  0  0  0  0
 13 16  1  0  0  0  0
M  END
> <VConfSearch Rank>
259

> <Conf_Id>
47

> <Delta U+W>
2.301

> <U+W>
-54.603

> <U>
11.258

> <W>
-65.861

> <W(PB)>
-67.702

> <W(SA)>
1.841

> <Valence>
8.169

> <Coulomb>
2.735

> <VdW>
0.355

> <VdW6>
-6.245

> <VdW12>
6.600

> <Bond>
0.149

> <Angle>
3.168

> <Pdih>
4.840

> <Idih>
0.011

> <Tether>
0.000

$$$$
VeraChem MOL file


 16 15  0  0  0  0  0  0  0  0999 V2000     
   19.2782   20.9463   21.7528 C   0  0  0  0  0  0  0  0  0  0  0  0
   19.3857   21.0674   20.5482 O   0  5  0  0  0  0  0  0  0  0  0  0
   19.6756   21.7766   22.5463 O   0  0  0  0  0  0  0  0  0  0  0  0
   18.5255   19.7327   22.2953 C   0  0  0  0  0  0  0  0  0  0  0  0
   17.5039   19.8027   21.9039 H   0  0  0  0  0  0  0  0  0  0  0  0
   18.4497   19.8181   23.3861 H   0  0  0  0  0  0  0  0  0  0  0  0
   19.1223   18.3514   21.9041 C   0  0  0  0  0  0  0  0  0  0  0  0
   18.3343   17.5956   22.0240 H   0  0  0  0  0  0  0  0  0  0  0  0
   19.3870   18.3463   20.8376 H   0  0  0  0  0  0  0  0  0  0  0  0
   20.3362   17.9066   22.7551 C   0  0  0  0  0  0  0  0  0  0  0  0
   20.5722   16.8631   22.5046 H   0  0  0  0  0  0  0  0  0  0  0  0
   20.0679   17.9148   23.8206 H   0  0  0  0  0  0  0  0  0  0  0  0
   21.6012   18.7610   22.5317 C   0  0  0  0  0  0  0  0  0  0  0  0
   22.4608   18.3171   23.0503 H   0  0  0  0  0  0  0  0  0  0  0  0
   21.4704   19.7779   22.9214 H   0  0  0  0  0  0  0  0  0  0  0  0
   21.8472   18.8294   21.4640 H   0  0  0  0  0  0  0  0  0  0  0  0
  1  2  1  0  0  0  0
  1  3  2  0  0  0  0
  1  4  1  0  0  0  0
  4  5  1  0  0  0  0
  4  6  1  0  0  0  0
  4  7  1  0  0  0  0
  7  8  1  0  0  0  0
  7  9  1  0  0  0  0
  7 10  1  0  0  0  0
 10 11  1  0  0  0  0
 10 12  1  0  0  0  0
 10 13  1  0  0  0  0
 13 14  1  0  0  0  0
 13 15  1  0  0  0  0
 13 16  1  0  0  0  0
M  END
> <VConfSearch Rank>
260

> <Conf_Id>
45

> <Delta U+W>
2.303

> <U+W>
-54.601

> <U>
11.258

> <W>
-65.860

> <W(PB)>
-67.709

> <W(SA)>
1.849

> <Valence>
8.169

> <Coulomb>
2.735

> <VdW>
0.355

> <VdW6>
-6.245

> <VdW12>
6.600

> <Bond>
0.149

> <Angle>
3.168

> <Pdih>
4.840

> <Idih>
0.011

> <Tether>
0.000

$$$$
VeraChem MOL file


 16 15  0  0  0  0  0  0  0  0999 V2000     
   21.4224   19.0504   19.5663 C   0  0  0  0  0  0  0  0  0  0  0  0
   20.5548   19.5988   18.9150 O   0  5  0  0  0  0  0  0  0  0  0  0
   22.4795   18.6888   19.0897 O   0  0  0  0  0  0  0  0  0  0  0  0
   21.2030   18.7891   21.0575 C   0  0  0  0  0  0  0  0  0  0  0  0
   22.0199   19.2802   21.5994 H   0  0  0  0  0  0  0  0  0  0  0  0
   21.3131   17.7104   21.2204 H   0  0  0  0  0  0  0  0  0  0  0  0
   19.8386   19.2672   21.6215 C   0  0  0  0  0  0  0  0  0  0  0  0
   19.7318   20.3474   21.4505 H   0  0  0  0  0  0  0  0  0  0  0  0
   19.0242   18.7760   21.0711 H   0  0  0  0  0  0  0  0  0  0  0  0
   19.7031   18.9644   23.1285 C   0  0  0  0  0  0  0  0  0  0  0  0
   20.5160   19.4565   23.6803 H   0  0  0  0  0  0  0  0  0  0  0  0
   19.8080   17.8841   23.3006 H   0  0  0  0  0  0  0  0  0  0  0  0
   18.3462   19.4415   23.6827 C   0  0  0  0  0  0  0  0  0  0  0  0
   18.2277   20.5252   23.5519 H   0  0  0  0  0  0  0  0  0  0  0  0
   18.2662   19.2187   24.7547 H   0  0  0  0  0  0  0  0  0  0  0  0
   17.5145   18.9412   23.1694 H   0  0  0  0  0  0  0  0  0  0  0  0
  1  2  1  0  0  0  0
  1  3  2  0  0  0  0
  1  4  1  0  0  0  0
  4  5  1  0  0  0  0
  4  6  1  0  0  0  0
  4  7  1  0  0  0  0
  7  8  1  0  0  0  0
  7  9  1  0  0  0  0
  7 10  1  0  0  0  0
 10 11  1  0  0  0  0
 10 12  1  0  0  0  0
 10 13  1  0  0  0  0
 13 14  1  0  0  0  0
 13 15  1  0  0  0  0
 13 16  1  0  0  0  0
M  END
> <VConfSearch Rank>
261

> <Conf_Id>
0

> <Delta U+W>
0.000

> <U+W>
-56.904

> <U>
7.329

> <W>
-64.233

> <W(PB)>
-66.148

> <W(SA)>
1.915

> <Valence>
6.755

> <Coulomb>
-0.421

> <VdW>
0.995

> <VdW6>
-4.495

> <VdW12>
5.490

> <Bond>
0.106

> <Angle>
2.715

> <Pdih>
3.934

> <Idih>
0.000

> <Tether>
0.000

$$$$
VeraChem MOL file


 16 15  0  0  0  0  0  0  0  0999 V2000     
   20.1466   16.3928   21.9997 C   0  0  0  0  0  0  0  0  0  0  0  0
   20.5588   15.9218   23.0409 O   0  5  0  0  0  0  0  0  0  0  0  0
   19.3388   15.8357   21.2835 O   0  0  0  0  0  0  0  0  0  0  0  0
   20.6573   17.7661   21.5780 C   0  0  0  0  0  0  0  0  0  0  0  0
   20.6847   17.7979   20.4820 H   0  0  0  0  0  0  0  0  0  0  0  0
   21.6905   17.8689   21.9310 H   0  0  0  0  0  0  0  0  0  0  0  0
   19.7886   18.9259   22.1241 C   0  0  0  0  0  0  0  0  0  0  0  0
   18.7549   18.8021   21.7723 H   0  0  0  0  0  0  0  0  0  0  0  0
   19.7607   18.8731   23.2213 H   0  0  0  0  0  0  0  0  0  0  0  0
   20.3267   20.3031   21.6832 C   0  0  0  0  0  0  0  0  0  0  0  0
   20.3541   20.3566   20.5859 H   0  0  0  0  0  0  0  0  0  0  0  0
   21.3601   20.4275   22.0353 H   0  0  0  0  0  0  0  0  0  0  0  0
   19.4574   21.4525   22.2302 C   0  0  0  0  0  0  0  0  0  0  0  0
   19.4377   21.4419   23.3279 H   0  0  0  0  0  0  0  0  0  0  0  0
   18.4242   21.3704   21.8679 H   0  0  0  0  0  0  0  0  0  0  0  0
   19.8535   22.4243   21.9077 H   0  0  0  0  0  0  0  0  0  0  0  0
  1  2  1  0  0  0  0
  1  3  2  0  0  0  0
  1  4  1  0  0  0  0
  4  5  1  0  0  0  0
  4  6  1  0  0  0  0
  4  7  1  0  0  0  0
  7  8  1  0  0  0  0
  7  9  1  0  0  0  0
  7 10  1  0  0  0  0
 10 11  1  0  0  0  0
 10 12  1  0  0  0  0
 10 13  1  0  0  0  0
 13 14  1  0  0  0  0
 13 15  1  0  0  0  0
 13 16  1  0  0  0  0
M  END
> <VConfSearch Rank>
262

> <Conf_Id>
22

> <Delta U+W>
-1.185

> <U+W>
-58.089

> <U>
6.298

> <W>
-64.387

> <W(PB)>
-66.329

> <W(SA)>
1.942

> <Valence>
6.246

> <Coulomb>
-0.408

> <VdW>
0.460

> <VdW6>
-4.207

> <VdW12>
4.667

> <Bond>
0.072

> <Angle>
2.246

> <Pdih>
3.928

> <Idih>
0.001

> <Tether>
0.000

$$$$
VeraChem MOL file


 16 15  0  0  0  0  0  0  0  0999 V2000     
   22.4037   18.4229   21.5127 C   0  0  0  0  0  0  0  0  0  0  0  0
   22.9182   17.4688   22.0613 O   0  5  0  0  0  0  0  0  0  0  0  0
   23.0366   19.3240   20.9993 O   0  0  0  0  0  0  0  0  0  0  0  0
   20.8815   18.5035   21.4848 C   0  0  0  0  0  0  0  0  0  0  0  0
   20.4871   17.4813   21.4388 H   0  0  0  0  0  0  0  0  0  0  0  0
   20.5902   19.0065   20.5556 H   0  0  0  0  0  0  0  0  0  0  0  0
   20.2963   19.2471   22.7135 C   0  0  0  0  0  0  0  0  0  0  0  0
   20.6767   18.7715   23.6282 H   0  0  0  0  0  0  0  0  0  0  0  0
   20.6647   20.2822   22.7252 H   0  0  0  0  0  0  0  0  0  0  0  0
   18.7508   19.2423   22.7570 C   0  0  0  0  0  0  0  0  0  0  0  0
   18.4229   19.6889   23.7059 H   0  0  0  0  0  0  0  0  0  0  0  0
   18.3825   18.2071   22.7572 H   0  0  0  0  0  0  0  0  0  0  0  0
   18.1067   20.0223   21.5910 C   0  0  0  0  0  0  0  0  0  0  0  0
   18.3143   19.5440   20.6256 H   0  0  0  0  0  0  0  0  0  0  0  0
   18.4821   21.0532   21.5530 H   0  0  0  0  0  0  0  0  0  0  0  0
   17.0166   20.0640   21.7133 H   0  0  0  0  0  0  0  0  0  0  0  0
  1  2  1  0  0  0  0
  1  3  2  0  0  0  0
  1  4  1  0  0  0  0
  4  5  1  0  0  0  0
  4  6  1  0  0  0  0
  4  7  1  0  0  0  0
  7  8  1  0  0  0  0
  7  9  1  0  0  0  0
  7 10  1  0  0  0  0
 10 11  1  0  0  0  0
 10 12  1  0  0  0  0
 10 13  1  0  0  0  0
 13 14  1  0  0  0  0
 13 15  1  0  0  0  0
 13 16  1  0  0  0  0
M  END
> <VConfSearch Rank>
263

> <Conf_Id>
36

> <Delta U+W>
-0.427

> <U+W>
-57.331

> <U>
7.263

> <W>
-64.594

> <W(PB)>
-66.513

> <W(SA)>
1.920

> <Valence>
6.734

> <Coulomb>
-0.068

> <VdW>
0.598

> <VdW6>
-4.819

> <VdW12>
5.417

> <Bond>
0.107

> <Angle>
2.469

> <Pdih>
4.157

> <Idih>
0.001

> <Tether>
0.000

$$$$
VeraChem MOL file


 16 15  0  0  0  0  0  0  0  0999 V2000     
   21.6649   19.8939   20.1890 C   0  0  0  0  0  0  0  0  0  0  0  0
   21.7170   19.0969   19.2736 O   0  5  0  0  0  0  0  0  0  0  0  0
   22.5327   20.7133   20.4162 O   0  0  0  0  0  0  0  0  0  0  0  0
   20.4547   19.8507   21.1153 C   0  0  0  0  0  0  0  0  0  0  0  0
   19.5880   19.5434   20.5190 H   0  0  0  0  0  0  0  0  0  0  0  0
   20.2606   20.8701   21.4698 H   0  0  0  0  0  0  0  0  0  0  0  0
   20.6537   18.8948   22.3202 C   0  0  0  0  0  0  0  0  0  0  0  0
   20.8046   17.8699   21.9540 H   0  0  0  0  0  0  0  0  0  0  0  0
   21.5769   19.1762   22.8455 H   0  0  0  0  0  0  0  0  0  0  0  0
   19.4811   18.9220   23.3275 C   0  0  0  0  0  0  0  0  0  0  0  0
   19.3375   19.9448   23.7027 H   0  0  0  0  0  0  0  0  0  0  0  0
   19.7485   18.3066   24.1975 H   0  0  0  0  0  0  0  0  0  0  0  0
   18.1566   18.3961   22.7341 C   0  0  0  0  0  0  0  0  0  0  0  0
   17.7900   19.0483   21.9315 H   0  0  0  0  0  0  0  0  0  0  0  0
   17.3796   18.3535   23.5083 H   0  0  0  0  0  0  0  0  0  0  0  0
   18.2830   17.3848   22.3262 H   0  0  0  0  0  0  0  0  0  0  0  0
  1  2  1  0  0  0  0
  1  3  2  0  0  0  0
  1  4  1  0  0  0  0
  4  5  1  0  0  0  0
  4  6  1  0  0  0  0
  4  7  1  0  0  0  0
  7  8  1  0  0  0  0
  7  9  1  0  0  0  0
  7 10  1  0  0  0  0
 10 11  1  0  0  0  0
 10 12  1  0  0  0  0
 10 13  1  0  0  0  0
 13 14  1  0  0  0  0
 13 15  1  0  0  0  0
 13 16  1  0  0  0  0
M  END
> <VConfSearch Rank>
264

> <Conf_Id>
17

> <Delta U+W>
-0.432

> <U+W>
-57.336

> <U>
7.263

> <W>
-64.599

> <W(PB)>
-66.503

> <W(SA)>
1.904

> <Valence>
6.734

> <Coulomb>
-0.068

> <VdW>
0.598

> <VdW6>
-4.819

> <VdW12>
5.417

> <Bond>
0.107

> <Angle>
2.469

> <Pdih>
4.157

> <Idih>
0.001

> <Tether>
0.000

$$$$
VeraChem MOL file


 16 15  0  0  0  0  0  0  0  0999 V2000     
   20.1380   21.4706   21.6969 C   0  0  0  0  0  0  0  0  0  0  0  0
   20.7274   22.1069   22.5478 O   0  5  0  0  0  0  0  0  0  0  0  0
   20.3175   21.6177   20.5042 O   0  0  0  0  0  0  0  0  0  0  0  0
   19.0996   20.4490   22.1523 C   0  0  0  0  0  0  0  0  0  0  0  0
   18.4329   20.2274   21.3101 H   0  0  0  0  0  0  0  0  0  0  0  0
   18.4859   20.9270   22.9251 H   0  0  0  0  0  0  0  0  0  0  0  0
   19.7073   19.1369   22.7130 C   0  0  0  0  0  0  0  0  0  0  0  0
   20.3942   19.3765   23.5365 H   0  0  0  0  0  0  0  0  0  0  0  0
   18.9015   18.5254   23.1411 H   0  0  0  0  0  0  0  0  0  0  0  0
   20.4492   18.3179   21.6346 C   0  0  0  0  0  0  0  0  0  0  0  0
   21.2714   18.9129   21.2131 H   0  0  0  0  0  0  0  0  0  0  0  0
   19.7645   18.0897   20.8061 H   0  0  0  0  0  0  0  0  0  0  0  0
   21.0138   17.0040   22.2102 C   0  0  0  0  0  0  0  0  0  0  0  0
   21.7261   17.2049   23.0212 H   0  0  0  0  0  0  0  0  0  0  0  0
   21.5383   16.4348   21.4317 H   0  0  0  0  0  0  0  0  0  0  0  0
   20.2095   16.3717   22.6085 H   0  0  0  0  0  0  0  0  0  0  0  0
  1  2  1  0  0  0  0
  1  3  2  0  0  0  0
  1  4  1  0  0  0  0
  4  5  1  0  0  0  0
  4  6  1  0  0  0  0
  4  7  1  0  0  0  0
  7  8  1  0  0  0  0
  7  9  1  0  0  0  0
  7 10  1  0  0  0  0
 10 11  1  0  0  0  0
 10 12  1  0  0  0  0
 10 13  1  0  0  0  0
 13 14  1  0  0  0  0
 13 15  1  0  0  0  0
 13 16  1  0  0  0  0
M  END
> <VConfSearch Rank>
265

> <Conf_Id>
19

> <Delta U+W>
0.048

> <U+W>
-56.856

> <U>
8.276

> <W>
-65.132

> <W(PB)>
-67.031

> <W(SA)>
1.899

> <Valence>
6.513

> <Coulomb>
1.428

> <VdW>
0.335

> <VdW6>
-5.021

> <VdW12>
5.356

> <Bond>
0.092

> <Angle>
2.417

> <Pdih>
4.003

> <Idih>
0.001

> <Tether>
0.000

$$$$
VeraChem MOL file


 16 15  0  0  0  0  0  0  0  0999 V2000     
   19.1854   19.4259   19.8375 C   0  0  0  0  0  0  0  0  0  0  0  0
   18.0576   19.8618   19.7177 O   0  5  0  0  0  0  0  0  0  0  0  0
   19.5955   18.4517   19.2384 O   0  0  0  0  0  0  0  0  0  0  0  0
   20.1440   20.1569   20.7737 C   0  0  0  0  0  0  0  0  0  0  0  0
   20.0485   21.2298   20.5687 H   0  0  0  0  0  0  0  0  0  0  0  0
   21.1715   19.8746   20.5136 H   0  0  0  0  0  0  0  0  0  0  0  0
   19.8815   19.8928   22.2792 C   0  0  0  0  0  0  0  0  0  0  0  0
   20.5193   20.5601   22.8745 H   0  0  0  0  0  0  0  0  0  0  0  0
   18.8410   20.1531   22.5186 H   0  0  0  0  0  0  0  0  0  0  0  0
   20.1604   18.4288   22.6828 C   0  0  0  0  0  0  0  0  0  0  0  0
   21.1974   18.1662   22.4315 H   0  0  0  0  0  0  0  0  0  0  0  0
   19.5127   17.7526   22.1076 H   0  0  0  0  0  0  0  0  0  0  0  0
   19.9244   18.2019   24.1892 C   0  0  0  0  0  0  0  0  0  0  0  0
   20.5840   18.8407   24.7910 H   0  0  0  0  0  0  0  0  0  0  0  0
   20.1261   17.1570   24.4590 H   0  0  0  0  0  0  0  0  0  0  0  0
   18.8852   18.4279   24.4620 H   0  0  0  0  0  0  0  0  0  0  0  0
  1  2  1  0  0  0  0
  1  3  2  0  0  0  0
  1  4  1  0  0  0  0
  4  5  1  0  0  0  0
  4  6  1  0  0  0  0
  4  7  1  0  0  0  0
  7  8  1  0  0  0  0
  7  9  1  0  0  0  0
  7 10  1  0  0  0  0
 10 11  1  0  0  0  0
 10 12  1  0  0  0  0
 10 13  1  0  0  0  0
 13 14  1  0  0  0  0
 13 15  1  0  0  0  0
 13 16  1  0  0  0  0
M  END
> <VConfSearch Rank>
266

> <Conf_Id>
20

> <Delta U+W>
-0.010

> <U+W>
-56.914

> <U>
8.277

> <W>
-65.191

> <W(PB)>
-67.081

> <W(SA)>
1.890

> <Valence>
6.513

> <Coulomb>
1.429

> <VdW>
0.335

> <VdW6>
-5.021

> <VdW12>
5.356

> <Bond>
0.092

> <Angle>
2.417

> <Pdih>
4.002

> <Idih>
0.001

> <Tether>
0.000

$$$$
VeraChem MOL file


 16 15  0  0  0  0  0  0  0  0999 V2000     
   20.7167   17.2037   21.9357 C   0  0  0  0  0  0  0  0  0  0  0  0
   21.4169   16.8933   20.9922 O   0  5  0  0  0  0  0  0  0  0  0  0
   19.8067   16.5137   22.3506 O   0  0  0  0  0  0  0  0  0  0  0  0
   21.0206   18.5140   22.6572 C   0  0  0  0  0  0  0  0  0  0  0  0
   22.0931   18.5193   22.8844 H   0  0  0  0  0  0  0  0  0  0  0  0
   20.4994   18.5139   23.6214 H   0  0  0  0  0  0  0  0  0  0  0  0
   20.6631   19.7867   21.8418 C   0  0  0  0  0  0  0  0  0  0  0  0
   20.9874   20.6751   22.4002 H   0  0  0  0  0  0  0  0  0  0  0  0
   21.2422   19.7816   20.9080 H   0  0  0  0  0  0  0  0  0  0  0  0
   19.1608   19.9225   21.4974 C   0  0  0  0  0  0  0  0  0  0  0  0
   18.8318   19.0553   20.9080 H   0  0  0  0  0  0  0  0  0  0  0  0
   19.0247   20.8029   20.8543 H   0  0  0  0  0  0  0  0  0  0  0  0
   18.2618   20.0722   22.7432 C   0  0  0  0  0  0  0  0  0  0  0  0
   18.2724   19.1601   23.3535 H   0  0  0  0  0  0  0  0  0  0  0  0
   17.2221   20.2599   22.4456 H   0  0  0  0  0  0  0  0  0  0  0  0
   18.5919   20.9116   23.3688 H   0  0  0  0  0  0  0  0  0  0  0  0
  1  2  1  0  0  0  0
  1  3  2  0  0  0  0
  1  4  1  0  0  0  0
  4  5  1  0  0  0  0
  4  6  1  0  0  0  0
  4  7  1  0  0  0  0
  7  8  1  0  0  0  0
  7  9  1  0  0  0  0
  7 10  1  0  0  0  0
 10 11  1  0  0  0  0
 10 12  1  0  0  0  0
 10 13  1  0  0  0  0
 13 14  1  0  0  0  0
 13 15  1  0  0  0  0
 13 16  1  0  0  0  0
M  END
> <VConfSearch Rank>
267

> <Conf_Id>
37

> <Delta U+W>
1.063

> <U+W>
-55.841

> <U>
9.719

> <W>
-65.560

> <W(PB)>
-67.414

> <W(SA)>
1.854

> <Valence>
7.002

> <Coulomb>
2.402

> <VdW>
0.314

> <VdW6>
-5.861

> <VdW12>
6.175

> <Bond>
0.134

> <Angle>
2.733

> <Pdih>
4.133

> <Idih>
0.002

> <Tether>
0.000

$$$$
VeraChem MOL file


 16 15  0  0  0  0  0  0  0  0999 V2000     
   21.4981   17.8978   21.0627 C   0  0  0  0  0  0  0  0  0  0  0  0
   21.1380   17.1237   20.1979 O   0  5  0  0  0  0  0  0  0  0  0  0
   22.4351   18.6601   20.9320 O   0  0  0  0  0  0  0  0  0  0  0  0
   20.7538   17.8852   22.3952 C   0  0  0  0  0  0  0  0  0  0  0  0
   21.3542   18.4217   23.1388 H   0  0  0  0  0  0  0  0  0  0  0  0
   20.7042   16.8426   22.7305 H   0  0  0  0  0  0  0  0  0  0  0  0
   19.3166   18.4703   22.3265 C   0  0  0  0  0  0  0  0  0  0  0  0
   18.7278   17.8767   21.6135 H   0  0  0  0  0  0  0  0  0  0  0  0
   18.8308   18.3479   23.3039 H   0  0  0  0  0  0  0  0  0  0  0  0
   19.2533   19.9590   21.9095 C   0  0  0  0  0  0  0  0  0  0  0  0
   18.1992   20.2526   21.8101 H   0  0  0  0  0  0  0  0  0  0  0  0
   19.7055   20.0893   20.9165 H   0  0  0  0  0  0  0  0  0  0  0  0
   19.9402   20.9035   22.9187 C   0  0  0  0  0  0  0  0  0  0  0  0
   19.5302   20.7674   23.9279 H   0  0  0  0  0  0  0  0  0  0  0  0
   19.7869   21.9511   22.6292 H   0  0  0  0  0  0  0  0  0  0  0  0
   21.0225   20.7253   22.9575 H   0  0  0  0  0  0  0  0  0  0  0  0
  1  2  1  0  0  0  0
  1  3  2  0  0  0  0
  1  4  1  0  0  0  0
  4  5  1  0  0  0  0
  4  6  1  0  0  0  0
  4  7  1  0  0  0  0
  7  8  1  0  0  0  0
  7  9  1  0  0  0  0
  7 10  1  0  0  0  0
 10 11  1  0  0  0  0
 10 12  1  0  0  0  0
 10 13  1  0  0  0  0
 13 14  1  0  0  0  0
 13 15  1  0  0  0  0
 13 16  1  0  0  0  0
M  END
> <VConfSearch Rank>
268

> <Conf_Id>
39

> <Delta U+W>
1.129

> <U+W>
-55.775

> <U>
9.718

> <W>
-65.493

> <W(PB)>
-67.361

> <W(SA)>
1.869

> <Valence>
7.002

> <Coulomb>
2.402

> <VdW>
0.314

> <VdW6>
-5.861

> <VdW12>
6.175

> <Bond>
0.134

> <Angle>
2.734

> <Pdih>
4.133

> <Idih>
0.002

> <Tether>
0.000

$$$$
VeraChem MOL file


 16 15  0  0  0  0  0  0  0  0999 V2000     
   18.2585   19.0726   21.1332 C   0  0  0  0  0  0  0  0  0  0  0  0
   18.5417   19.1024   19.9518 O   0  5  0  0  0  0  0  0  0  0  0  0
   17.4308   19.8035   21.6410 O   0  0  0  0  0  0  0  0  0  0  0  0
   18.9117   18.0011   22.0044 C   0  0  0  0  0  0  0  0  0  0  0  0
   19.5659   17.3822   21.3784 H   0  0  0  0  0  0  0  0  0  0  0  0
   18.1016   17.3491   22.3512 H   0  0  0  0  0  0  0  0  0  0  0  0
   19.6940   18.5336   23.2378 C   0  0  0  0  0  0  0  0  0  0  0  0
   19.1064   19.3098   23.7475 H   0  0  0  0  0  0  0  0  0  0  0  0
   19.7949   17.7094   23.9569 H   0  0  0  0  0  0  0  0  0  0  0  0
   21.1144   19.0626   22.9241 C   0  0  0  0  0  0  0  0  0  0  0  0
   21.6978   18.2844   22.4130 H   0  0  0  0  0  0  0  0  0  0  0  0
   21.6293   19.2598   23.8745 H   0  0  0  0  0  0  0  0  0  0  0  0
   21.1268   20.3565   22.0840 C   0  0  0  0  0  0  0  0  0  0  0  0
   20.7727   20.1728   21.0623 H   0  0  0  0  0  0  0  0  0  0  0  0
   22.1457   20.7582   22.0126 H   0  0  0  0  0  0  0  0  0  0  0  0
   20.4891   21.1268   22.5371 H   0  0  0  0  0  0  0  0  0  0  0  0
  1  2  1  0  0  0  0
  1  3  2  0  0  0  0
  1  4  1  0  0  0  0
  4  5  1  0  0  0  0
  4  6  1  0  0  0  0
  4  7  1  0  0  0  0
  7  8  1  0  0  0  0
  7  9  1  0  0  0  0
  7 10  1  0  0  0  0
 10 11  1  0  0  0  0
 10 12  1  0  0  0  0
 10 13  1  0  0  0  0
 13 14  1  0  0  0  0
 13 15  1  0  0  0  0
 13 16  1  0  0  0  0
M  END
> <VConfSearch Rank>
269

> <Conf_Id>
47

> <Delta U+W>
2.301

> <U+W>
-54.603

> <U>
11.258

> <W>
-65.861

> <W(PB)>
-67.702

> <W(SA)>
1.841

> <Valence>
8.169

> <Coulomb>
2.735

> <VdW>
0.355

> <VdW6>
-6.245

> <VdW12>
6.600

> <Bond>
0.149

> <Angle>
3.168

> <Pdih>
4.840

> <Idih>
0.011

> <Tether>
0.000

$$$$
VeraChem MOL file


 16 15  0  0  0  0  0  0  0  0999 V2000     
   20.6179   19.0794   20.4133 C   0  0  0  0  0  0  0  0  0  0  0  0
   21.1907   18.0209   20.2434 O   0  5  0  0  0  0  0  0  0  0  0  0
   21.0971   20.1547   20.1117 O   0  0  0  0  0  0  0  0  0  0  0  0
   19.1878   19.0521   20.9495 C   0  0  0  0  0  0  0  0  0  0  0  0
   18.5927   18.4986   20.2137 H   0  0  0  0  0  0  0  0  0  0  0  0
   18.7932   20.0753   20.9658 H   0  0  0  0  0  0  0  0  0  0  0  0
   19.0133   18.3861   22.3434 C   0  0  0  0  0  0  0  0  0  0  0  0
   17.9584   18.1006   22.4531 H   0  0  0  0  0  0  0  0  0  0  0  0
   19.5864   17.4495   22.3853 H   0  0  0  0  0  0  0  0  0  0  0  0
   19.3846   19.2903   23.5435 C   0  0  0  0  0  0  0  0  0  0  0  0
   19.0748   18.7845   24.4684 H   0  0  0  0  0  0  0  0  0  0  0  0
   18.8110   20.2263   23.4969 H   0  0  0  0  0  0  0  0  0  0  0  0
   20.8909   19.6091   23.6419 C   0  0  0  0  0  0  0  0  0  0  0  0
   21.1122   20.1316   24.5815 H   0  0  0  0  0  0  0  0  0  0  0  0
   21.2165   20.2578   22.8195 H   0  0  0  0  0  0  0  0  0  0  0  0
   21.4909   18.6901   23.6151 H   0  0  0  0  0  0  0  0  0  0  0  0
  1  2  1  0  0  0  0
  1  3  2  0  0  0  0
  1  4  1  0  0  0  0
  4  5  1  0  0  0  0
  4  6  1  0  0  0  0
  4  7  1  0  0  0  0
  7  8  1  0  0  0  0
  7  9  1  0  0  0  0
  7 10  1  0  0  0  0
 10 11  1  0  0  0  0
 10 12  1  0  0  0  0
 10 13  1  0  0  0  0
 13 14  1  0  0  0  0
 13 15  1  0  0  0  0
 13 16  1  0  0  0  0
M  END
> <VConfSearch Rank>
270

> <Conf_Id>
45

> <Delta U+W>
2.303

> <U+W>
-54.601

> <U>
11.258

> <W>
-65.860

> <W(PB)>
-67.709

> <W(SA)>
1.849

> <Valence>
8.169

> <Coulomb>
2.735

> <VdW>
0.355

> <VdW6>
-6.245

> <VdW12>
6.600

> <Bond>
0.149

> <Angle>
3.168

> <Pdih>
4.840

> <Idih>
0.011

> <Tether>
0.000

$$$$
VeraChem MOL file


 16 15  0  0  0  0  0  0  0  0999 V2000     
   18.6581   20.4986   23.9091 C   0  0  0  0  0  0  0  0  0  0  0  0
   19.5262   21.3386   24.0456 O   0  5  0  0  0  0  0  0  0  0  0  0
   17.6320   20.4951   24.5591 O   0  0  0  0  0  0  0  0  0  0  0  0
   18.8365   19.3812   22.8798 C   0  0  0  0  0  0  0  0  0  0  0  0
   17.9840   19.4306   22.1921 H   0  0  0  0  0  0  0  0  0  0  0  0
   18.7614   18.4276   23.4157 H   0  0  0  0  0  0  0  0  0  0  0  0
   20.1622   19.4262   22.0744 C   0  0  0  0  0  0  0  0  0  0  0  0
   20.2343   20.3859   21.5441 H   0  0  0  0  0  0  0  0  0  0  0  0
   21.0126   19.3819   22.7689 H   0  0  0  0  0  0  0  0  0  0  0  0
   20.2579   18.2654   21.0620 C   0  0  0  0  0  0  0  0  0  0  0  0
   19.4090   18.3096   20.3657 H   0  0  0  0  0  0  0  0  0  0  0  0
   20.1877   17.3050   21.5913 H   0  0  0  0  0  0  0  0  0  0  0  0
   21.5765   18.3155   20.2653 C   0  0  0  0  0  0  0  0  0  0  0  0
   21.6588   19.2535   19.7006 H   0  0  0  0  0  0  0  0  0  0  0  0
   21.6285   17.4839   19.5505 H   0  0  0  0  0  0  0  0  0  0  0  0
   22.4432   18.2415   20.9352 H   0  0  0  0  0  0  0  0  0  0  0  0
  1  2  1  0  0  0  0
  1  3  2  0  0  0  0
  1  4  1  0  0  0  0
  4  5  1  0  0  0  0
  4  6  1  0  0  0  0
  4  7  1  0  0  0  0
  7  8  1  0  0  0  0
  7  9  1  0  0  0  0
  7 10  1  0  0  0  0
 10 11  1  0  0  0  0
 10 12  1  0  0  0  0
 10 13  1  0  0  0  0
 13 14  1  0  0  0  0
 13 15  1  0  0  0  0
 13 16  1  0  0  0  0
M  END
> <VConfSearch Rank>
271

> <Conf_Id>
0

> <Delta U+W>
0.000

> <U+W>
-56.904

> <U>
7.329

> <W>
-64.233

> <W(PB)>
-66.148

> <W(SA)>
1.915

> <Valence>
6.755

> <Coulomb>
-0.421

> <VdW>
0.995

> <VdW6>
-4.495

> <VdW12>
5.490

> <Bond>
0.106

> <Angle>
2.715

> <Pdih>
3.934

> <Idih>
0.000

> <Tether>
0.000

$$$$
VeraChem MOL file


 16 15  0  0  0  0  0  0  0  0999 V2000     
   19.7605   21.8053   21.5023 C   0  0  0  0  0  0  0  0  0  0  0  0
   18.6813   22.2644   21.8193 O   0  5  0  0  0  0  0  0  0  0  0  0
   20.7973   22.4371   21.5417 O   0  0  0  0  0  0  0  0  0  0  0  0
   19.8195   20.3512   21.0476 C   0  0  0  0  0  0  0  0  0  0  0  0
   20.6230   20.2579   20.3070 H   0  0  0  0  0  0  0  0  0  0  0  0
   18.8785   20.1154   20.5360 H   0  0  0  0  0  0  0  0  0  0  0  0
   20.0536   19.3631   22.2167 C   0  0  0  0  0  0  0  0  0  0  0  0
   20.9927   19.6197   22.7263 H   0  0  0  0  0  0  0  0  0  0  0  0
   19.2481   19.4773   22.9554 H   0  0  0  0  0  0  0  0  0  0  0  0
   20.1091   17.9001   21.7296 C   0  0  0  0  0  0  0  0  0  0  0  0
   20.9149   17.7854   20.9914 H   0  0  0  0  0  0  0  0  0  0  0  0
   19.1699   17.6429   21.2204 H   0  0  0  0  0  0  0  0  0  0  0  0
   20.3423   16.9225   22.8983 C   0  0  0  0  0  0  0  0  0  0  0  0
   19.5335   16.9938   23.6374 H   0  0  0  0  0  0  0  0  0  0  0  0
   21.2914   17.1373   23.4067 H   0  0  0  0  0  0  0  0  0  0  0  0
   20.3791   15.8872   22.5350 H   0  0  0  0  0  0  0  0  0  0  0  0
  1  2  1  0  0  0  0
  1  3  2  0  0  0  0
  1  4  1  0  0  0  0
  4  5  1  0  0  0  0
  4  6  1  0  0  0  0
  4  7  1  0  0  0  0
  7  8  1  0  0  0  0
  7  9  1  0  0  0  0
  7 10  1  0  0  0  0
 10 11  1  0  0  0  0
 10 12  1  0  0  0  0
 10 13  1  0  0  0  0
 13 14  1  0  0  0  0
 13 15  1  0  0  0  0
 13 16  1  0  0  0  0
M  END
> <VConfSearch Rank>
272

> <Conf_Id>
22

> <Delta U+W>
-1.185

> <U+W>
-58.089

> <U>
6.298

> <W>
-64.387

> <W(PB)>
-66.329

> <W(SA)>
1.942

> <Valence>
6.246

> <Coulomb>
-0.408

> <VdW>
0.460

> <VdW6>
-4.207

> <VdW12>
4.667

> <Bond>
0.072

> <Angle>
2.246

> <Pdih>
3.928

> <Idih>
0.001

> <Tether>
0.000

$$$$
VeraChem MOL file


 16 15  0  0  0  0  0  0  0  0999 V2000     
   19.7663   17.4427   20.0498 C   0  0  0  0  0  0  0  0  0  0  0  0
   19.1151   17.6692   19.0494 O   0  5  0  0  0  0  0  0  0  0  0  0
   20.0699   16.3243   20.4145 O   0  0  0  0  0  0  0  0  0  0  0  0
   20.2093   18.6252   20.9042 C   0  0  0  0  0  0  0  0  0  0  0  0
   20.3803   19.4805   20.2394 H   0  0  0  0  0  0  0  0  0  0  0  0
   21.1733   18.3678   21.3574 H   0  0  0  0  0  0  0  0  0  0  0  0
   19.1749   18.9973   21.9980 C   0  0  0  0  0  0  0  0  0  0  0  0
   18.1998   19.1645   21.5198 H   0  0  0  0  0  0  0  0  0  0  0  0
   19.0437   18.1479   22.6826 H   0  0  0  0  0  0  0  0  0  0  0  0
   19.5570   20.2616   22.8018 C   0  0  0  0  0  0  0  0  0  0  0  0
   18.7266   20.5169   23.4745 H   0  0  0  0  0  0  0  0  0  0  0  0
   19.6768   21.1138   22.1187 H   0  0  0  0  0  0  0  0  0  0  0  0
   20.8406   20.0845   23.6408 C   0  0  0  0  0  0  0  0  0  0  0  0
   21.7206   19.9396   23.0017 H   0  0  0  0  0  0  0  0  0  0  0  0
   20.7553   19.2196   24.3117 H   0  0  0  0  0  0  0  0  0  0  0  0
   21.0213   20.9741   24.2580 H   0  0  0  0  0  0  0  0  0  0  0  0
  1  2  1  0  0  0  0
  1  3  2  0  0  0  0
  1  4  1  0  0  0  0
  4  5  1  0  0  0  0
  4  6  1  0  0  0  0
  4  7  1  0  0  0  0
  7  8  1  0  0  0  0
  7  9  1  0  0  0  0
  7 10  1  0  0  0  0
 10 11  1  0  0  0  0
 10 12  1  0  0  0  0
 10 13  1  0  0  0  0
 13 14  1  0  0  0  0
 13 15  1  0  0  0  0
 13 16  1  0  0  0  0
M  END
> <VConfSearch Rank>
273

> <Conf_Id>
36

> <Delta U+W>
-0.427

> <U+W>
-57.331

> <U>
7.263

> <W>
-64.594

> <W(PB)>
-66.513

> <W(SA)>
1.920

> <Valence>
6.734

> <Coulomb>
-0.068

> <VdW>
0.598

> <VdW6>
-4.819

> <VdW12>
5.417

> <Bond>
0.107

> <Angle>
2.469

> <Pdih>
4.157

> <Idih>
0.001

> <Tether>
0.000

$$$$
VeraChem MOL file


 16 15  0  0  0  0  0  0  0  0999 V2000     
   18.3559   17.2514   22.7242 C   0  0  0  0  0  0  0  0  0  0  0  0
   18.4540   17.0292   23.9145 O   0  5  0  0  0  0  0  0  0  0  0  0
   17.8666   16.4698   21.9332 O   0  0  0  0  0  0  0  0  0  0  0  0
   18.8942   18.5743   22.1905 C   0  0  0  0  0  0  0  0  0  0  0  0
   18.7529   19.3317   22.9700 H   0  0  0  0  0  0  0  0  0  0  0  0
   18.2786   18.8714   21.3330 H   0  0  0  0  0  0  0  0  0  0  0  0
   20.3859   18.4923   21.7744 C   0  0  0  0  0  0  0  0  0  0  0  0
   20.9973   18.2360   22.6507 H   0  0  0  0  0  0  0  0  0  0  0  0
   20.5081   17.6678   21.0584 H   0  0  0  0  0  0  0  0  0  0  0  0
   20.9173   19.7931   21.1294 C   0  0  0  0  0  0  0  0  0  0  0  0
   20.3132   20.0432   20.2462 H   0  0  0  0  0  0  0  0  0  0  0  0
   21.9392   19.6156   20.7667 H   0  0  0  0  0  0  0  0  0  0  0  0
   20.9355   20.9915   22.1022 C   0  0  0  0  0  0  0  0  0  0  0  0
   19.9204   21.2784   22.4039 H   0  0  0  0  0  0  0  0  0  0  0  0
   21.3998   21.8649   21.6262 H   0  0  0  0  0  0  0  0  0  0  0  0
   21.5103   20.7544   23.0070 H   0  0  0  0  0  0  0  0  0  0  0  0
  1  2  1  0  0  0  0
  1  3  2  0  0  0  0
  1  4  1  0  0  0  0
  4  5  1  0  0  0  0
  4  6  1  0  0  0  0
  4  7  1  0  0  0  0
  7  8  1  0  0  0  0
  7  9  1  0  0  0  0
  7 10  1  0  0  0  0
 10 11  1  0  0  0  0
 10 12  1  0  0  0  0
 10 13  1  0  0  0  0
 13 14  1  0  0  0  0
 13 15  1  0  0  0  0
 13 16  1  0  0  0  0
M  END
> <VConfSearch Rank>
274

> <Conf_Id>
17

> <Delta U+W>
-0.432

> <U+W>
-57.336

> <U>
7.263

> <W>
-64.599

> <W(PB)>
-66.503

> <W(SA)>
1.904

> <Valence>
6.734

> <Coulomb>
-0.068

> <VdW>
0.598

> <VdW6>
-4.819

> <VdW12>
5.417

> <Bond>
0.107

> <Angle>
2.469

> <Pdih>
4.157

> <Idih>
0.001

> <Tether>
0.000

$$$$
VeraChem MOL file


 16 15  0  0  0  0  0  0  0  0999 V2000     
   19.9445   18.5644   19.8010 C   0  0  0  0  0  0  0  0  0  0  0  0
   20.0583   17.3740   19.5856 O   0  5  0  0  0  0  0  0  0  0  0  0
   19.0438   19.2447   19.3512 O   0  0  0  0  0  0  0  0  0  0  0  0
   21.0043   19.2443   20.6636 C   0  0  0  0  0  0  0  0  0  0  0  0
   20.9664   20.3248   20.4787 H   0  0  0  0  0  0  0  0  0  0  0  0
   21.9839   18.8971   20.3143 H   0  0  0  0  0  0  0  0  0  0  0  0
   20.8645   18.9561   22.1810 C   0  0  0  0  0  0  0  0  0  0  0  0
   20.8753   17.8700   22.3479 H   0  0  0  0  0  0  0  0  0  0  0  0
   21.7398   19.3651   22.7035 H   0  0  0  0  0  0  0  0  0  0  0  0
   19.5808   19.5653   22.7853 C   0  0  0  0  0  0  0  0  0  0  0  0
   18.6967   19.1477   22.2836 H   0  0  0  0  0  0  0  0  0  0  0  0
   19.5654   20.6494   22.6068 H   0  0  0  0  0  0  0  0  0  0  0  0
   19.4835   19.2934   24.2996 C   0  0  0  0  0  0  0  0  0  0  0  0
   19.4659   18.2149   24.5043 H   0  0  0  0  0  0  0  0  0  0  0  0
   18.5659   19.7320   24.7129 H   0  0  0  0  0  0  0  0  0  0  0  0
   20.3381   19.7301   24.8331 H   0  0  0  0  0  0  0  0  0  0  0  0
  1  2  1  0  0  0  0
  1  3  2  0  0  0  0
  1  4  1  0  0  0  0
  4  5  1  0  0  0  0
  4  6  1  0  0  0  0
  4  7  1  0  0  0  0
  7  8  1  0  0  0  0
  7  9  1  0  0  0  0
  7 10  1  0  0  0  0
 10 11  1  0  0  0  0
 10 12  1  0  0  0  0
 10 13  1  0  0  0  0
 13 14  1  0  0  0  0
 13 15  1  0  0  0  0
 13 16  1  0  0  0  0
M  END
> <VConfSearch Rank>
275

> <Conf_Id>
19

> <Delta U+W>
0.048

> <U+W>
-56.856

> <U>
8.276

> <W>
-65.132

> <W(PB)>
-67.031

> <W(SA)>
1.899

> <Valence>
6.513

> <Coulomb>
1.428

> <VdW>
0.335

> <VdW6>
-5.021

> <VdW12>
5.356

> <Bond>
0.092

> <Angle>
2.417

> <Pdih>
4.003

> <Idih>
0.001

> <Tether>
0.000

$$$$
VeraChem MOL file


 16 15  0  0  0  0  0  0  0  0999 V2000     
   18.6614   17.6373   23.4453 C   0  0  0  0  0  0  0  0  0  0  0  0
   19.3293   16.6992   23.8329 O   0  5  0  0  0  0  0  0  0  0  0  0
   17.5654   17.5155   22.9352 O   0  0  0  0  0  0  0  0  0  0  0  0
   19.2212   19.0450   23.6314 C   0  0  0  0  0  0  0  0  0  0  0  0
   19.6164   19.1087   24.6522 H   0  0  0  0  0  0  0  0  0  0  0  0
   18.3942   19.7626   23.5663 H   0  0  0  0  0  0  0  0  0  0  0  0
   20.3360   19.4207   22.6209 C   0  0  0  0  0  0  0  0  0  0  0  0
   20.7724   20.3852   22.9140 H   0  0  0  0  0  0  0  0  0  0  0  0
   21.1439   18.6778   22.6773 H   0  0  0  0  0  0  0  0  0  0  0  0
   19.8150   19.5177   21.1707 C   0  0  0  0  0  0  0  0  0  0  0  0
   18.9990   20.2517   21.1183 H   0  0  0  0  0  0  0  0  0  0  0  0
   19.3942   18.5514   20.8592 H   0  0  0  0  0  0  0  0  0  0  0  0
   20.9349   19.9250   20.1927 C   0  0  0  0  0  0  0  0  0  0  0  0
   21.3521   20.9050   20.4590 H   0  0  0  0  0  0  0  0  0  0  0  0
   20.5484   19.9884   19.1672 H   0  0  0  0  0  0  0  0  0  0  0  0
   21.7509   19.1904   20.2026 H   0  0  0  0  0  0  0  0  0  0  0  0
  1  2  1  0  0  0  0
  1  3  2  0  0  0  0
  1  4  1  0  0  0  0
  4  5  1  0  0  0  0
  4  6  1  0  0  0  0
  4  7  1  0  0  0  0
  7  8  1  0  0  0  0
  7  9  1  0  0  0  0
  7 10  1  0  0  0  0
 10 11  1  0  0  0  0
 10 12  1  0  0  0  0
 10 13  1  0  0  0  0
 13 14  1  0  0  0  0
 13 15  1  0  0  0  0
 13 16  1  0  0  0  0
M  END
> <VConfSearch Rank>
276

> <Conf_Id>
20

> <Delta U+W>
-0.010

> <U+W>
-56.914

> <U>
8.277

> <W>
-65.191

> <W(PB)>
-67.081

> <W(SA)>
1.890

> <Valence>
6.513

> <Coulomb>
1.429

> <VdW>
0.335

> <VdW6>
-5.021

> <VdW12>
5.356

> <Bond>
0.092

> <Angle>
2.417

> <Pdih>
4.002

> <Idih>
0.001

> <Tether>
0.000

$$$$
VeraChem MOL file


 16 15  0  0  0  0  0  0  0  0999 V2000     
   19.2446   17.2752   21.3501 C   0  0  0  0  0  0  0  0  0  0  0  0
   18.2725   17.1498   20.6316 O   0  5  0  0  0  0  0  0  0  0  0  0
   19.4880   16.5361   22.2833 O   0  0  0  0  0  0  0  0  0  0  0  0
   20.2280   18.4007   21.0406 C   0  0  0  0  0  0  0  0  0  0  0  0
   20.4743   18.3336   19.9744 H   0  0  0  0  0  0  0  0  0  0  0  0
   21.1599   18.2138   21.5864 H   0  0  0  0  0  0  0  0  0  0  0  0
   19.6861   19.8225   21.3529 C   0  0  0  0  0  0  0  0  0  0  0  0
   20.4232   20.5685   21.0266 H   0  0  0  0  0  0  0  0  0  0  0  0
   18.7841   19.9966   20.7501 H   0  0  0  0  0  0  0  0  0  0  0  0
   19.3452   20.0619   22.8431 C   0  0  0  0  0  0  0  0  0  0  0  0
   18.5821   19.3431   23.1728 H   0  0  0  0  0  0  0  0  0  0  0  0
   18.8955   21.0590   22.9459 H   0  0  0  0  0  0  0  0  0  0  0  0
   20.5754   19.9724   23.7710 C   0  0  0  0  0  0  0  0  0  0  0  0
   20.9838   18.9540   23.7933 H   0  0  0  0  0  0  0  0  0  0  0  0
   20.3008   20.2420   24.7990 H   0  0  0  0  0  0  0  0  0  0  0  0
   21.3682   20.6565   23.4415 H   0  0  0  0  0  0  0  0  0  0  0  0
  1  2  1  0  0  0  0
  1  3  2  0  0  0  0
  1  4  1  0  0  0  0
  4  5  1  0  0  0  0
  4  6  1  0  0  0  0
  4  7  1  0  0  0  0
  7  8  1  0  0  0  0
  7  9  1  0  0  0  0
  7 10  1  0  0  0  0
 10 11  1  0  0  0  0
 10 12  1  0  0  0  0
 10 13  1  0  0  0  0
 13 14  1  0  0  0  0
 13 15  1  0  0  0  0
 13 16  1  0  0  0  0
M  END
> <VConfSearch Rank>
277

> <Conf_Id>
37

> <Delta U+W>
1.063

> <U+W>
-55.841

> <U>
9.719

> <W>
-65.560

> <W(PB)>
-67.414

> <W(SA)>
1.854

> <Valence>
7.002

> <Coulomb>
2.402

> <VdW>
0.314

> <VdW6>
-5.861

> <VdW12>
6.175

> <Bond>
0.134

> <Angle>
2.733

> <Pdih>
4.133

> <Idih>
0.002

> <Tether>
0.000

$$$$
VeraChem MOL file


 16 15  0  0  0  0  0  0  0  0999 V2000     
   18.2463   19.6597   23.0493 C   0  0  0  0  0  0  0  0  0  0  0  0
   17.2457   19.8722   22.3933 O   0  5  0  0  0  0  0  0  0  0  0  0
   18.2606   18.9598   24.0424 O   0  0  0  0  0  0  0  0  0  0  0  0
   19.5452   20.3371   22.6206 C   0  0  0  0  0  0  0  0  0  0  0  0
   20.2648   20.2717   23.4447 H   0  0  0  0  0  0  0  0  0  0  0  0
   19.3267   21.4026   22.4835 H   0  0  0  0  0  0  0  0  0  0  0  0
   20.1580   19.7670   21.3121 C   0  0  0  0  0  0  0  0  0  0  0  0
   19.4328   19.8972   20.4970 H   0  0  0  0  0  0  0  0  0  0  0  0
   21.0394   20.3623   21.0380 H   0  0  0  0  0  0  0  0  0  0  0  0
   20.5570   18.2742   21.3923 C   0  0  0  0  0  0  0  0  0  0  0  0
   20.8995   17.9472   20.4009 H   0  0  0  0  0  0  0  0  0  0  0  0
   19.6756   17.6633   21.6318 H   0  0  0  0  0  0  0  0  0  0  0  0
   21.6737   17.9971   22.4212 C   0  0  0  0  0  0  0  0  0  0  0  0
   22.5545   18.6221   22.2249 H   0  0  0  0  0  0  0  0  0  0  0  0
   21.9868   16.9461   22.3737 H   0  0  0  0  0  0  0  0  0  0  0  0
   21.3298   18.1945   23.4446 H   0  0  0  0  0  0  0  0  0  0  0  0
  1  2  1  0  0  0  0
  1  3  2  0  0  0  0
  1  4  1  0  0  0  0
  4  5  1  0  0  0  0
  4  6  1  0  0  0  0
  4  7  1  0  0  0  0
  7  8  1  0  0  0  0
  7  9  1  0  0  0  0
  7 10  1  0  0  0  0
 10 11  1  0  0  0  0
 10 12  1  0  0  0  0
 10 13  1  0  0  0  0
 13 14  1  0  0  0  0
 13 15  1  0  0  0  0
 13 16  1  0  0  0  0
M  END
> <VConfSearch Rank>
278

> <Conf_Id>
39

> <Delta U+W>
1.129

> <U+W>
-55.775

> <U>
9.718

> <W>
-65.493

> <W(PB)>
-67.361

> <W(SA)>
1.869

> <Valence>
7.002

> <Coulomb>
2.402

> <VdW>
0.314

> <VdW6>
-5.861

> <VdW12>
6.175

> <Bond>
0.134

> <Angle>
2.734

> <Pdih>
4.133

> <Idih>
0.002

> <Tether>
0.000

$$$$
VeraChem MOL file


 16 15  0  0  0  0  0  0  0  0999 V2000     
   19.5490   20.2946   20.7251 C   0  0  0  0  0  0  0  0  0  0  0  0
   20.4111   21.1459   20.6309 O   0  5  0  0  0  0  0  0  0  0  0  0
   18.3594   20.5405   20.6859 O   0  0  0  0  0  0  0  0  0  0  0  0
   19.9851   18.8327   20.8063 C   0  0  0  0  0  0  0  0  0  0  0  0
   21.0794   18.7832   20.7507 H   0  0  0  0  0  0  0  0  0  0  0  0
   19.6032   18.3459   19.9014 H   0  0  0  0  0  0  0  0  0  0  0  0
   19.4741   18.0551   22.0518 C   0  0  0  0  0  0  0  0  0  0  0  0
   18.4107   18.2751   22.2202 H   0  0  0  0  0  0  0  0  0  0  0  0
   19.5291   16.9814   21.8271 H   0  0  0  0  0  0  0  0  0  0  0  0
   20.2808   18.3078   23.3482 C   0  0  0  0  0  0  0  0  0  0  0  0
   21.3435   18.0887   23.1751 H   0  0  0  0  0  0  0  0  0  0  0  0
   19.9401   17.5968   24.1135 H   0  0  0  0  0  0  0  0  0  0  0  0
   20.1302   19.7376   23.9080 C   0  0  0  0  0  0  0  0  0  0  0  0
   20.6071   20.4758   23.2518 H   0  0  0  0  0  0  0  0  0  0  0  0
   20.6066   19.8161   24.8937 H   0  0  0  0  0  0  0  0  0  0  0  0
   19.0720   20.0077   24.0200 H   0  0  0  0  0  0  0  0  0  0  0  0
  1  2  1  0  0  0  0
  1  3  2  0  0  0  0
  1  4  1  0  0  0  0
  4  5  1  0  0  0  0
  4  6  1  0  0  0  0
  4  7  1  0  0  0  0
  7  8  1  0  0  0  0
  7  9  1  0  0  0  0
  7 10  1  0  0  0  0
 10 11  1  0  0  0  0
 10 12  1  0  0  0  0
 10 13  1  0  0  0  0
 13 14  1  0  0  0  0
 13 15  1  0  0  0  0
 13 16  1  0  0  0  0
M  END
> <VConfSearch Rank>
279

> <Conf_Id>
47

> <Delta U+W>
2.301

> <U+W>
-54.603

> <U>
11.258

> <W>
-65.861

> <W(PB)>
-67.702

> <W(SA)>
1.841

> <Valence>
8.169

> <Coulomb>
2.735

> <VdW>
0.355

> <VdW6>
-6.245

> <VdW12>
6.600

> <Bond>
0.149

> <Angle>
3.168

> <Pdih>
4.840

> <Idih>
0.011

> <Tether>
0.000

$$$$
VeraChem MOL file


 16 15  0  0  0  0  0  0  0  0999 V2000     
   20.4128   21.0093   21.9536 C   0  0  0  0  0  0  0  0  0  0  0  0
   21.1491   21.0508   20.9876 O   0  5  0  0  0  0  0  0  0  0  0  0
   20.6518   21.5768   23.0013 O   0  0  0  0  0  0  0  0  0  0  0  0
   19.0763   20.2823   21.8159 C   0  0  0  0  0  0  0  0  0  0  0  0
   18.5191   20.8064   21.0307 H   0  0  0  0  0  0  0  0  0  0  0  0
   18.5044   20.4083   22.7433 H   0  0  0  0  0  0  0  0  0  0  0  0
   19.1746   18.7757   21.4451 C   0  0  0  0  0  0  0  0  0  0  0  0
   18.2076   18.4659   21.0264 H   0  0  0  0  0  0  0  0  0  0  0  0
   19.9112   18.6351   20.6419 H   0  0  0  0  0  0  0  0  0  0  0  0
   19.4974   17.8368   22.6324 C   0  0  0  0  0  0  0  0  0  0  0  0
   19.3847   16.7976   22.2939 H   0  0  0  0  0  0  0  0  0  0  0  0
   18.7599   17.9818   23.4339 H   0  0  0  0  0  0  0  0  0  0  0  0
   20.9213   18.0145   23.1991 C   0  0  0  0  0  0  0  0  0  0  0  0
   21.1403   17.2339   23.9390 H   0  0  0  0  0  0  0  0  0  0  0  0
   21.0339   18.9839   23.6996 H   0  0  0  0  0  0  0  0  0  0  0  0
   21.6738   17.9478   22.4024 H   0  0  0  0  0  0  0  0  0  0  0  0
  1  2  1  0  0  0  0
  1  3  2  0  0  0  0
  1  4  1  0  0  0  0
  4  5  1  0  0  0  0
  4  6  1  0  0  0  0
  4  7  1  0  0  0  0
  7  8  1  0  0  0  0
  7  9  1  0  0  0  0
  7 10  1  0  0  0  0
 10 11  1  0  0  0  0
 10 12  1  0  0  0  0
 10 13  1  0  0  0  0
 13 14  1  0  0  0  0
 13 15  1  0  0  0  0
 13 16  1  0  0  0  0
M  END
> <VConfSearch Rank>
280

> <Conf_Id>
45

> <Delta U+W>
2.303

> <U+W>
-54.601

> <U>
11.258

> <W>
-65.860

> <W(PB)>
-67.709

> <W(SA)>
1.849

> <Valence>
8.169

> <Coulomb>
2.735

> <VdW>
0.355

> <VdW6>
-6.245

> <VdW12>
6.600

> <Bond>
0.149

> <Angle>
3.168

> <Pdih>
4.840

> <Idih>
0.011

> <Tether>
0.000

$$$$
VeraChem MOL file


 16 15  0  0  0  0  0  0  0  0999 V2000     
   20.1749   21.1633   20.0812 C   0  0  0  0  0  0  0  0  0  0  0  0
   21.3904   21.1785   20.0714 O   0  5  0  0  0  0  0  0  0  0  0  0
   19.4979   21.9102   19.4037 O   0  0  0  0  0  0  0  0  0  0  0  0
   19.4342   20.1697   20.9778 C   0  0  0  0  0  0  0  0  0  0  0  0
   18.7846   19.5673   20.3318 H   0  0  0  0  0  0  0  0  0  0  0  0
   18.7798   20.7502   21.6389 H   0  0  0  0  0  0  0  0  0  0  0  0
   20.3401   19.2371   21.8251 C   0  0  0  0  0  0  0  0  0  0  0  0
   20.9971   18.6622   21.1578 H   0  0  0  0  0  0  0  0  0  0  0  0
   20.9923   19.8463   22.4662 H   0  0  0  0  0  0  0  0  0  0  0  0
   19.5117   18.2703   22.6971 C   0  0  0  0  0  0  0  0  0  0  0  0
   18.8602   17.6592   22.0570 H   0  0  0  0  0  0  0  0  0  0  0  0
   18.8555   18.8440   23.3662 H   0  0  0  0  0  0  0  0  0  0  0  0
   20.4168   17.3468   23.5361 C   0  0  0  0  0  0  0  0  0  0  0  0
   21.0628   16.7376   22.8903 H   0  0  0  0  0  0  0  0  0  0  0  0
   19.8124   16.6662   24.1498 H   0  0  0  0  0  0  0  0  0  0  0  0
   21.0580   17.9311   24.2091 H   0  0  0  0  0  0  0  0  0  0  0  0
  1  2  1  0  0  0  0
  1  3  2  0  0  0  0
  1  4  1  0  0  0  0
  4  5  1  0  0  0  0
  4  6  1  0  0  0  0
  4  7  1  0  0  0  0
  7  8  1  0  0  0  0
  7  9  1  0  0  0  0
  7 10  1  0  0  0  0
 10 11  1  0  0  0  0
 10 12  1  0  0  0  0
 10 13  1  0  0  0  0
 13 14  1  0  0  0  0
 13 15  1  0  0  0  0
 13 16  1  0  0  0  0
M  END
> <VConfSearch Rank>
281

> <Conf_Id>
0

> <Delta U+W>
0.000

> <U+W>
-56.904

> <U>
7.329

> <W>
-64.233

> <W(PB)>
-66.148

> <W(SA)>
1.915

> <Valence>
6.755

> <Coulomb>
-0.421

> <VdW>
0.995

> <VdW6>
-4.495

> <VdW12>
5.490

> <Bond>
0.106

> <Angle>
2.715

> <Pdih>
3.934

> <Idih>
0.000

> <Tether>
0.000

$$$$
VeraChem MOL file


 16 15  0  0  0  0  0  0  0  0999 V2000     
   20.0055   19.2893   24.6692 C   0  0  0  0  0  0  0  0  0  0  0  0
   19.6225   20.3548   25.1097 O   0  5  0  0  0  0  0  0  0  0  0  0
   19.8481   18.2297   25.2422 O   0  0  0  0  0  0  0  0  0  0  0  0
   20.7059   19.2792   23.3150 C   0  0  0  0  0  0  0  0  0  0  0  0
   21.4447   18.4686   23.3192 H   0  0  0  0  0  0  0  0  0  0  0  0
   21.2586   20.2207   23.2098 H   0  0  0  0  0  0  0  0  0  0  0  0
   19.7246   19.1011   22.1303 C   0  0  0  0  0  0  0  0  0  0  0  0
   19.1702   18.1607   22.2563 H   0  0  0  0  0  0  0  0  0  0  0  0
   18.9841   19.9128   22.1471 H   0  0  0  0  0  0  0  0  0  0  0  0
   20.4584   19.0944   20.7730 C   0  0  0  0  0  0  0  0  0  0  0  0
   21.1986   18.2824   20.7556 H   0  0  0  0  0  0  0  0  0  0  0  0
   21.0124   20.0349   20.6463 H   0  0  0  0  0  0  0  0  0  0  0  0
   19.4758   18.9167   19.5987 C   0  0  0  0  0  0  0  0  0  0  0  0
   18.7423   19.7334   19.5734 H   0  0  0  0  0  0  0  0  0  0  0  0
   18.9298   17.9679   19.6835 H   0  0  0  0  0  0  0  0  0  0  0  0
   20.0134   18.9142   18.6416 H   0  0  0  0  0  0  0  0  0  0  0  0
  1  2  1  0  0  0  0
  1  3  2  0  0  0  0
  1  4  1  0  0  0  0
  4  5  1  0  0  0  0
  4  6  1  0  0  0  0
  4  7  1  0  0  0  0
  7  8  1  0  0  0  0
  7  9  1  0  0  0  0
  7 10  1  0  0  0  0
 10 11  1  0  0  0  0
 10 12  1  0  0  0  0
 10 13  1  0  0  0  0
 13 14  1  0  0  0  0
 13 15  1  0  0  0  0
 13 16  1  0  0  0  0
M  END
> <VConfSearch Rank>
282

> <Conf_Id>
22

> <Delta U+W>
-1.185

> <U+W>
-58.089

> <U>
6.298

> <W>
-64.387

> <W(PB)>
-66.329

> <W(SA)>
1.942

> <Valence>
6.246

> <Coulomb>
-0.408

> <VdW>
0.460

> <VdW6>
-4.207

> <VdW12>
4.667

> <Bond>
0.072

> <Angle>
2.246

> <Pdih>
3.928

> <Idih>
0.001

> <Tether>
0.000

$$$$
VeraChem MOL file


 16 15  0  0  0  0  0  0  0  0999 V2000     
   20.9328   16.7495   22.1313 C   0  0  0  0  0  0  0  0  0  0  0  0
   20.2876   15.8115   22.5556 O   0  5  0  0  0  0  0  0  0  0  0  0
   22.1466   16.7627   22.0836 O   0  0  0  0  0  0  0  0  0  0  0  0
   20.1785   17.9846   21.6517 C   0  0  0  0  0  0  0  0  0  0  0  0
   19.2205   17.6565   21.2307 H   0  0  0  0  0  0  0  0  0  0  0  0
   20.7559   18.4330   20.8352 H   0  0  0  0  0  0  0  0  0  0  0  0
   19.9389   19.0192   22.7819 C   0  0  0  0  0  0  0  0  0  0  0  0
   19.4358   18.5168   23.6197 H   0  0  0  0  0  0  0  0  0  0  0  0
   20.9057   19.3723   23.1666 H   0  0  0  0  0  0  0  0  0  0  0  0
   19.0807   20.2266   22.3391 C   0  0  0  0  0  0  0  0  0  0  0  0
   18.8677   20.8500   23.2185 H   0  0  0  0  0  0  0  0  0  0  0  0
   18.1093   19.8745   21.9653 H   0  0  0  0  0  0  0  0  0  0  0  0
   19.7652   21.0986   21.2649 C   0  0  0  0  0  0  0  0  0  0  0  0
   19.8957   20.5480   20.3249 H   0  0  0  0  0  0  0  0  0  0  0  0
   20.7519   21.4388   21.6053 H   0  0  0  0  0  0  0  0  0  0  0  0
   19.1579   21.9869   21.0479 H   0  0  0  0  0  0  0  0  0  0  0  0
  1  2  1  0  0  0  0
  1  3  2  0  0  0  0
  1  4  1  0  0  0  0
  4  5  1  0  0  0  0
  4  6  1  0  0  0  0
  4  7  1  0  0  0  0
  7  8  1  0  0  0  0
  7  9  1  0  0  0  0
  7 10  1  0  0  0  0
 10 11  1  0  0  0  0
 10 12  1  0  0  0  0
 10 13  1  0  0  0  0
 13 14  1  0  0  0  0
 13 15  1  0  0  0  0
 13 16  1  0  0  0  0
M  END
> <VConfSearch Rank>
283

> <Conf_Id>
36

> <Delta U+W>
-0.427

> <U+W>
-57.331

> <U>
7.263

> <W>
-64.594

> <W(PB)>
-66.513

> <W(SA)>
1.920

> <Valence>
6.734

> <Coulomb>
-0.068

> <VdW>
0.598

> <VdW6>
-4.819

> <VdW12>
5.417

> <Bond>
0.107

> <Angle>
2.469

> <Pdih>
4.157

> <Idih>
0.001

> <Tether>
0.000

$$$$
VeraChem MOL file


 16 15  0  0  0  0  0  0  0  0999 V2000     
   21.7861   18.6430   23.7591 C   0  0  0  0  0  0  0  0  0  0  0  0
   22.8960   18.6667   23.2657 O   0  5  0  0  0  0  0  0  0  0  0  0
   21.5336   18.1047   24.8186 O   0  0  0  0  0  0  0  0  0  0  0  0
   20.6440   19.3074   22.9983 C   0  0  0  0  0  0  0  0  0  0  0  0
   21.0574   20.1667   22.4580 H   0  0  0  0  0  0  0  0  0  0  0  0
   19.9281   19.6978   23.7315 H   0  0  0  0  0  0  0  0  0  0  0  0
   19.9311   18.3394   22.0186 C   0  0  0  0  0  0  0  0  0  0  0  0
   20.6481   17.9883   21.2636 H   0  0  0  0  0  0  0  0  0  0  0  0
   19.6056   17.4497   22.5754 H   0  0  0  0  0  0  0  0  0  0  0  0
   18.7020   18.9655   21.3203 C   0  0  0  0  0  0  0  0  0  0  0  0
   17.9796   19.3060   22.0750 H   0  0  0  0  0  0  0  0  0  0  0  0
   18.1947   18.1872   20.7335 H   0  0  0  0  0  0  0  0  0  0  0  0
   19.0655   20.1374   20.3836 C   0  0  0  0  0  0  0  0  0  0  0  0
   19.4733   20.9875   20.9447 H   0  0  0  0  0  0  0  0  0  0  0  0
   18.1751   20.4900   19.8471 H   0  0  0  0  0  0  0  0  0  0  0  0
   19.8091   19.8279   19.6375 H   0  0  0  0  0  0  0  0  0  0  0  0
  1  2  1  0  0  0  0
  1  3  2  0  0  0  0
  1  4  1  0  0  0  0
  4  5  1  0  0  0  0
  4  6  1  0  0  0  0
  4  7  1  0  0  0  0
  7  8  1  0  0  0  0
  7  9  1  0  0  0  0
  7 10  1  0  0  0  0
 10 11  1  0  0  0  0
 10 12  1  0  0  0  0
 10 13  1  0  0  0  0
 13 14  1  0  0  0  0
 13 15  1  0  0  0  0
 13 16  1  0  0  0  0
M  END
> <VConfSearch Rank>
284

> <Conf_Id>
17

> <Delta U+W>
-0.432

> <U+W>
-57.336

> <U>
7.263

> <W>
-64.599

> <W(PB)>
-66.503

> <W(SA)>
1.904

> <Valence>
6.734

> <Coulomb>
-0.068

> <VdW>
0.598

> <VdW6>
-4.819

> <VdW12>
5.417

> <Bond>
0.107

> <Angle>
2.469

> <Pdih>
4.157

> <Idih>
0.001

> <Tether>
0.000

$$$$
VeraChem MOL file


 16 15  0  0  0  0  0  0  0  0999 V2000     
   19.4833   20.4371   20.2235 C   0  0  0  0  0  0  0  0  0  0  0  0
   19.0994   19.7753   19.2796 O   0  5  0  0  0  0  0  0  0  0  0  0
   18.8749   21.3915   20.6655 O   0  0  0  0  0  0  0  0  0  0  0  0
   20.8131   20.0625   20.8720 C   0  0  0  0  0  0  0  0  0  0  0  0
   21.1790   20.9236   21.4443 H   0  0  0  0  0  0  0  0  0  0  0  0
   21.5345   19.8888   20.0648 H   0  0  0  0  0  0  0  0  0  0  0  0
   20.7420   18.8077   21.7806 C   0  0  0  0  0  0  0  0  0  0  0  0
   20.3472   17.9610   21.2020 H   0  0  0  0  0  0  0  0  0  0  0  0
   21.7598   18.5328   22.0890 H   0  0  0  0  0  0  0  0  0  0  0  0
   19.8732   19.0328   23.0371 C   0  0  0  0  0  0  0  0  0  0  0  0
   18.8464   19.2887   22.7406 H   0  0  0  0  0  0  0  0  0  0  0  0
   20.2617   19.8874   23.6081 H   0  0  0  0  0  0  0  0  0  0  0  0
   19.8469   17.7828   23.9388 C   0  0  0  0  0  0  0  0  0  0  0  0
   19.4332   16.9196   23.4009 H   0  0  0  0  0  0  0  0  0  0  0  0
   19.2249   17.9591   24.8260 H   0  0  0  0  0  0  0  0  0  0  0  0
   20.8576   17.5226   24.2796 H   0  0  0  0  0  0  0  0  0  0  0  0
  1  2  1  0  0  0  0
  1  3  2  0  0  0  0
  1  4  1  0  0  0  0
  4  5  1  0  0  0  0
  4  6  1  0  0  0  0
  4  7  1  0  0  0  0
  7  8  1  0  0  0  0
  7  9  1  0  0  0  0
  7 10  1  0  0  0  0
 10 11  1  0  0  0  0
 10 12  1  0  0  0  0
 10 13  1  0  0  0  0
 13 14  1  0  0  0  0
 13 15  1  0  0  0  0
 13 16  1  0  0  0  0
M  END
> <VConfSearch Rank>
285

> <Conf_Id>
19

> <Delta U+W>
0.048

> <U+W>
-56.856

> <U>
8.276

> <W>
-65.132

> <W(PB)>
-67.031

> <W(SA)>
1.899

> <Valence>
6.513

> <Coulomb>
1.428

> <VdW>
0.335

> <VdW6>
-5.021

> <VdW12>
5.356

> <Bond>
0.092

> <Angle>
2.417

> <Pdih>
4.003

> <Idih>
0.001

> <Tether>
0.000

$$$$
VeraChem MOL file


 16 15  0  0  0  0  0  0  0  0999 V2000     
   20.4273   18.1153   24.1386 C   0  0  0  0  0  0  0  0  0  0  0  0
   21.2683   17.2456   24.0255 O   0  5  0  0  0  0  0  0  0  0  0  0
   19.3855   17.9665   24.7459 O   0  0  0  0  0  0  0  0  0  0  0  0
   20.7071   19.4743   23.5027 C   0  0  0  0  0  0  0  0  0  0  0  0
   21.7382   19.7487   23.7553 H   0  0  0  0  0  0  0  0  0  0  0  0
   20.0560   20.2217   23.9721 H   0  0  0  0  0  0  0  0  0  0  0  0
   20.5278   19.5004   21.9625 C   0  0  0  0  0  0  0  0  0  0  0  0
   20.8814   20.4670   21.5789 H   0  0  0  0  0  0  0  0  0  0  0  0
   21.1641   18.7280   21.5086 H   0  0  0  0  0  0  0  0  0  0  0  0
   19.0602   19.2884   21.5318 C   0  0  0  0  0  0  0  0  0  0  0  0
   18.4234   20.0540   21.9963 H   0  0  0  0  0  0  0  0  0  0  0  0
   18.7016   18.3144   21.8930 H   0  0  0  0  0  0  0  0  0  0  0  0
   18.9048   19.3526   19.9995 C   0  0  0  0  0  0  0  0  0  0  0  0
   19.2237   20.3293   19.6126 H   0  0  0  0  0  0  0  0  0  0  0  0
   17.8569   19.1992   19.7104 H   0  0  0  0  0  0  0  0  0  0  0  0
   19.5083   18.5763   19.5110 H   0  0  0  0  0  0  0  0  0  0  0  0
  1  2  1  0  0  0  0
  1  3  2  0  0  0  0
  1  4  1  0  0  0  0
  4  5  1  0  0  0  0
  4  6  1  0  0  0  0
  4  7  1  0  0  0  0
  7  8  1  0  0  0  0
  7  9  1  0  0  0  0
  7 10  1  0  0  0  0
 10 11  1  0  0  0  0
 10 12  1  0  0  0  0
 10 13  1  0  0  0  0
 13 14  1  0  0  0  0
 13 15  1  0  0  0  0
 13 16  1  0  0  0  0
M  END
> <VConfSearch Rank>
286

> <Conf_Id>
20

> <Delta U+W>
-0.010

> <U+W>
-56.914

> <U>
8.277

> <W>
-65.191

> <W(PB)>
-67.081

> <W(SA)>
1.890

> <Valence>
6.513

> <Coulomb>
1.429

> <VdW>
0.335

> <VdW6>
-5.021

> <VdW12>
5.356

> <Bond>
0.092

> <Angle>
2.417

> <Pdih>
4.002

> <Idih>
0.001

> <Tether>
0.000

$$$$
VeraChem MOL file


 16 15  0  0  0  0  0  0  0  0999 V2000     
   18.0991   20.2970   22.6383 C   0  0  0  0  0  0  0  0  0  0  0  0
   17.0679   20.2148   22.0005 O   0  5  0  0  0  0  0  0  0  0  0  0
   18.5975   21.3533   22.9732 O   0  0  0  0  0  0  0  0  0  0  0  0
   18.7840   19.0028   23.0692 C   0  0  0  0  0  0  0  0  0  0  0  0
   18.0219   18.3737   23.5438 H   0  0  0  0  0  0  0  0  0  0  0  0
   19.5209   19.2364   23.8461 H   0  0  0  0  0  0  0  0  0  0  0  0
   19.4463   18.2157   21.9053 C   0  0  0  0  0  0  0  0  0  0  0  0
   19.8413   17.2664   22.2915 H   0  0  0  0  0  0  0  0  0  0  0  0
   18.6715   17.9515   21.1724 H   0  0  0  0  0  0  0  0  0  0  0  0
   20.5791   18.9813   21.1810 C   0  0  0  0  0  0  0  0  0  0  0  0
   20.1881   19.9178   20.7595 H   0  0  0  0  0  0  0  0  0  0  0  0
   20.9229   18.3787   20.3291 H   0  0  0  0  0  0  0  0  0  0  0  0
   21.7859   19.2886   22.0929 C   0  0  0  0  0  0  0  0  0  0  0  0
   21.5130   19.9906   22.8912 H   0  0  0  0  0  0  0  0  0  0  0  0
   22.5983   19.7454   21.5131 H   0  0  0  0  0  0  0  0  0  0  0  0
   22.1739   18.3717   22.5555 H   0  0  0  0  0  0  0  0  0  0  0  0
  1  2  1  0  0  0  0
  1  3  2  0  0  0  0
  1  4  1  0  0  0  0
  4  5  1  0  0  0  0
  4  6  1  0  0  0  0
  4  7  1  0  0  0  0
  7  8  1  0  0  0  0
  7  9  1  0  0  0  0
  7 10  1  0  0  0  0
 10 11  1  0  0  0  0
 10 12  1  0  0  0  0
 10 13  1  0  0  0  0
 13 14  1  0  0  0  0
 13 15  1  0  0  0  0
 13 16  1  0  0  0  0
M  END
> <VConfSearch Rank>
287

> <Conf_Id>
37

> <Delta U+W>
1.063

> <U+W>
-55.841

> <U>
9.719

> <W>
-65.560

> <W(PB)>
-67.414

> <W(SA)>
1.854

> <Valence>
7.002

> <Coulomb>
2.402

> <VdW>
0.314

> <VdW6>
-5.861

> <VdW12>
6.175

> <Bond>
0.134

> <Angle>
2.733

> <Pdih>
4.133

> <Idih>
0.002

> <Tether>
0.000

$$$$
VeraChem MOL file


 16 15  0  0  0  0  0  0  0  0999 V2000     
   20.2441   17.4405   23.4892 C   0  0  0  0  0  0  0  0  0  0  0  0
   19.8058   16.3449   23.1989 O   0  5  0  0  0  0  0  0  0  0  0  0
   21.3392   17.6141   23.9860 O   0  0  0  0  0  0  0  0  0  0  0  0
   19.3558   18.6581   23.2477 C   0  0  0  0  0  0  0  0  0  0  0  0
   19.7685   19.5099   23.8002 H   0  0  0  0  0  0  0  0  0  0  0  0
   18.3787   18.4420   23.6955 H   0  0  0  0  0  0  0  0  0  0  0  0
   19.1644   19.0185   21.7490 C   0  0  0  0  0  0  0  0  0  0  0  0
   18.7002   18.1641   21.2372 H   0  0  0  0  0  0  0  0  0  0  0  0
   18.4522   19.8506   21.6668 H   0  0  0  0  0  0  0  0  0  0  0  0
   20.4718   19.3928   21.0111 C   0  0  0  0  0  0  0  0  0  0  0  0
   20.2441   19.5483   19.9475 H   0  0  0  0  0  0  0  0  0  0  0  0
   21.1806   18.5542   21.0561 H   0  0  0  0  0  0  0  0  0  0  0  0
   21.1418   20.6669   21.5682 C   0  0  0  0  0  0  0  0  0  0  0  0
   20.4422   21.5128   21.5672 H   0  0  0  0  0  0  0  0  0  0  0  0
   22.0089   20.9438   20.9548 H   0  0  0  0  0  0  0  0  0  0  0  0
   21.4978   20.5129   22.5949 H   0  0  0  0  0  0  0  0  0  0  0  0
  1  2  1  0  0  0  0
  1  3  2  0  0  0  0
  1  4  1  0  0  0  0
  4  5  1  0  0  0  0
  4  6  1  0  0  0  0
  4  7  1  0  0  0  0
  7  8  1  0  0  0  0
  7  9  1  0  0  0  0
  7 10  1  0  0  0  0
 10 11  1  0  0  0  0
 10 12  1  0  0  0  0
 10 13  1  0  0  0  0
 13 14  1  0  0  0  0
 13 15  1  0  0  0  0
 13 16  1  0  0  0  0
M  END
> <VConfSearch Rank>
288

> <Conf_Id>
39

> <Delta U+W>
1.129

> <U+W>
-55.775

> <U>
9.718

> <W>
-65.493

> <W(PB)>
-67.361

> <W(SA)>
1.869

> <Valence>
7.002

> <Coulomb>
2.402

> <VdW>
0.314

> <VdW6>
-5.861

> <VdW12>
6.175

> <Bond>
0.134

> <Angle>
2.734

> <Pdih>
4.133

> <Idih>
0.002

> <Tether>
0.000

$$$$
VeraChem MOL file


 16 15  0  0  0  0  0  0  0  0999 V2000     
   20.7615   18.1773   23.8256 C   0  0  0  0  0  0  0  0  0  0  0  0
   20.0307   18.1805   24.7965 O   0  5  0  0  0  0  0  0  0  0  0  0
   21.9304   18.5078   23.8676 O   0  0  0  0  0  0  0  0  0  0  0  0
   20.2052   17.6453   22.5061 C   0  0  0  0  0  0  0  0  0  0  0  0
   19.1697   17.3188   22.6612 H   0  0  0  0  0  0  0  0  0  0  0  0
   20.7846   16.7459   22.2670 H   0  0  0  0  0  0  0  0  0  0  0  0
   20.2844   18.6306   21.3062 C   0  0  0  0  0  0  0  0  0  0  0  0
   21.2725   19.1109   21.2806 H   0  0  0  0  0  0  0  0  0  0  0  0
   20.2091   18.0441   20.3805 H   0  0  0  0  0  0  0  0  0  0  0  0
   19.1705   19.7047   21.2763 C   0  0  0  0  0  0  0  0  0  0  0  0
   18.1845   19.2205   21.3039 H   0  0  0  0  0  0  0  0  0  0  0  0
   19.2262   20.2362   20.3162 H   0  0  0  0  0  0  0  0  0  0  0  0
   19.2721   20.7407   22.4150 C   0  0  0  0  0  0  0  0  0  0  0  0
   19.0578   20.2853   23.3895 H   0  0  0  0  0  0  0  0  0  0  0  0
   18.5471   21.5507   22.2629 H   0  0  0  0  0  0  0  0  0  0  0  0
   20.2749   21.1857   22.4548 H   0  0  0  0  0  0  0  0  0  0  0  0
  1  2  1  0  0  0  0
  1  3  2  0  0  0  0
  1  4  1  0  0  0  0
  4  5  1  0  0  0  0
  4  6  1  0  0  0  0
  4  7  1  0  0  0  0
  7  8  1  0  0  0  0
  7  9  1  0  0  0  0
  7 10  1  0  0  0  0
 10 11  1  0  0  0  0
 10 12  1  0  0  0  0
 10 13  1  0  0  0  0
 13 14  1  0  0  0  0
 13 15  1  0  0  0  0
 13 16  1  0  0  0  0
M  END
> <VConfSearch Rank>
289

> <Conf_Id>
47

> <Delta U+W>
2.301

> <U+W>
-54.603

> <U>
11.258

> <W>
-65.861

> <W(PB)>
-67.702

> <W(SA)>
1.841

> <Valence>
8.169

> <Coulomb>
2.735

> <VdW>
0.355

> <VdW6>
-6.245

> <VdW12>
6.600

> <Bond>
0.149

> <Angle>
3.168

> <Pdih>
4.840

> <Idih>
0.011

> <Tether>
0.000

$$$$
VeraChem MOL file


 16 15  0  0  0  0  0  0  0  0999 V2000     
   21.8529   19.2784   22.0492 C   0  0  0  0  0  0  0  0  0  0  0  0
   22.1747   20.4263   22.2856 O   0  5  0  0  0  0  0  0  0  0  0  0
   22.2423   18.6615   21.0773 O   0  0  0  0  0  0  0  0  0  0  0  0
   20.9876   18.5429   23.0709 C   0  0  0  0  0  0  0  0  0  0  0  0
   21.5673   18.5111   24.0008 H   0  0  0  0  0  0  0  0  0  0  0  0
   20.8584   17.5031   22.7466 H   0  0  0  0  0  0  0  0  0  0  0  0
   19.6047   19.1917   23.3603 C   0  0  0  0  0  0  0  0  0  0  0  0
   19.2485   18.8130   24.3279 H   0  0  0  0  0  0  0  0  0  0  0  0
   19.7190   20.2776   23.4837 H   0  0  0  0  0  0  0  0  0  0  0  0
   18.5142   18.8888   22.3046 C   0  0  0  0  0  0  0  0  0  0  0  0
   17.5509   19.2554   22.6853 H   0  0  0  0  0  0  0  0  0  0  0  0
   18.4043   17.8023   22.1829 H   0  0  0  0  0  0  0  0  0  0  0  0
   18.7771   19.5409   20.9313 C   0  0  0  0  0  0  0  0  0  0  0  0
   17.9098   19.4095   20.2716 H   0  0  0  0  0  0  0  0  0  0  0  0
   19.6422   19.0870   20.4327 H   0  0  0  0  0  0  0  0  0  0  0  0
   18.9643   20.6176   21.0356 H   0  0  0  0  0  0  0  0  0  0  0  0
  1  2  1  0  0  0  0
  1  3  2  0  0  0  0
  1  4  1  0  0  0  0
  4  5  1  0  0  0  0
  4  6  1  0  0  0  0
  4  7  1  0  0  0  0
  7  8  1  0  0  0  0
  7  9  1  0  0  0  0
  7 10  1  0  0  0  0
 10 11  1  0  0  0  0
 10 12  1  0  0  0  0
 10 13  1  0  0  0  0
 13 14  1  0  0  0  0
 13 15  1  0  0  0  0
 13 16  1  0  0  0  0
M  END
> <VConfSearch Rank>
290

> <Conf_Id>
45

> <Delta U+W>
2.303

> <U+W>
-54.601

> <U>
11.258

> <W>
-65.860

> <W(PB)>
-67.709

> <W(SA)>
1.849

> <Valence>
8.169

> <Coulomb>
2.735

> <VdW>
0.355

> <VdW6>
-6.245

> <VdW12>
6.600

> <Bond>
0.149

> <Angle>
3.168

> <Pdih>
4.840

> <Idih>
0.011

> <Tether>
0.000

$$$$
VeraChem MOL file


 16 15  0  0  0  0  0  0  0  0999 V2000     
   17.6017   17.7549   21.8568 C   0  0  0  0  0  0  0  0  0  0  0  0
   18.0536   16.7429   22.3562 O   0  5  0  0  0  0  0  0  0  0  0  0
   16.4388   17.8671   21.5246 O   0  0  0  0  0  0  0  0  0  0  0  0
   18.5143   18.9599   21.6223 C   0  0  0  0  0  0  0  0  0  0  0  0
   18.0762   19.8111   22.1568 H   0  0  0  0  0  0  0  0  0  0  0  0
   18.4741   19.1977   20.5528 H   0  0  0  0  0  0  0  0  0  0  0  0
   19.9906   18.7698   22.0613 C   0  0  0  0  0  0  0  0  0  0  0  0
   20.0242   18.5264   23.1323 H   0  0  0  0  0  0  0  0  0  0  0  0
   20.4225   17.9124   21.5266 H   0  0  0  0  0  0  0  0  0  0  0  0
   20.8369   20.0311   21.7889 C   0  0  0  0  0  0  0  0  0  0  0  0
   20.4070   20.8890   22.3245 H   0  0  0  0  0  0  0  0  0  0  0  0
   20.8056   20.2746   20.7178 H   0  0  0  0  0  0  0  0  0  0  0  0
   22.3019   19.8362   22.2269 C   0  0  0  0  0  0  0  0  0  0  0  0
   22.3652   19.6220   23.3019 H   0  0  0  0  0  0  0  0  0  0  0  0
   22.8894   20.7416   22.0264 H   0  0  0  0  0  0  0  0  0  0  0  0
   22.7668   19.0031   21.6834 H   0  0  0  0  0  0  0  0  0  0  0  0
  1  2  1  0  0  0  0
  1  3  2  0  0  0  0
  1  4  1  0  0  0  0
  4  5  1  0  0  0  0
  4  6  1  0  0  0  0
  4  7  1  0  0  0  0
  7  8  1  0  0  0  0
  7  9  1  0  0  0  0
  7 10  1  0  0  0  0
 10 11  1  0  0  0  0
 10 12  1  0  0  0  0
 10 13  1  0  0  0  0
 13 14  1  0  0  0  0
 13 15  1  0  0  0  0
 13 16  1  0  0  0  0
M  END
> <VConfSearch Rank>
291

> <Conf_Id>
0

> <Delta U+W>
0.000

> <U+W>
-56.904

> <U>
7.329

> <W>
-64.233

> <W(PB)>
-66.148

> <W(SA)>
1.915

> <Valence>
6.755

> <Coulomb>
-0.421

> <VdW>
0.995

> <VdW6>
-4.495

> <VdW12>
5.490

> <Bond>
0.106

> <Angle>
2.715

> <Pdih>
3.934

> <Idih>
0.000

> <Tether>
0.000

$$$$
VeraChem MOL file


 16 15  0  0  0  0  0  0  0  0999 V2000     
   19.9367   21.6590   22.9536 C   0  0  0  0  0  0  0  0  0  0  0  0
   20.6616   21.8552   23.9085 O   0  5  0  0  0  0  0  0  0  0  0  0
   19.6413   22.5175   22.1465 O   0  0  0  0  0  0  0  0  0  0  0  0
   19.3820   20.2540   22.7467 C   0  0  0  0  0  0  0  0  0  0  0  0
   18.3935   20.3429   22.2801 H   0  0  0  0  0  0  0  0  0  0  0  0
   19.2348   19.7968   23.7327 H   0  0  0  0  0  0  0  0  0  0  0  0
   20.3043   19.3637   21.8779 C   0  0  0  0  0  0  0  0  0  0  0  0
   20.4520   19.8406   20.8989 H   0  0  0  0  0  0  0  0  0  0  0  0
   21.2934   19.2946   22.3516 H   0  0  0  0  0  0  0  0  0  0  0  0
   19.7202   17.9488   21.6843 C   0  0  0  0  0  0  0  0  0  0  0  0
   18.7314   18.0175   21.2099 H   0  0  0  0  0  0  0  0  0  0  0  0
   19.5730   17.4713   22.6630 H   0  0  0  0  0  0  0  0  0  0  0  0
   20.6433   17.0685   20.8188 C   0  0  0  0  0  0  0  0  0  0  0  0
   21.6307   16.9569   21.2858 H   0  0  0  0  0  0  0  0  0  0  0  0
   20.7829   17.5071   19.8220 H   0  0  0  0  0  0  0  0  0  0  0  0
   20.2136   16.0664   20.6909 H   0  0  0  0  0  0  0  0  0  0  0  0
  1  2  1  0  0  0  0
  1  3  2  0  0  0  0
  1  4  1  0  0  0  0
  4  5  1  0  0  0  0
  4  6  1  0  0  0  0
  4  7  1  0  0  0  0
  7  8  1  0  0  0  0
  7  9  1  0  0  0  0
  7 10  1  0  0  0  0
 10 11  1  0  0  0  0
 10 12  1  0  0  0  0
 10 13  1  0  0  0  0
 13 14  1  0  0  0  0
 13 15  1  0  0  0  0
 13 16  1  0  0  0  0
M  END
> <VConfSearch Rank>
292

> <Conf_Id>
22

> <Delta U+W>
-1.185

> <U+W>
-58.089

> <U>
6.298

> <W>
-64.387

> <W(PB)>
-66.329

> <W(SA)>
1.942

> <Valence>
6.246

> <Coulomb>
-0.408

> <VdW>
0.460

> <VdW6>
-4.207

> <VdW12>
4.667

> <Bond>
0.072

> <Angle>
2.246

> <Pdih>
3.928

> <Idih>
0.001

> <Tether>
0.000

$$$$
VeraChem MOL file


 16 15  0  0  0  0  0  0  0  0999 V2000     
   18.1747   18.6295   23.7861 C   0  0  0  0  0  0  0  0  0  0  0  0
   17.5706   19.5053   24.3726 O   0  5  0  0  0  0  0  0  0  0  0  0
   18.2882   17.4951   24.2060 O   0  0  0  0  0  0  0  0  0  0  0  0
   18.8435   18.9785   22.4612 C   0  0  0  0  0  0  0  0  0  0  0  0
   18.2366   19.7453   21.9650 H   0  0  0  0  0  0  0  0  0  0  0  0
   18.8186   18.0842   21.8282 H   0  0  0  0  0  0  0  0  0  0  0  0
   20.3000   19.4813   22.6371 C   0  0  0  0  0  0  0  0  0  0  0  0
   20.3003   20.3225   23.3441 H   0  0  0  0  0  0  0  0  0  0  0  0
   20.9081   18.6895   23.0960 H   0  0  0  0  0  0  0  0  0  0  0  0
   20.9555   19.9432   21.3152 C   0  0  0  0  0  0  0  0  0  0  0  0
   21.9365   20.3830   21.5423 H   0  0  0  0  0  0  0  0  0  0  0  0
   20.3537   20.7432   20.8621 H   0  0  0  0  0  0  0  0  0  0  0  0
   21.1469   18.7980   20.2980 C   0  0  0  0  0  0  0  0  0  0  0  0
   20.1832   18.4016   19.9545 H   0  0  0  0  0  0  0  0  0  0  0  0
   21.7219   17.9731   20.7388 H   0  0  0  0  0  0  0  0  0  0  0  0
   21.6924   19.1562   19.4153 H   0  0  0  0  0  0  0  0  0  0  0  0
  1  2  1  0  0  0  0
  1  3  2  0  0  0  0
  1  4  1  0  0  0  0
  4  5  1  0  0  0  0
  4  6  1  0  0  0  0
  4  7  1  0  0  0  0
  7  8  1  0  0  0  0
  7  9  1  0  0  0  0
  7 10  1  0  0  0  0
 10 11  1  0  0  0  0
 10 12  1  0  0  0  0
 10 13  1  0  0  0  0
 13 14  1  0  0  0  0
 13 15  1  0  0  0  0
 13 16  1  0  0  0  0
M  END
> <VConfSearch Rank>
293

> <Conf_Id>
36

> <Delta U+W>
-0.427

> <U+W>
-57.331

> <U>
7.263

> <W>
-64.594

> <W(PB)>
-66.513

> <W(SA)>
1.920

> <Valence>
6.734

> <Coulomb>
-0.068

> <VdW>
0.598

> <VdW6>
-4.819

> <VdW12>
5.417

> <Bond>
0.107

> <Angle>
2.469

> <Pdih>
4.157

> <Idih>
0.001

> <Tether>
0.000

$$$$
VeraChem MOL file


 16 15  0  0  0  0  0  0  0  0999 V2000     
   21.2463   17.5665   23.5941 C   0  0  0  0  0  0  0  0  0  0  0  0
   22.4137   17.4673   23.2726 O   0  5  0  0  0  0  0  0  0  0  0  0
   20.6786   16.7709   24.3157 O   0  0  0  0  0  0  0  0  0  0  0  0
   20.4446   18.7420   23.0463 C   0  0  0  0  0  0  0  0  0  0  0  0
   21.1272   19.5931   22.9428 H   0  0  0  0  0  0  0  0  0  0  0  0
   19.6913   19.0181   23.7938 H   0  0  0  0  0  0  0  0  0  0  0  0
   19.7610   18.4238   21.6911 C   0  0  0  0  0  0  0  0  0  0  0  0
   20.5278   18.1904   20.9396 H   0  0  0  0  0  0  0  0  0  0  0  0
   19.1528   17.5160   21.8068 H   0  0  0  0  0  0  0  0  0  0  0  0
   18.8553   19.5660   21.1756 C   0  0  0  0  0  0  0  0  0  0  0  0
   18.0812   19.7916   21.9221 H   0  0  0  0  0  0  0  0  0  0  0  0
   18.3280   19.2199   20.2760 H   0  0  0  0  0  0  0  0  0  0  0  0
   19.6352   20.8529   20.8313 C   0  0  0  0  0  0  0  0  0  0  0  0
   20.0873   21.2992   21.7259 H   0  0  0  0  0  0  0  0  0  0  0  0
   18.9645   21.6012   20.3896 H   0  0  0  0  0  0  0  0  0  0  0  0
   20.4343   20.6462   20.1074 H   0  0  0  0  0  0  0  0  0  0  0  0
  1  2  1  0  0  0  0
  1  3  2  0  0  0  0
  1  4  1  0  0  0  0
  4  5  1  0  0  0  0
  4  6  1  0  0  0  0
  4  7  1  0  0  0  0
  7  8  1  0  0  0  0
  7  9  1  0  0  0  0
  7 10  1  0  0  0  0
 10 11  1  0  0  0  0
 10 12  1  0  0  0  0
 10 13  1  0  0  0  0
 13 14  1  0  0  0  0
 13 15  1  0  0  0  0
 13 16  1  0  0  0  0
M  END
> <VConfSearch Rank>
294

> <Conf_Id>
17

> <Delta U+W>
-0.432

> <U+W>
-57.336

> <U>
7.263

> <W>
-64.599

> <W(PB)>
-66.503

> <W(SA)>
1.904

> <Valence>
6.734

> <Coulomb>
-0.068

> <VdW>
0.598

> <VdW6>
-4.819

> <VdW12>
5.417

> <Bond>
0.107

> <Angle>
2.469

> <Pdih>
4.157

> <Idih>
0.001

> <Tether>
0.000

$$$$
VeraChem MOL file


 16 15  0  0  0  0  0  0  0  0999 V2000     
   18.7094   20.4812   23.4177 C   0  0  0  0  0  0  0  0  0  0  0  0
   19.0411   20.5375   24.5853 O   0  5  0  0  0  0  0  0  0  0  0  0
   18.4390   21.4589   22.7490 O   0  0  0  0  0  0  0  0  0  0  0  0
   18.6041   19.1056   22.7649 C   0  0  0  0  0  0  0  0  0  0  0  0
   17.9799   19.1905   21.8670 H   0  0  0  0  0  0  0  0  0  0  0  0
   18.0681   18.4513   23.4627 H   0  0  0  0  0  0  0  0  0  0  0  0
   19.9724   18.4694   22.4070 C   0  0  0  0  0  0  0  0  0  0  0  0
   20.5969   18.4170   23.3097 H   0  0  0  0  0  0  0  0  0  0  0  0
   19.8087   17.4351   22.0754 H   0  0  0  0  0  0  0  0  0  0  0  0
   20.7172   19.2466   21.3001 C   0  0  0  0  0  0  0  0  0  0  0  0
   20.9048   20.2782   21.6292 H   0  0  0  0  0  0  0  0  0  0  0  0
   20.0866   19.3088   20.4024 H   0  0  0  0  0  0  0  0  0  0  0  0
   22.0571   18.5747   20.9401 C   0  0  0  0  0  0  0  0  0  0  0  0
   22.7198   18.5275   21.8142 H   0  0  0  0  0  0  0  0  0  0  0  0
   22.5737   19.1396   20.1532 H   0  0  0  0  0  0  0  0  0  0  0  0
   21.8982   17.5518   20.5743 H   0  0  0  0  0  0  0  0  0  0  0  0
  1  2  1  0  0  0  0
  1  3  2  0  0  0  0
  1  4  1  0  0  0  0
  4  5  1  0  0  0  0
  4  6  1  0  0  0  0
  4  7  1  0  0  0  0
  7  8  1  0  0  0  0
  7  9  1  0  0  0  0
  7 10  1  0  0  0  0
 10 11  1  0  0  0  0
 10 12  1  0  0  0  0
 10 13  1  0  0  0  0
 13 14  1  0  0  0  0
 13 15  1  0  0  0  0
 13 16  1  0  0  0  0
M  END
> <VConfSearch Rank>
295

> <Conf_Id>
19

> <Delta U+W>
0.048

> <U+W>
-56.856

> <U>
8.276

> <W>
-65.132

> <W(PB)>
-67.031

> <W(SA)>
1.899

> <Valence>
6.513

> <Coulomb>
1.428

> <VdW>
0.335

> <VdW6>
-5.021

> <VdW12>
5.356

> <Bond>
0.092

> <Angle>
2.417

> <Pdih>
4.003

> <Idih>
0.001

> <Tether>
0.000

$$$$
VeraChem MOL file


 16 15  0  0  0  0  0  0  0  0999 V2000     
   19.3225   17.8769   20.1765 C   0  0  0  0  0  0  0  0  0  0  0  0
   19.0628   18.5485   19.1978 O   0  5  0  0  0  0  0  0  0  0  0  0
   18.6272   16.9592   20.5644 O   0  0  0  0  0  0  0  0  0  0  0  0
   20.6037   18.1897   20.9448 C   0  0  0  0  0  0  0  0  0  0  0  0
   21.4051   18.3187   20.2077 H   0  0  0  0  0  0  0  0  0  0  0  0
   20.8698   17.3166   21.5529 H   0  0  0  0  0  0  0  0  0  0  0  0
   20.5130   19.4552   21.8366 C   0  0  0  0  0  0  0  0  0  0  0  0
   21.5104   19.6809   22.2375 H   0  0  0  0  0  0  0  0  0  0  0  0
   20.2180   20.3153   21.2195 H   0  0  0  0  0  0  0  0  0  0  0  0
   19.5204   19.2867   23.0074 C   0  0  0  0  0  0  0  0  0  0  0  0
   19.8095   18.4190   23.6164 H   0  0  0  0  0  0  0  0  0  0  0  0
   18.5139   19.0805   22.6173 H   0  0  0  0  0  0  0  0  0  0  0  0
   19.4747   20.5452   23.8965 C   0  0  0  0  0  0  0  0  0  0  0  0
   20.4613   20.7569   24.3292 H   0  0  0  0  0  0  0  0  0  0  0  0
   18.7644   20.4093   24.7225 H   0  0  0  0  0  0  0  0  0  0  0  0
   19.1580   21.4230   23.3181 H   0  0  0  0  0  0  0  0  0  0  0  0
  1  2  1  0  0  0  0
  1  3  2  0  0  0  0
  1  4  1  0  0  0  0
  4  5  1  0  0  0  0
  4  6  1  0  0  0  0
  4  7  1  0  0  0  0
  7  8  1  0  0  0  0
  7  9  1  0  0  0  0
  7 10  1  0  0  0  0
 10 11  1  0  0  0  0
 10 12  1  0  0  0  0
 10 13  1  0  0  0  0
 13 14  1  0  0  0  0
 13 15  1  0  0  0  0
 13 16  1  0  0  0  0
M  END
> <VConfSearch Rank>
296

> <Conf_Id>
20

> <Delta U+W>
-0.010

> <U+W>
-56.914

> <U>
8.277

> <W>
-65.191

> <W(PB)>
-67.081

> <W(SA)>
1.890

> <Valence>
6.513

> <Coulomb>
1.429

> <VdW>
0.335

> <VdW6>
-5.021

> <VdW12>
5.356

> <Bond>
0.092

> <Angle>
2.417

> <Pdih>
4.002

> <Idih>
0.001

> <Tether>
0.000

$$$$
VeraChem MOL file


 16 15  0  0  0  0  0  0  0  0999 V2000     
   18.3867   18.0550   23.2742 C   0  0  0  0  0  0  0  0  0  0  0  0
   17.1912   18.2321   23.1467 O   0  5  0  0  0  0  0  0  0  0  0  0
   18.9391   17.9611   24.3523 O   0  0  0  0  0  0  0  0  0  0  0  0
   19.2314   17.9093   22.0113 C   0  0  0  0  0  0  0  0  0  0  0  0
   18.7410   17.1623   21.3761 H   0  0  0  0  0  0  0  0  0  0  0  0
   20.2062   17.4905   22.2862 H   0  0  0  0  0  0  0  0  0  0  0  0
   19.4084   19.2274   21.2089 C   0  0  0  0  0  0  0  0  0  0  0  0
   19.9571   19.0137   20.2817 H   0  0  0  0  0  0  0  0  0  0  0  0
   18.4173   19.5903   20.9035 H   0  0  0  0  0  0  0  0  0  0  0  0
   20.1359   20.3524   21.9829 C   0  0  0  0  0  0  0  0  0  0  0  0
   19.5775   20.6000   22.8964 H   0  0  0  0  0  0  0  0  0  0  0  0
   20.1370   21.2612   21.3655 H   0  0  0  0  0  0  0  0  0  0  0  0
   21.5928   19.9964   22.3477 C   0  0  0  0  0  0  0  0  0  0  0  0
   21.6321   19.1666   23.0649 H   0  0  0  0  0  0  0  0  0  0  0  0
   22.0940   20.8572   22.8090 H   0  0  0  0  0  0  0  0  0  0  0  0
   22.1640   19.7103   21.4550 H   0  0  0  0  0  0  0  0  0  0  0  0
  1  2  1  0  0  0  0
  1  3  2  0  0  0  0
  1  4  1  0  0  0  0
  4  5  1  0  0  0  0
  4  6  1  0  0  0  0
  4  7  1  0  0  0  0
  7  8  1  0  0  0  0
  7  9  1  0  0  0  0
  7 10  1  0  0  0  0
 10 11  1  0  0  0  0
 10 12  1  0  0  0  0
 10 13  1  0  0  0  0
 13 14  1  0  0  0  0
 13 15  1  0  0  0  0
 13 16  1  0  0  0  0
M  END
> <VConfSearch Rank>
297

> <Conf_Id>
37

> <Delta U+W>
1.063

> <U+W>
-55.841

> <U>
9.719

> <W>
-65.560

> <W(PB)>
-67.414

> <W(SA)>
1.854

> <Valence>
7.002

> <Coulomb>
2.402

> <VdW>
0.314

> <VdW6>
-5.861

> <VdW12>
6.175

> <Bond>
0.134

> <Angle>
2.733

> <Pdih>
4.133

> <Idih>
0.002

> <Tether>
0.000

$$$$
VeraChem MOL file


 16 15  0  0  0  0  0  0  0  0999 V2000     
   21.2932   17.5828   23.1056 C   0  0  0  0  0  0  0  0  0  0  0  0
   20.9535   17.0255   24.1307 O   0  5  0  0  0  0  0  0  0  0  0  0
   21.7027   16.9925   22.1258 O   0  0  0  0  0  0  0  0  0  0  0  0
   21.2341   19.1074   23.0618 C   0  0  0  0  0  0  0  0  0  0  0  0
   21.8162   19.4576   22.2018 H   0  0  0  0  0  0  0  0  0  0  0  0
   21.7481   19.4789   23.9561 H   0  0  0  0  0  0  0  0  0  0  0  0
   19.7936   19.6871   23.0206 C   0  0  0  0  0  0  0  0  0  0  0  0
   19.2564   19.3614   23.9220 H   0  0  0  0  0  0  0  0  0  0  0  0
   19.8449   20.7831   23.0719 H   0  0  0  0  0  0  0  0  0  0  0  0
   18.9752   19.2737   21.7743 C   0  0  0  0  0  0  0  0  0  0  0  0
   17.9529   19.6623   21.8792 H   0  0  0  0  0  0  0  0  0  0  0  0
   18.8869   18.1792   21.7304 H   0  0  0  0  0  0  0  0  0  0  0  0
   19.5739   19.7978   20.4517 C   0  0  0  0  0  0  0  0  0  0  0  0
   19.7058   20.8871   20.4830 H   0  0  0  0  0  0  0  0  0  0  0  0
   18.9104   19.5610   19.6099 H   0  0  0  0  0  0  0  0  0  0  0  0
   20.5483   19.3367   20.2455 H   0  0  0  0  0  0  0  0  0  0  0  0
  1  2  1  0  0  0  0
  1  3  2  0  0  0  0
  1  4  1  0  0  0  0
  4  5  1  0  0  0  0
  4  6  1  0  0  0  0
  4  7  1  0  0  0  0
  7  8  1  0  0  0  0
  7  9  1  0  0  0  0
  7 10  1  0  0  0  0
 10 11  1  0  0  0  0
 10 12  1  0  0  0  0
 10 13  1  0  0  0  0
 13 14  1  0  0  0  0
 13 15  1  0  0  0  0
 13 16  1  0  0  0  0
M  END
> <VConfSearch Rank>
298

> <Conf_Id>
39

> <Delta U+W>
1.129

> <U+W>
-55.775

> <U>
9.718

> <W>
-65.493

> <W(PB)>
-67.361

> <W(SA)>
1.869

> <Valence>
7.002

> <Coulomb>
2.402

> <VdW>
0.314

> <VdW6>
-5.861

> <VdW12>
6.175

> <Bond>
0.134

> <Angle>
2.734

> <Pdih>
4.133

> <Idih>
0.002

> <Tether>
0.000

$$$$
VeraChem MOL file


 16 15  0  0  0  0  0  0  0  0999 V2000     
   19.3968   17.6087   21.0188 C   0  0  0  0  0  0  0  0  0  0  0  0
   19.6826   17.8898   19.8716 O   0  5  0  0  0  0  0  0  0  0  0  0
   18.3125   17.1706   21.3497 O   0  0  0  0  0  0  0  0  0  0  0  0
   20.4863   17.7278   22.0830 C   0  0  0  0  0  0  0  0  0  0  0  0
   21.4167   18.0586   21.6057 H   0  0  0  0  0  0  0  0  0  0  0  0
   20.6684   16.7122   22.4535 H   0  0  0  0  0  0  0  0  0  0  0  0
   20.1417   18.6498   23.2864 C   0  0  0  0  0  0  0  0  0  0  0  0
   19.1182   18.4479   23.6318 H   0  0  0  0  0  0  0  0  0  0  0  0
   20.8019   18.3784   24.1213 H   0  0  0  0  0  0  0  0  0  0  0  0
   20.3222   20.1628   23.0148 C   0  0  0  0  0  0  0  0  0  0  0  0
   21.3459   20.3600   22.6679 H   0  0  0  0  0  0  0  0  0  0  0  0
   20.2094   20.7021   23.9654 H   0  0  0  0  0  0  0  0  0  0  0  0
   19.3109   20.7398   22.0025 C   0  0  0  0  0  0  0  0  0  0  0  0
   19.4914   20.3522   20.9925 H   0  0  0  0  0  0  0  0  0  0  0  0
   19.3956   21.8332   21.9561 H   0  0  0  0  0  0  0  0  0  0  0  0
   18.2807   20.4909   22.2890 H   0  0  0  0  0  0  0  0  0  0  0  0
  1  2  1  0  0  0  0
  1  3  2  0  0  0  0
  1  4  1  0  0  0  0
  4  5  1  0  0  0  0
  4  6  1  0  0  0  0
  4  7  1  0  0  0  0
  7  8  1  0  0  0  0
  7  9  1  0  0  0  0
  7 10  1  0  0  0  0
 10 11  1  0  0  0  0
 10 12  1  0  0  0  0
 10 13  1  0  0  0  0
 13 14  1  0  0  0  0
 13 15  1  0  0  0  0
 13 16  1  0  0  0  0
M  END
> <VConfSearch Rank>
299

> <Conf_Id>
47

> <Delta U+W>
2.301

> <U+W>
-54.603

> <U>
11.258

> <W>
-65.861

> <W(PB)>
-67.702

> <W(SA)>
1.841

> <Valence>
8.169

> <Coulomb>
2.735

> <VdW>
0.355

> <VdW6>
-6.245

> <VdW12>
6.600

> <Bond>
0.149

> <Angle>
3.168

> <Pdih>
4.840

> <Idih>
0.011

> <Tether>
0.000

$$$$
VeraChem MOL file


 16 15  0  0  0  0  0  0  0  0999 V2000     
   20.7799   19.2651   20.4929 C   0  0  0  0  0  0  0  0  0  0  0  0
   20.4778   20.3310   19.9931 O   0  5  0  0  0  0  0  0  0  0  0  0
   20.7462   18.2105   19.8900 O   0  0  0  0  0  0  0  0  0  0  0  0
   21.3151   19.2608   21.9237 C   0  0  0  0  0  0  0  0  0  0  0  0
   22.2315   19.8623   21.9124 H   0  0  0  0  0  0  0  0  0  0  0  0
   21.6138   18.2396   22.1899 H   0  0  0  0  0  0  0  0  0  0  0  0
   20.3477   19.8352   22.9967 C   0  0  0  0  0  0  0  0  0  0  0  0
   20.9440   20.1154   23.8755 H   0  0  0  0  0  0  0  0  0  0  0  0
   19.8922   20.7658   22.6305 H   0  0  0  0  0  0  0  0  0  0  0  0
   19.2469   18.8540   23.4669 C   0  0  0  0  0  0  0  0  0  0  0  0
   18.7293   19.2994   24.3277 H   0  0  0  0  0  0  0  0  0  0  0  0
   19.7061   17.9244   23.8304 H   0  0  0  0  0  0  0  0  0  0  0  0
   18.1991   18.5259   22.3829 C   0  0  0  0  0  0  0  0  0  0  0  0
   17.3735   17.9430   22.8110 H   0  0  0  0  0  0  0  0  0  0  0  0
   18.6365   17.9313   21.5716 H   0  0  0  0  0  0  0  0  0  0  0  0
   17.7786   19.4433   21.9507 H   0  0  0  0  0  0  0  0  0  0  0  0
  1  2  1  0  0  0  0
  1  3  2  0  0  0  0
  1  4  1  0  0  0  0
  4  5  1  0  0  0  0
  4  6  1  0  0  0  0
  4  7  1  0  0  0  0
  7  8  1  0  0  0  0
  7  9  1  0  0  0  0
  7 10  1  0  0  0  0
 10 11  1  0  0  0  0
 10 12  1  0  0  0  0
 10 13  1  0  0  0  0
 13 14  1  0  0  0  0
 13 15  1  0  0  0  0
 13 16  1  0  0  0  0
M  END
> <VConfSearch Rank>
300

> <Conf_Id>
45

> <Delta U+W>
2.303

> <U+W>
-54.601

> <U>
11.258

> <W>
-65.860

> <W(PB)>
-67.709

> <W(SA)>
1.849

> <Valence>
8.169

> <Coulomb>
2.735

> <VdW>
0.355

> <VdW6>
-6.245

> <VdW12>
6.600

> <Bond>
0.149

> <Angle>
3.168

> <Pdih>
4.840

> <Idih>
0.011

> <Tether>
0.000

$$$$
VeraChem MOL file


 16 15  0  0  0  0  0  0  0  0999 V2000     
   22.5400   18.0561   21.7919 C   0  0  0  0  0  0  0  0  0  0  0  0
   22.1912   16.9353   22.1081 O   0  5  0  0  0  0  0  0  0  0  0  0
   23.6940   18.3465   21.5486 O   0  0  0  0  0  0  0  0  0  0  0  0
   21.5015   19.1743   21.6873 C   0  0  0  0  0  0  0  0  0  0  0  0
   21.5559   19.5771   20.6690 H   0  0  0  0  0  0  0  0  0  0  0  0
   21.8144   19.9761   22.3665 H   0  0  0  0  0  0  0  0  0  0  0  0
   20.0416   18.7566   22.0078 C   0  0  0  0  0  0  0  0  0  0  0  0
   19.7357   17.9494   21.3279 H   0  0  0  0  0  0  0  0  0  0  0  0
   19.9945   18.3488   23.0271 H   0  0  0  0  0  0  0  0  0  0  0  0
   19.0639   19.9433   21.8778 C   0  0  0  0  0  0  0  0  0  0  0  0
   19.1088   20.3509   20.8583 H   0  0  0  0  0  0  0  0  0  0  0  0
   19.3677   20.7506   22.5585 H   0  0  0  0  0  0  0  0  0  0  0  0
   17.6158   19.5222   22.1973 C   0  0  0  0  0  0  0  0  0  0  0  0
   17.2747   18.7366   21.5103 H   0  0  0  0  0  0  0  0  0  0  0  0
   16.9340   20.3770   22.1002 H   0  0  0  0  0  0  0  0  0  0  0  0
   17.5355   19.1392   23.2231 H   0  0  0  0  0  0  0  0  0  0  0  0
  1  2  1  0  0  0  0
  1  3  2  0  0  0  0
  1  4  1  0  0  0  0
  4  5  1  0  0  0  0
  4  6  1  0  0  0  0
  4  7  1  0  0  0  0
  7  8  1  0  0  0  0
  7  9  1  0  0  0  0
  7 10  1  0  0  0  0
 10 11  1  0  0  0  0
 10 12  1  0  0  0  0
 10 13  1  0  0  0  0
 13 14  1  0  0  0  0
 13 15  1  0  0  0  0
 13 16  1  0  0  0  0
M  END
> <VConfSearch Rank>
301

> <Conf_Id>
0

> <Delta U+W>
0.000

> <U+W>
-56.904

> <U>
7.329

> <W>
-64.233

> <W(PB)>
-66.148

> <W(SA)>
1.915

> <Valence>
6.755

> <Coulomb>
-0.421

> <VdW>
0.995

> <VdW6>
-4.495

> <VdW12>
5.490

> <Bond>
0.106

> <Angle>
2.715

> <Pdih>
3.934

> <Idih>
0.000

> <Tether>
0.000

$$$$
VeraChem MOL file


 16 15  0  0  0  0  0  0  0  0999 V2000     
   18.5576   21.1949   22.9334 C   0  0  0  0  0  0  0  0  0  0  0  0
   19.1399   21.8987   23.7343 O   0  5  0  0  0  0  0  0  0  0  0  0
   17.6883   21.6018   22.1886 O   0  0  0  0  0  0  0  0  0  0  0  0
   18.9519   19.7248   22.8455 C   0  0  0  0  0  0  0  0  0  0  0  0
   18.0601   19.1483   22.5711 H   0  0  0  0  0  0  0  0  0  0  0  0
   19.2569   19.3931   23.8454 H   0  0  0  0  0  0  0  0  0  0  0  0
   20.0893   19.4656   21.8271 C   0  0  0  0  0  0  0  0  0  0  0  0
   19.7736   19.8141   20.8339 H   0  0  0  0  0  0  0  0  0  0  0  0
   20.9704   20.0590   22.1082 H   0  0  0  0  0  0  0  0  0  0  0  0
   20.4687   17.9717   21.7578 C   0  0  0  0  0  0  0  0  0  0  0  0
   19.5879   17.3781   21.4761 H   0  0  0  0  0  0  0  0  0  0  0  0
   20.7850   17.6230   22.7507 H   0  0  0  0  0  0  0  0  0  0  0  0
   21.6010   17.7213   20.7424 C   0  0  0  0  0  0  0  0  0  0  0  0
   22.5058   18.2791   21.0175 H   0  0  0  0  0  0  0  0  0  0  0  0
   21.2998   18.0324   19.7335 H   0  0  0  0  0  0  0  0  0  0  0  0
   21.8586   16.6548   20.7054 H   0  0  0  0  0  0  0  0  0  0  0  0
  1  2  1  0  0  0  0
  1  3  2  0  0  0  0
  1  4  1  0  0  0  0
  4  5  1  0  0  0  0
  4  6  1  0  0  0  0
  4  7  1  0  0  0  0
  7  8  1  0  0  0  0
  7  9  1  0  0  0  0
  7 10  1  0  0  0  0
 10 11  1  0  0  0  0
 10 12  1  0  0  0  0
 10 13  1  0  0  0  0
 13 14  1  0  0  0  0
 13 15  1  0  0  0  0
 13 16  1  0  0  0  0
M  END
> <VConfSearch Rank>
302

> <Conf_Id>
22

> <Delta U+W>
-1.185

> <U+W>
-58.089

> <U>
6.298

> <W>
-64.387

> <W(PB)>
-66.329

> <W(SA)>
1.942

> <Valence>
6.246

> <Coulomb>
-0.408

> <VdW>
0.460

> <VdW6>
-4.207

> <VdW12>
4.667

> <Bond>
0.072

> <Angle>
2.246

> <Pdih>
3.928

> <Idih>
0.001

> <Tether>
0.000

$$$$
VeraChem MOL file


 16 15  0  0  0  0  0  0  0  0999 V2000     
   21.6941   17.9305   23.4825 C   0  0  0  0  0  0  0  0  0  0  0  0
   22.2051   16.8764   23.1601 O   0  5  0  0  0  0  0  0  0  0  0  0
   21.6400   18.3274   24.6295 O   0  0  0  0  0  0  0  0  0  0  0  0
   21.0693   18.7920   22.3907 C   0  0  0  0  0  0  0  0  0  0  0  0
   21.6448   18.6439   21.4691 H   0  0  0  0  0  0  0  0  0  0  0  0
   21.1886   19.8413   22.6835 H   0  0  0  0  0  0  0  0  0  0  0  0
   19.5741   18.4611   22.1459 C   0  0  0  0  0  0  0  0  0  0  0  0
   19.4794   17.3858   21.9404 H   0  0  0  0  0  0  0  0  0  0  0  0
   19.0011   18.6538   23.0633 H   0  0  0  0  0  0  0  0  0  0  0  0
   18.9545   19.2483   20.9682 C   0  0  0  0  0  0  0  0  0  0  0  0
   17.9350   18.8779   20.7934 H   0  0  0  0  0  0  0  0  0  0  0  0
   19.5204   19.0465   20.0481 H   0  0  0  0  0  0  0  0  0  0  0  0
   18.8951   20.7705   21.2178 C   0  0  0  0  0  0  0  0  0  0  0  0
   19.9002   21.2051   21.2858 H   0  0  0  0  0  0  0  0  0  0  0  0
   18.3584   20.9953   22.1487 H   0  0  0  0  0  0  0  0  0  0  0  0
   18.3705   21.2738   20.3954 H   0  0  0  0  0  0  0  0  0  0  0  0
  1  2  1  0  0  0  0
  1  3  2  0  0  0  0
  1  4  1  0  0  0  0
  4  5  1  0  0  0  0
  4  6  1  0  0  0  0
  4  7  1  0  0  0  0
  7  8  1  0  0  0  0
  7  9  1  0  0  0  0
  7 10  1  0  0  0  0
 10 11  1  0  0  0  0
 10 12  1  0  0  0  0
 10 13  1  0  0  0  0
 13 14  1  0  0  0  0
 13 15  1  0  0  0  0
 13 16  1  0  0  0  0
M  END
> <VConfSearch Rank>
303

> <Conf_Id>
36

> <Delta U+W>
-0.427

> <U+W>
-57.331

> <U>
7.263

> <W>
-64.594

> <W(PB)>
-66.513

> <W(SA)>
1.920

> <Valence>
6.734

> <Coulomb>
-0.068

> <VdW>
0.598

> <VdW6>
-4.819

> <VdW12>
5.417

> <Bond>
0.107

> <Angle>
2.469

> <Pdih>
4.157

> <Idih>
0.001

> <Tether>
0.000

$$$$
VeraChem MOL file


 16 15  0  0  0  0  0  0  0  0999 V2000     
   19.3193   18.9962   24.4918 C   0  0  0  0  0  0  0  0  0  0  0  0
   18.8311   17.9160   24.7576 O   0  5  0  0  0  0  0  0  0  0  0  0
   19.1845   19.9834   25.1871 O   0  0  0  0  0  0  0  0  0  0  0  0
   20.1283   19.1256   23.2060 C   0  0  0  0  0  0  0  0  0  0  0  0
   20.6264   18.1660   23.0263 H   0  0  0  0  0  0  0  0  0  0  0  0
   20.9131   19.8735   23.3713 H   0  0  0  0  0  0  0  0  0  0  0  0
   19.2582   19.5249   21.9860 C   0  0  0  0  0  0  0  0  0  0  0  0
   18.5032   18.7476   21.8041 H   0  0  0  0  0  0  0  0  0  0  0  0
   18.7063   20.4428   22.2311 H   0  0  0  0  0  0  0  0  0  0  0  0
   20.0786   19.7675   20.6981 C   0  0  0  0  0  0  0  0  0  0  0  0
   20.8259   20.5530   20.8764 H   0  0  0  0  0  0  0  0  0  0  0  0
   19.4062   20.1497   19.9178 H   0  0  0  0  0  0  0  0  0  0  0  0
   20.7779   18.4953   20.1732 C   0  0  0  0  0  0  0  0  0  0  0  0
   21.5436   18.1404   20.8743 H   0  0  0  0  0  0  0  0  0  0  0  0
   21.2733   18.6976   19.2148 H   0  0  0  0  0  0  0  0  0  0  0  0
   20.0534   17.6858   20.0147 H   0  0  0  0  0  0  0  0  0  0  0  0
  1  2  1  0  0  0  0
  1  3  2  0  0  0  0
  1  4  1  0  0  0  0
  4  5  1  0  0  0  0
  4  6  1  0  0  0  0
  4  7  1  0  0  0  0
  7  8  1  0  0  0  0
  7  9  1  0  0  0  0
  7 10  1  0  0  0  0
 10 11  1  0  0  0  0
 10 12  1  0  0  0  0
 10 13  1  0  0  0  0
 13 14  1  0  0  0  0
 13 15  1  0  0  0  0
 13 16  1  0  0  0  0
M  END
> <VConfSearch Rank>
304

> <Conf_Id>
17

> <Delta U+W>
-0.432

> <U+W>
-57.336

> <U>
7.263

> <W>
-64.599

> <W(PB)>
-66.503

> <W(SA)>
1.904

> <Valence>
6.734

> <Coulomb>
-0.068

> <VdW>
0.598

> <VdW6>
-4.819

> <VdW12>
5.417

> <Bond>
0.107

> <Angle>
2.469

> <Pdih>
4.157

> <Idih>
0.001

> <Tether>
0.000

$$$$
VeraChem MOL file


 16 15  0  0  0  0  0  0  0  0999 V2000     
   22.2401   18.5743   23.0202 C   0  0  0  0  0  0  0  0  0  0  0  0
   22.4204   17.3775   23.1281 O   0  5  0  0  0  0  0  0  0  0  0  0
   23.0489   19.3326   22.5230 O   0  0  0  0  0  0  0  0  0  0  0  0
   20.9373   19.1575   23.5605 C   0  0  0  0  0  0  0  0  0  0  0  0
   21.0709   20.2361   23.7086 H   0  0  0  0  0  0  0  0  0  0  0  0
   20.7679   18.7200   24.5515 H   0  0  0  0  0  0  0  0  0  0  0  0
   19.7036   18.8902   22.6596 C   0  0  0  0  0  0  0  0  0  0  0  0
   19.5992   17.8085   22.4966 H   0  0  0  0  0  0  0  0  0  0  0  0
   18.7985   19.2191   23.1880 H   0  0  0  0  0  0  0  0  0  0  0  0
   19.7918   19.6177   21.3005 C   0  0  0  0  0  0  0  0  0  0  0  0
   20.6835   19.2811   20.7536 H   0  0  0  0  0  0  0  0  0  0  0  0
   19.9086   20.6978   21.4652 H   0  0  0  0  0  0  0  0  0  0  0  0
   18.5390   19.3627   20.4393 C   0  0  0  0  0  0  0  0  0  0  0  0
   18.4157   18.2913   20.2335 H   0  0  0  0  0  0  0  0  0  0  0  0
   18.6181   19.8857   19.4774 H   0  0  0  0  0  0  0  0  0  0  0  0
   17.6336   19.7211   20.9466 H   0  0  0  0  0  0  0  0  0  0  0  0
  1  2  1  0  0  0  0
  1  3  2  0  0  0  0
  1  4  1  0  0  0  0
  4  5  1  0  0  0  0
  4  6  1  0  0  0  0
  4  7  1  0  0  0  0
  7  8  1  0  0  0  0
  7  9  1  0  0  0  0
  7 10  1  0  0  0  0
 10 11  1  0  0  0  0
 10 12  1  0  0  0  0
 10 13  1  0  0  0  0
 13 14  1  0  0  0  0
 13 15  1  0  0  0  0
 13 16  1  0  0  0  0
M  END
> <VConfSearch Rank>
305

> <Conf_Id>
19

> <Delta U+W>
0.048

> <U+W>
-56.856

> <U>
8.276

> <W>
-65.132

> <W(PB)>
-67.031

> <W(SA)>
1.899

> <Valence>
6.513

> <Coulomb>
1.428

> <VdW>
0.335

> <VdW6>
-5.021

> <VdW12>
5.356

> <Bond>
0.092

> <Angle>
2.417

> <Pdih>
4.003

> <Idih>
0.001

> <Tether>
0.000

$$$$
VeraChem MOL file


 16 15  0  0  0  0  0  0  0  0999 V2000     
   19.2508   17.1536   23.1851 C   0  0  0  0  0  0  0  0  0  0  0  0
   19.6036   17.1058   24.3468 O   0  5  0  0  0  0  0  0  0  0  0  0
   19.4409   16.2560   22.3886 O   0  0  0  0  0  0  0  0  0  0  0  0
   18.5085   18.3993   22.7090 C   0  0  0  0  0  0  0  0  0  0  0  0
   17.7516   18.6394   23.4650 H   0  0  0  0  0  0  0  0  0  0  0  0
   17.9684   18.1543   21.7863 H   0  0  0  0  0  0  0  0  0  0  0  0
   19.4222   19.6318   22.4827 C   0  0  0  0  0  0  0  0  0  0  0  0
   18.7934   20.5092   22.2795 H   0  0  0  0  0  0  0  0  0  0  0  0
   19.9777   19.8477   23.4060 H   0  0  0  0  0  0  0  0  0  0  0  0
   20.4099   19.4320   21.3127 C   0  0  0  0  0  0  0  0  0  0  0  0
   19.8537   19.2040   20.3930 H   0  0  0  0  0  0  0  0  0  0  0  0
   21.0587   18.5683   21.5146 H   0  0  0  0  0  0  0  0  0  0  0  0
   21.2821   20.6831   21.0880 C   0  0  0  0  0  0  0  0  0  0  0  0
   20.6617   21.5571   20.8497 H   0  0  0  0  0  0  0  0  0  0  0  0
   21.9784   20.5243   20.2544 H   0  0  0  0  0  0  0  0  0  0  0  0
   21.8729   20.9157   21.9837 H   0  0  0  0  0  0  0  0  0  0  0  0
  1  2  1  0  0  0  0
  1  3  2  0  0  0  0
  1  4  1  0  0  0  0
  4  5  1  0  0  0  0
  4  6  1  0  0  0  0
  4  7  1  0  0  0  0
  7  8  1  0  0  0  0
  7  9  1  0  0  0  0
  7 10  1  0  0  0  0
 10 11  1  0  0  0  0
 10 12  1  0  0  0  0
 10 13  1  0  0  0  0
 13 14  1  0  0  0  0
 13 15  1  0  0  0  0
 13 16  1  0  0  0  0
M  END
> <VConfSearch Rank>
306

> <Conf_Id>
20

> <Delta U+W>
-0.010

> <U+W>
-56.914

> <U>
8.277

> <W>
-65.191

> <W(PB)>
-67.081

> <W(SA)>
1.890

> <Valence>
6.513

> <Coulomb>
1.429

> <VdW>
0.335

> <VdW6>
-5.021

> <VdW12>
5.356

> <Bond>
0.092

> <Angle>
2.417

> <Pdih>
4.002

> <Idih>
0.001

> <Tether>
0.000

$$$$
VeraChem MOL file


 16 15  0  0  0  0  0  0  0  0999 V2000     
   18.2300   20.4697   22.6618 C   0  0  0  0  0  0  0  0  0  0  0  0
   17.3111   20.6994   21.9004 O   0  5  0  0  0  0  0  0  0  0  0  0
   18.8163   21.3329   23.2843 O   0  0  0  0  0  0  0  0  0  0  0  0
   18.6449   19.0159   22.8712 C   0  0  0  0  0  0  0  0  0  0  0  0
   17.7350   18.4468   23.0951 H   0  0  0  0  0  0  0  0  0  0  0  0
   19.2762   18.9553   23.7651 H   0  0  0  0  0  0  0  0  0  0  0  0
   19.3617   18.3769   21.6504 C   0  0  0  0  0  0  0  0  0  0  0  0
   19.5502   17.3151   21.8586 H   0  0  0  0  0  0  0  0  0  0  0  0
   18.6821   18.4057   20.7875 H   0  0  0  0  0  0  0  0  0  0  0  0
   20.6927   19.0632   21.2613 C   0  0  0  0  0  0  0  0  0  0  0  0
   20.5120   20.1192   21.0165 H   0  0  0  0  0  0  0  0  0  0  0  0
   21.0760   18.5947   20.3444 H   0  0  0  0  0  0  0  0  0  0  0  0
   21.7724   18.9643   22.3599 C   0  0  0  0  0  0  0  0  0  0  0  0
   21.4813   19.5272   23.2559 H   0  0  0  0  0  0  0  0  0  0  0  0
   22.7232   19.3799   22.0017 H   0  0  0  0  0  0  0  0  0  0  0  0
   21.9467   17.9196   22.6483 H   0  0  0  0  0  0  0  0  0  0  0  0
  1  2  1  0  0  0  0
  1  3  2  0  0  0  0
  1  4  1  0  0  0  0
  4  5  1  0  0  0  0
  4  6  1  0  0  0  0
  4  7  1  0  0  0  0
  7  8  1  0  0  0  0
  7  9  1  0  0  0  0
  7 10  1  0  0  0  0
 10 11  1  0  0  0  0
 10 12  1  0  0  0  0
 10 13  1  0  0  0  0
 13 14  1  0  0  0  0
 13 15  1  0  0  0  0
 13 16  1  0  0  0  0
M  END
> <VConfSearch Rank>
307

> <Conf_Id>
37

> <Delta U+W>
1.063

> <U+W>
-55.841

> <U>
9.719

> <W>
-65.560

> <W(PB)>
-67.414

> <W(SA)>
1.854

> <Valence>
7.002

> <Coulomb>
2.402

> <VdW>
0.314

> <VdW6>
-5.861

> <VdW12>
6.175

> <Bond>
0.134

> <Angle>
2.733

> <Pdih>
4.133

> <Idih>
0.002

> <Tether>
0.000

$$$$
VeraChem MOL file


 16 15  0  0  0  0  0  0  0  0999 V2000     
   19.0231   17.4307   21.4884 C   0  0  0  0  0  0  0  0  0  0  0  0
   19.5483   16.4129   21.0821 O   0  5  0  0  0  0  0  0  0  0  0  0
   18.0982   17.4392   22.2763 O   0  0  0  0  0  0  0  0  0  0  0  0
   19.5316   18.7663   20.9524 C   0  0  0  0  0  0  0  0  0  0  0  0
   18.7977   19.5442   21.1922 H   0  0  0  0  0  0  0  0  0  0  0  0
   19.5565   18.6900   19.8590 H   0  0  0  0  0  0  0  0  0  0  0  0
   20.9408   19.1646   21.4705 C   0  0  0  0  0  0  0  0  0  0  0  0
   21.6598   18.3913   21.1668 H   0  0  0  0  0  0  0  0  0  0  0  0
   21.2580   20.0918   20.9746 H   0  0  0  0  0  0  0  0  0  0  0  0
   21.0268   19.3525   23.0039 C   0  0  0  0  0  0  0  0  0  0  0  0
   22.0728   19.5491   23.2767 H   0  0  0  0  0  0  0  0  0  0  0  0
   20.7451   18.4196   23.5119 H   0  0  0  0  0  0  0  0  0  0  0  0
   20.1500   20.5107   23.5254 C   0  0  0  0  0  0  0  0  0  0  0  0
   20.3876   21.4490   23.0076 H   0  0  0  0  0  0  0  0  0  0  0  0
   20.3170   20.6648   24.5993 H   0  0  0  0  0  0  0  0  0  0  0  0
   19.0829   20.2972   23.3833 H   0  0  0  0  0  0  0  0  0  0  0  0
  1  2  1  0  0  0  0
  1  3  2  0  0  0  0
  1  4  1  0  0  0  0
  4  5  1  0  0  0  0
  4  6  1  0  0  0  0
  4  7  1  0  0  0  0
  7  8  1  0  0  0  0
  7  9  1  0  0  0  0
  7 10  1  0  0  0  0
 10 11  1  0  0  0  0
 10 12  1  0  0  0  0
 10 13  1  0  0  0  0
 13 14  1  0  0  0  0
 13 15  1  0  0  0  0
 13 16  1  0  0  0  0
M  END
> <VConfSearch Rank>
308

> <Conf_Id>
39

> <Delta U+W>
1.129

> <U+W>
-55.775

> <U>
9.718

> <W>
-65.493

> <W(PB)>
-67.361

> <W(SA)>
1.869

> <Valence>
7.002

> <Coulomb>
2.402

> <VdW>
0.314

> <VdW6>
-5.861

> <VdW12>
6.175

> <Bond>
0.134

> <Angle>
2.734

> <Pdih>
4.133

> <Idih>
0.002

> <Tether>
0.000

$$$$
VeraChem MOL file


 16 15  0  0  0  0  0  0  0  0999 V2000     
   21.2896   19.7598   23.5286 C   0  0  0  0  0  0  0  0  0  0  0  0
   21.1099   19.3353   24.6530 O   0  5  0  0  0  0  0  0  0  0  0  0
   21.4982   20.9314   23.2816 O   0  0  0  0  0  0  0  0  0  0  0  0
   21.3451   18.7553   22.3790 C   0  0  0  0  0  0  0  0  0  0  0  0
   21.2170   17.7435   22.7827 H   0  0  0  0  0  0  0  0  0  0  0  0
   22.3628   18.8047   21.9747 H   0  0  0  0  0  0  0  0  0  0  0  0
   20.3316   19.0069   21.2272 C   0  0  0  0  0  0  0  0  0  0  0  0
   20.3198   20.0741   20.9653 H   0  0  0  0  0  0  0  0  0  0  0  0
   20.6954   18.4802   20.3346 H   0  0  0  0  0  0  0  0  0  0  0  0
   18.8925   18.5138   21.5124 C   0  0  0  0  0  0  0  0  0  0  0  0
   18.9089   17.4473   21.7757 H   0  0  0  0  0  0  0  0  0  0  0  0
   18.3080   18.5937   20.5854 H   0  0  0  0  0  0  0  0  0  0  0  0
   18.1677   19.3102   22.6173 C   0  0  0  0  0  0  0  0  0  0  0  0
   18.6185   19.1299   23.6007 H   0  0  0  0  0  0  0  0  0  0  0  0
   17.1135   19.0104   22.6778 H   0  0  0  0  0  0  0  0  0  0  0  0
   18.2028   20.3884   22.4137 H   0  0  0  0  0  0  0  0  0  0  0  0
  1  2  1  0  0  0  0
  1  3  2  0  0  0  0
  1  4  1  0  0  0  0
  4  5  1  0  0  0  0
  4  6  1  0  0  0  0
  4  7  1  0  0  0  0
  7  8  1  0  0  0  0
  7  9  1  0  0  0  0
  7 10  1  0  0  0  0
 10 11  1  0  0  0  0
 10 12  1  0  0  0  0
 10 13  1  0  0  0  0
 13 14  1  0  0  0  0
 13 15  1  0  0  0  0
 13 16  1  0  0  0  0
M  END
> <VConfSearch Rank>
309

> <Conf_Id>
47

> <Delta U+W>
2.301

> <U+W>
-54.603

> <U>
11.258

> <W>
-65.861

> <W(PB)>
-67.702

> <W(SA)>
1.841

> <Valence>
8.169

> <Coulomb>
2.735

> <VdW>
0.355

> <VdW6>
-6.245

> <VdW12>
6.600

> <Bond>
0.149

> <Angle>
3.168

> <Pdih>
4.840

> <Idih>
0.011

> <Tether>
0.000

$$$$
VeraChem MOL file


 16 15  0  0  0  0  0  0  0  0999 V2000     
   19.2266   20.8850   21.6178 C   0  0  0  0  0  0  0  0  0  0  0  0
   20.1805   21.6289   21.4997 O   0  5  0  0  0  0  0  0  0  0  0  0
   18.1940   21.2048   22.1731 O   0  0  0  0  0  0  0  0  0  0  0  0
   19.2936   19.5094   20.9567 C   0  0  0  0  0  0  0  0  0  0  0  0
   19.4085   19.6889   19.8814 H   0  0  0  0  0  0  0  0  0  0  0  0
   18.3298   19.0028   21.0886 H   0  0  0  0  0  0  0  0  0  0  0  0
   20.4530   18.5946   21.4424 C   0  0  0  0  0  0  0  0  0  0  0  0
   20.6218   17.8258   20.6764 H   0  0  0  0  0  0  0  0  0  0  0  0
   21.3859   19.1723   21.5022 H   0  0  0  0  0  0  0  0  0  0  0  0
   20.1882   17.8725   22.7855 C   0  0  0  0  0  0  0  0  0  0  0  0
   20.9905   17.1399   22.9499 H   0  0  0  0  0  0  0  0  0  0  0  0
   19.2540   17.2977   22.7222 H   0  0  0  0  0  0  0  0  0  0  0  0
   20.1338   18.8190   24.0026 C   0  0  0  0  0  0  0  0  0  0  0  0
   20.0845   18.2426   24.9353 H   0  0  0  0  0  0  0  0  0  0  0  0
   19.2480   19.4648   23.9671 H   0  0  0  0  0  0  0  0  0  0  0  0
   21.0255   19.4581   24.0452 H   0  0  0  0  0  0  0  0  0  0  0  0
  1  2  1  0  0  0  0
  1  3  2  0  0  0  0
  1  4  1  0  0  0  0
  4  5  1  0  0  0  0
  4  6  1  0  0  0  0
  4  7  1  0  0  0  0
  7  8  1  0  0  0  0
  7  9  1  0  0  0  0
  7 10  1  0  0  0  0
 10 11  1  0  0  0  0
 10 12  1  0  0  0  0
 10 13  1  0  0  0  0
 13 14  1  0  0  0  0
 13 15  1  0  0  0  0
 13 16  1  0  0  0  0
M  END
> <VConfSearch Rank>
310

> <Conf_Id>
45

> <Delta U+W>
2.303

> <U+W>
-54.601

> <U>
11.258

> <W>
-65.860

> <W(PB)>
-67.709

> <W(SA)>
1.849

> <Valence>
8.169

> <Coulomb>
2.735

> <VdW>
0.355

> <VdW6>
-6.245

> <VdW12>
6.600

> <Bond>
0.149

> <Angle>
3.168

> <Pdih>
4.840

> <Idih>
0.011

> <Tether>
0.000

$$$$
VeraChem MOL file


 16 15  0  0  0  0  0  0  0  0999 V2000     
   22.1034   18.5220   20.2486 C   0  0  0  0  0  0  0  0  0  0  0  0
   21.6840   17.4182   19.9596 O   0  5  0  0  0  0  0  0  0  0  0  0
   23.1392   18.9742   19.8035 O   0  0  0  0  0  0  0  0  0  0  0  0
   21.3136   19.4064   21.2149 C   0  0  0  0  0  0  0  0  0  0  0  0
   21.0923   20.3449   20.6931 H   0  0  0  0  0  0  0  0  0  0  0  0
   21.9789   19.6533   22.0508 H   0  0  0  0  0  0  0  0  0  0  0  0
   19.9985   18.7866   21.7579 C   0  0  0  0  0  0  0  0  0  0  0  0
   19.3384   18.5364   20.9158 H   0  0  0  0  0  0  0  0  0  0  0  0
   20.2259   17.8440   22.2749 H   0  0  0  0  0  0  0  0  0  0  0  0
   19.2686   19.7447   22.7226 C   0  0  0  0  0  0  0  0  0  0  0  0
   19.0391   20.6871   22.2063 H   0  0  0  0  0  0  0  0  0  0  0  0
   19.9270   19.9943   23.5662 H   0  0  0  0  0  0  0  0  0  0  0  0
   17.9635   19.1236   23.2585 C   0  0  0  0  0  0  0  0  0  0  0  0
   17.2724   18.8925   22.4372 H   0  0  0  0  0  0  0  0  0  0  0  0
   17.4573   19.8173   23.9424 H   0  0  0  0  0  0  0  0  0  0  0  0
   18.1669   18.1946   23.8071 H   0  0  0  0  0  0  0  0  0  0  0  0
  1  2  1  0  0  0  0
  1  3  2  0  0  0  0
  1  4  1  0  0  0  0
  4  5  1  0  0  0  0
  4  6  1  0  0  0  0
  4  7  1  0  0  0  0
  7  8  1  0  0  0  0
  7  9  1  0  0  0  0
  7 10  1  0  0  0  0
 10 11  1  0  0  0  0
 10 12  1  0  0  0  0
 10 13  1  0  0  0  0
 13 14  1  0  0  0  0
 13 15  1  0  0  0  0
 13 16  1  0  0  0  0
M  END
> <VConfSearch Rank>
311

> <Conf_Id>
0

> <Delta U+W>
0.000

> <U+W>
-56.904

> <U>
7.329

> <W>
-64.233

> <W(PB)>
-66.148

> <W(SA)>
1.915

> <Valence>
6.755

> <Coulomb>
-0.421

> <VdW>
0.995

> <VdW6>
-4.495

> <VdW12>
5.490

> <Bond>
0.106

> <Angle>
2.715

> <Pdih>
3.934

> <Idih>
0.000

> <Tether>
0.000

$$$$
VeraChem MOL file


 16 15  0  0  0  0  0  0  0  0999 V2000     
   19.4362   19.4716   24.5847 C   0  0  0  0  0  0  0  0  0  0  0  0
   18.6675   18.6509   25.0446 O   0  5  0  0  0  0  0  0  0  0  0  0
   20.3034   20.0190   25.2359 O   0  0  0  0  0  0  0  0  0  0  0  0
   19.3178   19.8201   23.1051 C   0  0  0  0  0  0  0  0  0  0  0  0
   19.6104   20.8693   22.9774 H   0  0  0  0  0  0  0  0  0  0  0  0
   18.2618   19.7413   22.8196 H   0  0  0  0  0  0  0  0  0  0  0  0
   20.1846   18.9101   22.2003 C   0  0  0  0  0  0  0  0  0  0  0  0
   21.2370   18.9905   22.5064 H   0  0  0  0  0  0  0  0  0  0  0  0
   19.8883   17.8624   22.3487 H   0  0  0  0  0  0  0  0  0  0  0  0
   20.0465   19.2836   20.7097 C   0  0  0  0  0  0  0  0  0  0  0  0
   20.3434   20.3311   20.5608 H   0  0  0  0  0  0  0  0  0  0  0  0
   18.9944   19.2028   20.4030 H   0  0  0  0  0  0  0  0  0  0  0  0
   20.9119   18.3740   19.8153 C   0  0  0  0  0  0  0  0  0  0  0  0
   20.6151   17.3222   19.9208 H   0  0  0  0  0  0  0  0  0  0  0  0
   21.9741   18.4589   20.0797 H   0  0  0  0  0  0  0  0  0  0  0  0
   20.8022   18.6528   18.7591 H   0  0  0  0  0  0  0  0  0  0  0  0
  1  2  1  0  0  0  0
  1  3  2  0  0  0  0
  1  4  1  0  0  0  0
  4  5  1  0  0  0  0
  4  6  1  0  0  0  0
  4  7  1  0  0  0  0
  7  8  1  0  0  0  0
  7  9  1  0  0  0  0
  7 10  1  0  0  0  0
 10 11  1  0  0  0  0
 10 12  1  0  0  0  0
 10 13  1  0  0  0  0
 13 14  1  0  0  0  0
 13 15  1  0  0  0  0
 13 16  1  0  0  0  0
M  END
> <VConfSearch Rank>
312

> <Conf_Id>
22

> <Delta U+W>
-1.185

> <U+W>
-58.089

> <U>
6.298

> <W>
-64.387

> <W(PB)>
-66.329

> <W(SA)>
1.942

> <Valence>
6.246

> <Coulomb>
-0.408

> <VdW>
0.460

> <VdW6>
-4.207

> <VdW12>
4.667

> <Bond>
0.072

> <Angle>
2.246

> <Pdih>
3.928

> <Idih>
0.001

> <Tether>
0.000

$$$$
VeraChem MOL file


 16 15  0  0  0  0  0  0  0  0999 V2000     
   20.3031   19.0564   19.4244 C   0  0  0  0  0  0  0  0  0  0  0  0
   19.4873   19.5064   18.6447 O   0  5  0  0  0  0  0  0  0  0  0  0
   21.1363   18.2263   19.1199 O   0  0  0  0  0  0  0  0  0  0  0  0
   20.2661   19.5455   20.8680 C   0  0  0  0  0  0  0  0  0  0  0  0
   19.9278   20.5887   20.8655 H   0  0  0  0  0  0  0  0  0  0  0  0
   21.2932   19.5378   21.2502 H   0  0  0  0  0  0  0  0  0  0  0  0
   19.3424   18.6865   21.7702 C   0  0  0  0  0  0  0  0  0  0  0  0
   18.3438   18.6434   21.3138 H   0  0  0  0  0  0  0  0  0  0  0  0
   19.7157   17.6535   21.7989 H   0  0  0  0  0  0  0  0  0  0  0  0
   19.2073   19.2331   23.2101 C   0  0  0  0  0  0  0  0  0  0  0  0
   18.4569   18.6354   23.7458 H   0  0  0  0  0  0  0  0  0  0  0  0
   18.8229   20.2620   23.1822 H   0  0  0  0  0  0  0  0  0  0  0  0
   20.5317   19.1951   24.0023 C   0  0  0  0  0  0  0  0  0  0  0  0
   21.2793   19.8693   23.5661 H   0  0  0  0  0  0  0  0  0  0  0  0
   20.9504   18.1804   24.0193 H   0  0  0  0  0  0  0  0  0  0  0  0
   20.3666   19.5098   25.0409 H   0  0  0  0  0  0  0  0  0  0  0  0
  1  2  1  0  0  0  0
  1  3  2  0  0  0  0
  1  4  1  0  0  0  0
  4  5  1  0  0  0  0
  4  6  1  0  0  0  0
  4  7  1  0  0  0  0
  7  8  1  0  0  0  0
  7  9  1  0  0  0  0
  7 10  1  0  0  0  0
 10 11  1  0  0  0  0
 10 12  1  0  0  0  0
 10 13  1  0  0  0  0
 13 14  1  0  0  0  0
 13 15  1  0  0  0  0
 13 16  1  0  0  0  0
M  END
> <VConfSearch Rank>
313

> <Conf_Id>
36

> <Delta U+W>
-0.427

> <U+W>
-57.331

> <U>
7.263

> <W>
-64.594

> <W(PB)>
-66.513

> <W(SA)>
1.920

> <Valence>
6.734

> <Coulomb>
-0.068

> <VdW>
0.598

> <VdW6>
-4.819

> <VdW12>
5.417

> <Bond>
0.107

> <Angle>
2.469

> <Pdih>
4.157

> <Idih>
0.001

> <Tether>
0.000

$$$$
VeraChem MOL file


 16 15  0  0  0  0  0  0  0  0999 V2000     
   21.8312   19.3341   20.2070 C   0  0  0  0  0  0  0  0  0  0  0  0
   22.3757   20.4190   20.2566 O   0  5  0  0  0  0  0  0  0  0  0  0
   21.8876   18.5980   19.2421 O   0  0  0  0  0  0  0  0  0  0  0  0
   21.0163   18.8801   21.4130 C   0  0  0  0  0  0  0  0  0  0  0  0
   21.4942   19.2865   22.3116 H   0  0  0  0  0  0  0  0  0  0  0  0
   21.0813   17.7872   21.4759 H   0  0  0  0  0  0  0  0  0  0  0  0
   19.5322   19.3236   21.3370 C   0  0  0  0  0  0  0  0  0  0  0  0
   19.4780   20.4208   21.3175 H   0  0  0  0  0  0  0  0  0  0  0  0
   19.1076   18.9746   20.3855 H   0  0  0  0  0  0  0  0  0  0  0  0
   18.6670   18.7786   22.4966 C   0  0  0  0  0  0  0  0  0  0  0  0
   18.7116   17.6807   22.5091 H   0  0  0  0  0  0  0  0  0  0  0  0
   17.6175   19.0447   22.3096 H   0  0  0  0  0  0  0  0  0  0  0  0
   19.0819   19.3306   23.8772 C   0  0  0  0  0  0  0  0  0  0  0  0
   20.0876   18.9935   24.1580 H   0  0  0  0  0  0  0  0  0  0  0  0
   18.3870   18.9847   24.6533 H   0  0  0  0  0  0  0  0  0  0  0  0
   19.0726   20.4284   23.8803 H   0  0  0  0  0  0  0  0  0  0  0  0
  1  2  1  0  0  0  0
  1  3  2  0  0  0  0
  1  4  1  0  0  0  0
  4  5  1  0  0  0  0
  4  6  1  0  0  0  0
  4  7  1  0  0  0  0
  7  8  1  0  0  0  0
  7  9  1  0  0  0  0
  7 10  1  0  0  0  0
 10 11  1  0  0  0  0
 10 12  1  0  0  0  0
 10 13  1  0  0  0  0
 13 14  1  0  0  0  0
 13 15  1  0  0  0  0
 13 16  1  0  0  0  0
M  END
> <VConfSearch Rank>
314

> <Conf_Id>
17

> <Delta U+W>
-0.432

> <U+W>
-57.336

> <U>
7.263

> <W>
-64.599

> <W(PB)>
-66.503

> <W(SA)>
1.904

> <Valence>
6.734

> <Coulomb>
-0.068

> <VdW>
0.598

> <VdW6>
-4.819

> <VdW12>
5.417

> <Bond>
0.107

> <Angle>
2.469

> <Pdih>
4.157

> <Idih>
0.001

> <Tether>
0.000

$$$$
VeraChem MOL file


 16 15  0  0  0  0  0  0  0  0999 V2000     
   19.2444   16.9630   22.3905 C   0  0  0  0  0  0  0  0  0  0  0  0
   18.4050   16.8983   23.2667 O   0  5  0  0  0  0  0  0  0  0  0  0
   19.0910   16.4980   21.2785 O   0  0  0  0  0  0  0  0  0  0  0  0
   20.5713   17.6443   22.7139 C   0  0  0  0  0  0  0  0  0  0  0  0
   21.3191   17.3220   21.9790 H   0  0  0  0  0  0  0  0  0  0  0  0
   20.9035   17.2696   23.6893 H   0  0  0  0  0  0  0  0  0  0  0  0
   20.4936   19.1926   22.7541 C   0  0  0  0  0  0  0  0  0  0  0  0
   19.7212   19.5000   23.4729 H   0  0  0  0  0  0  0  0  0  0  0  0
   21.4481   19.5879   23.1273 H   0  0  0  0  0  0  0  0  0  0  0  0
   20.1945   19.8083   21.3700 C   0  0  0  0  0  0  0  0  0  0  0  0
   19.2310   19.4355   20.9953 H   0  0  0  0  0  0  0  0  0  0  0  0
   20.9606   19.4901   20.6494 H   0  0  0  0  0  0  0  0  0  0  0  0
   20.1562   21.3482   21.4315 C   0  0  0  0  0  0  0  0  0  0  0  0
   19.3765   21.6940   22.1228 H   0  0  0  0  0  0  0  0  0  0  0  0
   19.9419   21.7694   20.4406 H   0  0  0  0  0  0  0  0  0  0  0  0
   21.1192   21.7521   21.7705 H   0  0  0  0  0  0  0  0  0  0  0  0
  1  2  1  0  0  0  0
  1  3  2  0  0  0  0
  1  4  1  0  0  0  0
  4  5  1  0  0  0  0
  4  6  1  0  0  0  0
  4  7  1  0  0  0  0
  7  8  1  0  0  0  0
  7  9  1  0  0  0  0
  7 10  1  0  0  0  0
 10 11  1  0  0  0  0
 10 12  1  0  0  0  0
 10 13  1  0  0  0  0
 13 14  1  0  0  0  0
 13 15  1  0  0  0  0
 13 16  1  0  0  0  0
M  END
> <VConfSearch Rank>
315

> <Conf_Id>
19

> <Delta U+W>
0.048

> <U+W>
-56.856

> <U>
8.276

> <W>
-65.132

> <W(PB)>
-67.031

> <W(SA)>
1.899

> <Valence>
6.513

> <Coulomb>
1.428

> <VdW>
0.335

> <VdW6>
-5.021

> <VdW12>
5.356

> <Bond>
0.092

> <Angle>
2.417

> <Pdih>
4.003

> <Idih>
0.001

> <Tether>
0.000

$$$$
VeraChem MOL file


 16 15  0  0  0  0  0  0  0  0999 V2000     
   18.4356   19.0149   23.9725 C   0  0  0  0  0  0  0  0  0  0  0  0
   17.2662   18.8555   23.6838 O   0  5  0  0  0  0  0  0  0  0  0  0
   18.8235   19.8509   24.7642 O   0  0  0  0  0  0  0  0  0  0  0  0
   19.4689   18.0990   23.3221 C   0  0  0  0  0  0  0  0  0  0  0  0
   19.0815   17.0748   23.3789 H   0  0  0  0  0  0  0  0  0  0  0  0
   20.3869   18.1245   23.9218 H   0  0  0  0  0  0  0  0  0  0  0  0
   19.7849   18.4510   21.8452 C   0  0  0  0  0  0  0  0  0  0  0  0
   20.4243   17.6653   21.4205 H   0  0  0  0  0  0  0  0  0  0  0  0
   18.8529   18.4496   21.2630 H   0  0  0  0  0  0  0  0  0  0  0  0
   20.4912   19.8162   21.6981 C   0  0  0  0  0  0  0  0  0  0  0  0
   21.4166   19.8205   22.2907 H   0  0  0  0  0  0  0  0  0  0  0  0
   19.8514   20.6135   22.1016 H   0  0  0  0  0  0  0  0  0  0  0  0
   20.8239   20.1260   20.2251 C   0  0  0  0  0  0  0  0  0  0  0  0
   21.4915   19.3628   19.8040 H   0  0  0  0  0  0  0  0  0  0  0  0
   21.3242   21.0992   20.1382 H   0  0  0  0  0  0  0  0  0  0  0  0
   19.9115   20.1581   19.6152 H   0  0  0  0  0  0  0  0  0  0  0  0
  1  2  1  0  0  0  0
  1  3  2  0  0  0  0
  1  4  1  0  0  0  0
  4  5  1  0  0  0  0
  4  6  1  0  0  0  0
  4  7  1  0  0  0  0
  7  8  1  0  0  0  0
  7  9  1  0  0  0  0
  7 10  1  0  0  0  0
 10 11  1  0  0  0  0
 10 12  1  0  0  0  0
 10 13  1  0  0  0  0
 13 14  1  0  0  0  0
 13 15  1  0  0  0  0
 13 16  1  0  0  0  0
M  END
> <VConfSearch Rank>
316

> <Conf_Id>
20

> <Delta U+W>
-0.010

> <U+W>
-56.914

> <U>
8.277

> <W>
-65.191

> <W(PB)>
-67.081

> <W(SA)>
1.890

> <Valence>
6.513

> <Coulomb>
1.429

> <VdW>
0.335

> <VdW6>
-5.021

> <VdW12>
5.356

> <Bond>
0.092

> <Angle>
2.417

> <Pdih>
4.002

> <Idih>
0.001

> <Tether>
0.000

$$$$
VeraChem MOL file


 16 15  0  0  0  0  0  0  0  0999 V2000     
   21.3854   19.7329   20.7674 C   0  0  0  0  0  0  0  0  0  0  0  0
   22.3108   20.4675   21.0517 O   0  5  0  0  0  0  0  0  0  0  0  0
   20.7207   19.8523   19.7573 O   0  0  0  0  0  0  0  0  0  0  0  0
   21.0651   18.5793   21.7142 C   0  0  0  0  0  0  0  0  0  0  0  0
   22.0042   18.0487   21.9101 H   0  0  0  0  0  0  0  0  0  0  0  0
   20.4104   17.8697   21.1955 H   0  0  0  0  0  0  0  0  0  0  0  0
   20.4346   19.0204   23.0635 C   0  0  0  0  0  0  0  0  0  0  0  0
   20.3131   18.1401   23.7091 H   0  0  0  0  0  0  0  0  0  0  0  0
   21.1386   19.6868   23.5808 H   0  0  0  0  0  0  0  0  0  0  0  0
   19.0729   19.7421   22.9255 C   0  0  0  0  0  0  0  0  0  0  0  0
   19.1883   20.6449   22.3097 H   0  0  0  0  0  0  0  0  0  0  0  0
   18.7532   20.0846   23.9193 H   0  0  0  0  0  0  0  0  0  0  0  0
   17.9670   18.8463   22.3280 C   0  0  0  0  0  0  0  0  0  0  0  0
   18.1890   18.5812   21.2864 H   0  0  0  0  0  0  0  0  0  0  0  0
   17.0022   19.3696   22.3385 H   0  0  0  0  0  0  0  0  0  0  0  0
   17.8559   17.9193   22.9054 H   0  0  0  0  0  0  0  0  0  0  0  0
  1  2  1  0  0  0  0
  1  3  2  0  0  0  0
  1  4  1  0  0  0  0
  4  5  1  0  0  0  0
  4  6  1  0  0  0  0
  4  7  1  0  0  0  0
  7  8  1  0  0  0  0
  7  9  1  0  0  0  0
  7 10  1  0  0  0  0
 10 11  1  0  0  0  0
 10 12  1  0  0  0  0
 10 13  1  0  0  0  0
 13 14  1  0  0  0  0
 13 15  1  0  0  0  0
 13 16  1  0  0  0  0
M  END
> <VConfSearch Rank>
317

> <Conf_Id>
37

> <Delta U+W>
1.063

> <U+W>
-55.841

> <U>
9.719

> <W>
-65.560

> <W(PB)>
-67.414

> <W(SA)>
1.854

> <Valence>
7.002

> <Coulomb>
2.402

> <VdW>
0.314

> <VdW6>
-5.861

> <VdW12>
6.175

> <Bond>
0.134

> <Angle>
2.733

> <Pdih>
4.133

> <Idih>
0.002

> <Tether>
0.000

$$$$
VeraChem MOL file


 16 15  0  0  0  0  0  0  0  0999 V2000     
   19.9468   20.7514   23.5773 C   0  0  0  0  0  0  0  0  0  0  0  0
   19.3557   20.6476   24.6340 O   0  5  0  0  0  0  0  0  0  0  0  0
   21.0407   21.2692   23.4692 O   0  0  0  0  0  0  0  0  0  0  0  0
   19.2613   20.2341   22.3154 C   0  0  0  0  0  0  0  0  0  0  0  0
   19.7824   20.6394   21.4405 H   0  0  0  0  0  0  0  0  0  0  0  0
   18.2501   20.6572   22.2976 H   0  0  0  0  0  0  0  0  0  0  0  0
   19.1707   18.6858   22.2301 C   0  0  0  0  0  0  0  0  0  0  0  0
   18.5972   18.3180   23.0921 H   0  0  0  0  0  0  0  0  0  0  0  0
   18.5959   18.4075   21.3365 H   0  0  0  0  0  0  0  0  0  0  0  0
   20.5407   17.9675   22.1981 C   0  0  0  0  0  0  0  0  0  0  0  0
   20.3704   16.8824   22.2217 H   0  0  0  0  0  0  0  0  0  0  0  0
   21.1122   18.2105   23.1047 H   0  0  0  0  0  0  0  0  0  0  0  0
   21.3800   18.3128   20.9496 C   0  0  0  0  0  0  0  0  0  0  0  0
   20.8173   18.1122   20.0286 H   0  0  0  0  0  0  0  0  0  0  0  0
   22.2966   17.7095   20.9247 H   0  0  0  0  0  0  0  0  0  0  0  0
   21.6783   19.3690   20.9501 H   0  0  0  0  0  0  0  0  0  0  0  0
  1  2  1  0  0  0  0
  1  3  2  0  0  0  0
  1  4  1  0  0  0  0
  4  5  1  0  0  0  0
  4  6  1  0  0  0  0
  4  7  1  0  0  0  0
  7  8  1  0  0  0  0
  7  9  1  0  0  0  0
  7 10  1  0  0  0  0
 10 11  1  0  0  0  0
 10 12  1  0  0  0  0
 10 13  1  0  0  0  0
 13 14  1  0  0  0  0
 13 15  1  0  0  0  0
 13 16  1  0  0  0  0
M  END
> <VConfSearch Rank>
318

> <Conf_Id>
39

> <Delta U+W>
1.129

> <U+W>
-55.775

> <U>
9.718

> <W>
-65.493

> <W(PB)>
-67.361

> <W(SA)>
1.869

> <Valence>
7.002

> <Coulomb>
2.402

> <VdW>
0.314

> <VdW6>
-5.861

> <VdW12>
6.175

> <Bond>
0.134

> <Angle>
2.734

> <Pdih>
4.133

> <Idih>
0.002

> <Tether>
0.000

$$$$
VeraChem MOL file


 16 15  0  0  0  0  0  0  0  0999 V2000     
   19.8244   17.7391   20.7939 C   0  0  0  0  0  0  0  0  0  0  0  0
   18.6888   17.3458   20.6138 O   0  5  0  0  0  0  0  0  0  0  0  0
   20.7810   16.9963   20.8954 O   0  0  0  0  0  0  0  0  0  0  0  0
   20.0725   19.2464   20.8026 C   0  0  0  0  0  0  0  0  0  0  0  0
   19.1235   19.7653   20.6208 H   0  0  0  0  0  0  0  0  0  0  0  0
   20.7156   19.4585   19.9404 H   0  0  0  0  0  0  0  0  0  0  0  0
   20.7512   19.8007   22.0868 C   0  0  0  0  0  0  0  0  0  0  0  0
   21.5866   19.1496   22.3797 H   0  0  0  0  0  0  0  0  0  0  0  0
   21.1976   20.7738   21.8413 H   0  0  0  0  0  0  0  0  0  0  0  0
   19.7946   20.0094   23.2855 C   0  0  0  0  0  0  0  0  0  0  0  0
   18.9599   20.6591   22.9881 H   0  0  0  0  0  0  0  0  0  0  0  0
   20.3384   20.5475   24.0742 H   0  0  0  0  0  0  0  0  0  0  0  0
   19.2440   18.6965   23.8802 C   0  0  0  0  0  0  0  0  0  0  0  0
   18.5562   18.2005   23.1845 H   0  0  0  0  0  0  0  0  0  0  0  0
   18.6890   18.8973   24.8056 H   0  0  0  0  0  0  0  0  0  0  0  0
   20.0581   17.9991   24.1171 H   0  0  0  0  0  0  0  0  0  0  0  0
  1  2  1  0  0  0  0
  1  3  2  0  0  0  0
  1  4  1  0  0  0  0
  4  5  1  0  0  0  0
  4  6  1  0  0  0  0
  4  7  1  0  0  0  0
  7  8  1  0  0  0  0
  7  9  1  0  0  0  0
  7 10  1  0  0  0  0
 10 11  1  0  0  0  0
 10 12  1  0  0  0  0
 10 13  1  0  0  0  0
 13 14  1  0  0  0  0
 13 15  1  0  0  0  0
 13 16  1  0  0  0  0
M  END
> <VConfSearch Rank>
319

> <Conf_Id>
47

> <Delta U+W>
2.301

> <U+W>
-54.603

> <U>
11.258

> <W>
-65.861

> <W(PB)>
-67.702

> <W(SA)>
1.841

> <Valence>
8.169

> <Coulomb>
2.735

> <VdW>
0.355

> <VdW6>
-6.245

> <VdW12>
6.600

> <Bond>
0.149

> <Angle>
3.168

> <Pdih>
4.840

> <Idih>
0.011

> <Tether>
0.000

$$$$
VeraChem MOL file


 16 15  0  0  0  0  0  0  0  0999 V2000     
   20.6877   19.7100   20.5430 C   0  0  0  0  0  0  0  0  0  0  0  0
   21.2071   18.7516   20.0055 O   0  5  0  0  0  0  0  0  0  0  0  0
   21.2373   20.7869   20.6656 O   0  0  0  0  0  0  0  0  0  0  0  0
   19.2381   19.5832   21.0080 C   0  0  0  0  0  0  0  0  0  0  0  0
   18.6428   19.3778   20.1107 H   0  0  0  0  0  0  0  0  0  0  0  0
   18.9006   20.5533   21.3927 H   0  0  0  0  0  0  0  0  0  0  0  0
   18.9719   18.4667   22.0567 C   0  0  0  0  0  0  0  0  0  0  0  0
   17.8992   18.2314   22.0363 H   0  0  0  0  0  0  0  0  0  0  0  0
   19.4900   17.5439   21.7609 H   0  0  0  0  0  0  0  0  0  0  0  0
   19.3450   18.8428   23.5110 C   0  0  0  0  0  0  0  0  0  0  0  0
   18.9712   18.0554   24.1800 H   0  0  0  0  0  0  0  0  0  0  0  0
   18.8265   19.7667   23.8021 H   0  0  0  0  0  0  0  0  0  0  0  0
   20.8616   19.0031   23.7444 C   0  0  0  0  0  0  0  0  0  0  0  0
   21.0741   19.1299   24.8138 H   0  0  0  0  0  0  0  0  0  0  0  0
   21.2549   19.8845   23.2234 H   0  0  0  0  0  0  0  0  0  0  0  0
   21.4102   18.1200   23.3917 H   0  0  0  0  0  0  0  0  0  0  0  0
  1  2  1  0  0  0  0
  1  3  2  0  0  0  0
  1  4  1  0  0  0  0
  4  5  1  0  0  0  0
  4  6  1  0  0  0  0
  4  7  1  0  0  0  0
  7  8  1  0  0  0  0
  7  9  1  0  0  0  0
  7 10  1  0  0  0  0
 10 11  1  0  0  0  0
 10 12  1  0  0  0  0
 10 13  1  0  0  0  0
 13 14  1  0  0  0  0
 13 15  1  0  0  0  0
 13 16  1  0  0  0  0
M  END
> <VConfSearch Rank>
320

> <Conf_Id>
45

> <Delta U+W>
2.303

> <U+W>
-54.601

> <U>
11.258

> <W>
-65.860

> <W(PB)>
-67.709

> <W(SA)>
1.849

> <Valence>
8.169

> <Coulomb>
2.735

> <VdW>
0.355

> <VdW6>
-6.245

> <VdW12>
6.600

> <Bond>
0.149

> <Angle>
3.168

> <Pdih>
4.840

> <Idih>
0.011

> <Tether>
0.000

$$$$
VeraChem MOL file


 16 15  0  0  0  0  0  0  0  0999 V2000     
   20.5777   21.4634   20.5897 C   0  0  0  0  0  0  0  0  0  0  0  0
   21.6315   21.0579   20.1395 O   0  5  0  0  0  0  0  0  0  0  0  0
   20.1486   22.5782   20.3694 O   0  0  0  0  0  0  0  0  0  0  0  0
   19.7296   20.5518   21.4784 C   0  0  0  0  0  0  0  0  0  0  0  0
   18.7429   20.4628   21.0087 H   0  0  0  0  0  0  0  0  0  0  0  0
   19.5844   21.0694   22.4340 H   0  0  0  0  0  0  0  0  0  0  0  0
   20.3180   19.1384   21.7325 C   0  0  0  0  0  0  0  0  0  0  0  0
   20.4663   18.6270   20.7713 H   0  0  0  0  0  0  0  0  0  0  0  0
   21.3087   19.2342   22.1981 H   0  0  0  0  0  0  0  0  0  0  0  0
   19.3998   18.2890   22.6362 C   0  0  0  0  0  0  0  0  0  0  0  0
   18.4091   18.1910   22.1708 H   0  0  0  0  0  0  0  0  0  0  0  0
   19.2520   18.7986   23.5984 H   0  0  0  0  0  0  0  0  0  0  0  0
   19.9894   16.8866   22.8848 C   0  0  0  0  0  0  0  0  0  0  0  0
   20.1186   16.3418   21.9404 H   0  0  0  0  0  0  0  0  0  0  0  0
   19.3246   16.2961   23.5287 H   0  0  0  0  0  0  0  0  0  0  0  0
   20.9677   16.9538   23.3785 H   0  0  0  0  0  0  0  0  0  0  0  0
  1  2  1  0  0  0  0
  1  3  2  0  0  0  0
  1  4  1  0  0  0  0
  4  5  1  0  0  0  0
  4  6  1  0  0  0  0
  4  7  1  0  0  0  0
  7  8  1  0  0  0  0
  7  9  1  0  0  0  0
  7 10  1  0  0  0  0
 10 11  1  0  0  0  0
 10 12  1  0  0  0  0
 10 13  1  0  0  0  0
 13 14  1  0  0  0  0
 13 15  1  0  0  0  0
 13 16  1  0  0  0  0
M  END
> <VConfSearch Rank>
321

> <Conf_Id>
0

> <Delta U+W>
0.000

> <U+W>
-56.904

> <U>
7.329

> <W>
-64.233

> <W(PB)>
-66.148

> <W(SA)>
1.915

> <Valence>
6.755

> <Coulomb>
-0.421

> <VdW>
0.995

> <VdW6>
-4.495

> <VdW12>
5.490

> <Bond>
0.106

> <Angle>
2.715

> <Pdih>
3.934

> <Idih>
0.000

> <Tether>
0.000

$$$$
VeraChem MOL file


 16 15  0  0  0  0  0  0  0  0999 V2000     
   18.4910   19.8339   19.8041 C   0  0  0  0  0  0  0  0  0  0  0  0
   19.1101   20.0875   18.7901 O   0  5  0  0  0  0  0  0  0  0  0  0
   17.3705   19.3644   19.8077 O   0  0  0  0  0  0  0  0  0  0  0  0
   19.1640   20.1025   21.1456 C   0  0  0  0  0  0  0  0  0  0  0  0
   18.3863   20.3773   21.8684 H   0  0  0  0  0  0  0  0  0  0  0  0
   19.8205   20.9734   21.0294 H   0  0  0  0  0  0  0  0  0  0  0  0
   19.9733   18.8898   21.6674 C   0  0  0  0  0  0  0  0  0  0  0  0
   19.3051   18.0230   21.7666 H   0  0  0  0  0  0  0  0  0  0  0  0
   20.7394   18.6191   20.9276 H   0  0  0  0  0  0  0  0  0  0  0  0
   20.6435   19.1879   23.0248 C   0  0  0  0  0  0  0  0  0  0  0  0
   19.8776   19.4580   23.7651 H   0  0  0  0  0  0  0  0  0  0  0  0
   21.3122   20.0542   22.9259 H   0  0  0  0  0  0  0  0  0  0  0  0
   21.4470   17.9767   23.5380 C   0  0  0  0  0  0  0  0  0  0  0  0
   22.2413   17.7041   22.8307 H   0  0  0  0  0  0  0  0  0  0  0  0
   20.7961   17.1034   23.6761 H   0  0  0  0  0  0  0  0  0  0  0  0
   21.9169   18.2053   24.5035 H   0  0  0  0  0  0  0  0  0  0  0  0
  1  2  1  0  0  0  0
  1  3  2  0  0  0  0
  1  4  1  0  0  0  0
  4  5  1  0  0  0  0
  4  6  1  0  0  0  0
  4  7  1  0  0  0  0
  7  8  1  0  0  0  0
  7  9  1  0  0  0  0
  7 10  1  0  0  0  0
 10 11  1  0  0  0  0
 10 12  1  0  0  0  0
 10 13  1  0  0  0  0
 13 14  1  0  0  0  0
 13 15  1  0  0  0  0
 13 16  1  0  0  0  0
M  END
> <VConfSearch Rank>
322

> <Conf_Id>
22

> <Delta U+W>
-1.185

> <U+W>
-58.089

> <U>
6.298

> <W>
-64.387

> <W(PB)>
-66.329

> <W(SA)>
1.942

> <Valence>
6.246

> <Coulomb>
-0.408

> <VdW>
0.460

> <VdW6>
-4.207

> <VdW12>
4.667

> <Bond>
0.072

> <Angle>
2.246

> <Pdih>
3.928

> <Idih>
0.001

> <Tether>
0.000

$$$$
VeraChem MOL file


 16 15  0  0  0  0  0  0  0  0999 V2000     
   18.4012   17.4661   23.1868 C   0  0  0  0  0  0  0  0  0  0  0  0
   17.2148   17.3898   22.9365 O   0  5  0  0  0  0  0  0  0  0  0  0
   18.8962   17.0665   24.2217 O   0  0  0  0  0  0  0  0  0  0  0  0
   19.3149   18.1170   22.1542 C   0  0  0  0  0  0  0  0  0  0  0  0
   18.9088   17.9042   21.1580 H   0  0  0  0  0  0  0  0  0  0  0  0
   20.2934   17.6275   22.2178 H   0  0  0  0  0  0  0  0  0  0  0  0
   19.4570   19.6478   22.3574 C   0  0  0  0  0  0  0  0  0  0  0  0
   18.4541   20.0964   22.3752 H   0  0  0  0  0  0  0  0  0  0  0  0
   19.9040   19.8471   23.3412 H   0  0  0  0  0  0  0  0  0  0  0  0
   20.2912   20.3401   21.2549 C   0  0  0  0  0  0  0  0  0  0  0  0
   20.2508   21.4269   21.4115 H   0  0  0  0  0  0  0  0  0  0  0  0
   19.8377   20.1507   20.2722 H   0  0  0  0  0  0  0  0  0  0  0  0
   21.7689   19.8940   21.2394 C   0  0  0  0  0  0  0  0  0  0  0  0
   21.8649   18.8339   20.9735 H   0  0  0  0  0  0  0  0  0  0  0  0
   22.2359   20.0472   22.2211 H   0  0  0  0  0  0  0  0  0  0  0  0
   22.3370   20.4744   20.5009 H   0  0  0  0  0  0  0  0  0  0  0  0
  1  2  1  0  0  0  0
  1  3  2  0  0  0  0
  1  4  1  0  0  0  0
  4  5  1  0  0  0  0
  4  6  1  0  0  0  0
  4  7  1  0  0  0  0
  7  8  1  0  0  0  0
  7  9  1  0  0  0  0
  7 10  1  0  0  0  0
 10 11  1  0  0  0  0
 10 12  1  0  0  0  0
 10 13  1  0  0  0  0
 13 14  1  0  0  0  0
 13 15  1  0  0  0  0
 13 16  1  0  0  0  0
M  END
> <VConfSearch Rank>
323

> <Conf_Id>
36

> <Delta U+W>
-0.427

> <U+W>
-57.331

> <U>
7.263

> <W>
-64.594

> <W(PB)>
-66.513

> <W(SA)>
1.920

> <Valence>
6.734

> <Coulomb>
-0.068

> <VdW>
0.598

> <VdW6>
-4.819

> <VdW12>
5.417

> <Bond>
0.107

> <Angle>
2.469

> <Pdih>
4.157

> <Idih>
0.001

> <Tether>
0.000

$$$$
VeraChem MOL file


 16 15  0  0  0  0  0  0  0  0999 V2000     
   21.9043   19.2799   23.6973 C   0  0  0  0  0  0  0  0  0  0  0  0
   22.3458   18.1768   23.9508 O   0  5  0  0  0  0  0  0  0  0  0  0
   22.0807   20.2524   24.4037 O   0  0  0  0  0  0  0  0  0  0  0  0
   21.0664   19.4489   22.4348 C   0  0  0  0  0  0  0  0  0  0  0  0
   21.4544   18.7549   21.6805 H   0  0  0  0  0  0  0  0  0  0  0  0
   21.2252   20.4650   22.0542 H   0  0  0  0  0  0  0  0  0  0  0  0
   19.5552   19.1998   22.6784 C   0  0  0  0  0  0  0  0  0  0  0  0
   19.4043   18.1659   23.0184 H   0  0  0  0  0  0  0  0  0  0  0  0
   19.2180   19.8489   23.4984 H   0  0  0  0  0  0  0  0  0  0  0  0
   18.6781   19.4739   21.4351 C   0  0  0  0  0  0  0  0  0  0  0  0
   18.8200   20.5114   21.1019 H   0  0  0  0  0  0  0  0  0  0  0  0
   17.6212   19.3813   21.7210 H   0  0  0  0  0  0  0  0  0  0  0  0
   18.9633   18.5091   20.2643 C   0  0  0  0  0  0  0  0  0  0  0  0
   19.9776   18.6468   19.8693 H   0  0  0  0  0  0  0  0  0  0  0  0
   18.2593   18.6865   19.4409 H   0  0  0  0  0  0  0  0  0  0  0  0
   18.8556   17.4637   20.5816 H   0  0  0  0  0  0  0  0  0  0  0  0
  1  2  1  0  0  0  0
  1  3  2  0  0  0  0
  1  4  1  0  0  0  0
  4  5  1  0  0  0  0
  4  6  1  0  0  0  0
  4  7  1  0  0  0  0
  7  8  1  0  0  0  0
  7  9  1  0  0  0  0
  7 10  1  0  0  0  0
 10 11  1  0  0  0  0
 10 12  1  0  0  0  0
 10 13  1  0  0  0  0
 13 14  1  0  0  0  0
 13 15  1  0  0  0  0
 13 16  1  0  0  0  0
M  END
> <VConfSearch Rank>
324

> <Conf_Id>
17

> <Delta U+W>
-0.432

> <U+W>
-57.336

> <U>
7.263

> <W>
-64.599

> <W(PB)>
-66.503

> <W(SA)>
1.904

> <Valence>
6.734

> <Coulomb>
-0.068

> <VdW>
0.598

> <VdW6>
-4.819

> <VdW12>
5.417

> <Bond>
0.107

> <Angle>
2.469

> <Pdih>
4.157

> <Idih>
0.001

> <Tether>
0.000

$$$$
VeraChem MOL file


 16 15  0  0  0  0  0  0  0  0999 V2000     
   18.4576   17.8640   23.1731 C   0  0  0  0  0  0  0  0  0  0  0  0
   17.3285   18.1659   22.8411 O   0  5  0  0  0  0  0  0  0  0  0  0
   18.8632   16.7192   23.2086 O   0  0  0  0  0  0  0  0  0  0  0  0
   19.4085   18.9825   23.5906 C   0  0  0  0  0  0  0  0  0  0  0  0
   20.2275   18.5463   24.1755 H   0  0  0  0  0  0  0  0  0  0  0  0
   18.8566   19.6477   24.2652 H   0  0  0  0  0  0  0  0  0  0  0  0
   19.9769   19.8045   22.4047 C   0  0  0  0  0  0  0  0  0  0  0  0
   19.1457   20.2111   21.8120 H   0  0  0  0  0  0  0  0  0  0  0  0
   20.5329   20.6647   22.8014 H   0  0  0  0  0  0  0  0  0  0  0  0
   20.9080   18.9717   21.4972 C   0  0  0  0  0  0  0  0  0  0  0  0
   20.3563   18.1188   21.0779 H   0  0  0  0  0  0  0  0  0  0  0  0
   21.7317   18.5555   22.0936 H   0  0  0  0  0  0  0  0  0  0  0  0
   21.4853   19.8205   20.3472 C   0  0  0  0  0  0  0  0  0  0  0  0
   20.6826   20.2240   19.7160 H   0  0  0  0  0  0  0  0  0  0  0  0
   22.1436   19.2139   19.7117 H   0  0  0  0  0  0  0  0  0  0  0  0
   22.0721   20.6629   20.7365 H   0  0  0  0  0  0  0  0  0  0  0  0
  1  2  1  0  0  0  0
  1  3  2  0  0  0  0
  1  4  1  0  0  0  0
  4  5  1  0  0  0  0
  4  6  1  0  0  0  0
  4  7  1  0  0  0  0
  7  8  1  0  0  0  0
  7  9  1  0  0  0  0
  7 10  1  0  0  0  0
 10 11  1  0  0  0  0
 10 12  1  0  0  0  0
 10 13  1  0  0  0  0
 13 14  1  0  0  0  0
 13 15  1  0  0  0  0
 13 16  1  0  0  0  0
M  END
> <VConfSearch Rank>
325

> <Conf_Id>
19

> <Delta U+W>
0.048

> <U+W>
-56.856

> <U>
8.276

> <W>
-65.132

> <W(PB)>
-67.031

> <W(SA)>
1.899

> <Valence>
6.513

> <Coulomb>
1.428

> <VdW>
0.335

> <VdW6>
-5.021

> <VdW12>
5.356

> <Bond>
0.092

> <Angle>
2.417

> <Pdih>
4.003

> <Idih>
0.001

> <Tether>
0.000

$$$$
VeraChem MOL file


 16 15  0  0  0  0  0  0  0  0999 V2000     
   22.1224   19.6829   22.5770 C   0  0  0  0  0  0  0  0  0  0  0  0
   22.6386   18.9181   23.3676 O   0  5  0  0  0  0  0  0  0  0  0  0
   22.1818   20.8924   22.6769 O   0  0  0  0  0  0  0  0  0  0  0  0
   21.3800   19.0905   21.3823 C   0  0  0  0  0  0  0  0  0  0  0  0
   22.0123   18.2991   20.9626 H   0  0  0  0  0  0  0  0  0  0  0  0
   21.2852   19.8636   20.6100 H   0  0  0  0  0  0  0  0  0  0  0  0
   19.9854   18.5081   21.7302 C   0  0  0  0  0  0  0  0  0  0  0  0
   19.5884   17.9841   20.8502 H   0  0  0  0  0  0  0  0  0  0  0  0
   20.0926   17.7562   22.5244 H   0  0  0  0  0  0  0  0  0  0  0  0
   18.9811   19.5949   22.1710 C   0  0  0  0  0  0  0  0  0  0  0  0
   18.8844   20.3525   21.3810 H   0  0  0  0  0  0  0  0  0  0  0  0
   19.3586   20.1127   23.0638 H   0  0  0  0  0  0  0  0  0  0  0  0
   17.5951   18.9941   22.4781 C   0  0  0  0  0  0  0  0  0  0  0  0
   17.1764   18.4987   21.5923 H   0  0  0  0  0  0  0  0  0  0  0  0
   16.8941   19.7791   22.7905 H   0  0  0  0  0  0  0  0  0  0  0  0
   17.6584   18.2546   23.2871 H   0  0  0  0  0  0  0  0  0  0  0  0
  1  2  1  0  0  0  0
  1  3  2  0  0  0  0
  1  4  1  0  0  0  0
  4  5  1  0  0  0  0
  4  6  1  0  0  0  0
  4  7  1  0  0  0  0
  7  8  1  0  0  0  0
  7  9  1  0  0  0  0
  7 10  1  0  0  0  0
 10 11  1  0  0  0  0
 10 12  1  0  0  0  0
 10 13  1  0  0  0  0
 13 14  1  0  0  0  0
 13 15  1  0  0  0  0
 13 16  1  0  0  0  0
M  END
> <VConfSearch Rank>
326

> <Conf_Id>
20

> <Delta U+W>
-0.010

> <U+W>
-56.914

> <U>
8.277

> <W>
-65.191

> <W(PB)>
-67.081

> <W(SA)>
1.890

> <Valence>
6.513

> <Coulomb>
1.429

> <VdW>
0.335

> <VdW6>
-5.021

> <VdW12>
5.356

> <Bond>
0.092

> <Angle>
2.417

> <Pdih>
4.002

> <Idih>
0.001

> <Tether>
0.000

$$$$
VeraChem MOL file


 16 15  0  0  0  0  0  0  0  0999 V2000     
   21.5171   19.8441   20.9823 C   0  0  0  0  0  0  0  0  0  0  0  0
   21.4914   19.8817   19.7679 O   0  5  0  0  0  0  0  0  0  0  0  0
   22.4489   19.3945   21.6193 O   0  0  0  0  0  0  0  0  0  0  0  0
   20.3294   20.4241   21.7456 C   0  0  0  0  0  0  0  0  0  0  0  0
   20.1392   21.4248   21.3401 H   0  0  0  0  0  0  0  0  0  0  0  0
   20.6189   20.5641   22.7934 H   0  0  0  0  0  0  0  0  0  0  0  0
   19.0325   19.5752   21.6445 C   0  0  0  0  0  0  0  0  0  0  0  0
   18.2150   20.1047   22.1522 H   0  0  0  0  0  0  0  0  0  0  0  0
   18.7415   19.5003   20.5876 H   0  0  0  0  0  0  0  0  0  0  0  0
   19.1567   18.1488   22.2311 C   0  0  0  0  0  0  0  0  0  0  0  0
   19.9490   17.5962   21.7073 H   0  0  0  0  0  0  0  0  0  0  0  0
   18.2214   17.6057   22.0378 H   0  0  0  0  0  0  0  0  0  0  0  0
   19.4347   18.1371   23.7493 C   0  0  0  0  0  0  0  0  0  0  0  0
   20.4209   18.5617   23.9766 H   0  0  0  0  0  0  0  0  0  0  0  0
   19.4196   17.1092   24.1340 H   0  0  0  0  0  0  0  0  0  0  0  0
   18.6754   18.7136   24.2935 H   0  0  0  0  0  0  0  0  0  0  0  0
  1  2  1  0  0  0  0
  1  3  2  0  0  0  0
  1  4  1  0  0  0  0
  4  5  1  0  0  0  0
  4  6  1  0  0  0  0
  4  7  1  0  0  0  0
  7  8  1  0  0  0  0
  7  9  1  0  0  0  0
  7 10  1  0  0  0  0
 10 11  1  0  0  0  0
 10 12  1  0  0  0  0
 10 13  1  0  0  0  0
 13 14  1  0  0  0  0
 13 15  1  0  0  0  0
 13 16  1  0  0  0  0
M  END
> <VConfSearch Rank>
327

> <Conf_Id>
37

> <Delta U+W>
1.063

> <U+W>
-55.841

> <U>
9.719

> <W>
-65.560

> <W(PB)>
-67.414

> <W(SA)>
1.854

> <Valence>
7.002

> <Coulomb>
2.402

> <VdW>
0.314

> <VdW6>
-5.861

> <VdW12>
6.175

> <Bond>
0.134

> <Angle>
2.733

> <Pdih>
4.133

> <Idih>
0.002

> <Tether>
0.000

$$$$
VeraChem MOL file


 16 15  0  0  0  0  0  0  0  0999 V2000     
   19.3145   20.8531   23.1691 C   0  0  0  0  0  0  0  0  0  0  0  0
   19.8012   21.3365   24.1722 O   0  5  0  0  0  0  0  0  0  0  0  0
   18.9550   21.5124   22.2139 O   0  0  0  0  0  0  0  0  0  0  0  0
   19.1134   19.3407   23.1236 C   0  0  0  0  0  0  0  0  0  0  0  0
   18.4325   19.1009   22.2989 H   0  0  0  0  0  0  0  0  0  0  0  0
   18.5961   19.0532   24.0464 H   0  0  0  0  0  0  0  0  0  0  0  0
   20.4309   18.5274   23.0000 C   0  0  0  0  0  0  0  0  0  0  0  0
   21.0659   18.7503   23.8685 H   0  0  0  0  0  0  0  0  0  0  0  0
   20.1989   17.4553   23.0553 H   0  0  0  0  0  0  0  0  0  0  0  0
   21.2348   18.8080   21.7080 C   0  0  0  0  0  0  0  0  0  0  0  0
   22.1814   18.2521   21.7542 H   0  0  0  0  0  0  0  0  0  0  0  0
   21.5036   19.8724   21.6580 H   0  0  0  0  0  0  0  0  0  0  0  0
   20.4819   18.4036   20.4227 C   0  0  0  0  0  0  0  0  0  0  0  0
   20.1705   17.3517   20.4628 H   0  0  0  0  0  0  0  0  0  0  0  0
   21.1267   18.5327   19.5438 H   0  0  0  0  0  0  0  0  0  0  0  0
   19.5890   19.0238   20.2727 H   0  0  0  0  0  0  0  0  0  0  0  0
  1  2  1  0  0  0  0
  1  3  2  0  0  0  0
  1  4  1  0  0  0  0
  4  5  1  0  0  0  0
  4  6  1  0  0  0  0
  4  7  1  0  0  0  0
  7  8  1  0  0  0  0
  7  9  1  0  0  0  0
  7 10  1  0  0  0  0
 10 11  1  0  0  0  0
 10 12  1  0  0  0  0
 10 13  1  0  0  0  0
 13 14  1  0  0  0  0
 13 15  1  0  0  0  0
 13 16  1  0  0  0  0
M  END
> <VConfSearch Rank>
328

> <Conf_Id>
39

> <Delta U+W>
1.129

> <U+W>
-55.775

> <U>
9.718

> <W>
-65.493

> <W(PB)>
-67.361

> <W(SA)>
1.869

> <Valence>
7.002

> <Coulomb>
2.402

> <VdW>
0.314

> <VdW6>
-5.861

> <VdW12>
6.175

> <Bond>
0.134

> <Angle>
2.734

> <Pdih>
4.133

> <Idih>
0.002

> <Tether>
0.000

$$$$
VeraChem MOL file


 16 15  0  0  0  0  0  0  0  0999 V2000     
   18.8087   19.5747   20.6729 C   0  0  0  0  0  0  0  0  0  0  0  0
   19.5157   19.8050   19.7117 O   0  5  0  0  0  0  0  0  0  0  0  0
   17.9065   20.3066   21.0300 O   0  0  0  0  0  0  0  0  0  0  0  0
   19.0074   18.2538   21.4141 C   0  0  0  0  0  0  0  0  0  0  0  0
   19.8018   17.6825   20.9185 H   0  0  0  0  0  0  0  0  0  0  0  0
   18.0812   17.6826   21.2811 H   0  0  0  0  0  0  0  0  0  0  0  0
   19.3065   18.3833   22.9342 C   0  0  0  0  0  0  0  0  0  0  0  0
   18.6288   19.1199   23.3878 H   0  0  0  0  0  0  0  0  0  0  0  0
   19.0699   17.4217   23.4094 H   0  0  0  0  0  0  0  0  0  0  0  0
   20.7752   18.7305   23.2774 C   0  0  0  0  0  0  0  0  0  0  0  0
   21.4495   17.9930   22.8206 H   0  0  0  0  0  0  0  0  0  0  0  0
   20.9088   18.6390   24.3642 H   0  0  0  0  0  0  0  0  0  0  0  0
   21.1960   20.1524   22.8514 C   0  0  0  0  0  0  0  0  0  0  0  0
   21.2388   20.2460   21.7594 H   0  0  0  0  0  0  0  0  0  0  0  0
   22.1937   20.3908   23.2421 H   0  0  0  0  0  0  0  0  0  0  0  0
   20.4929   20.9032   23.2350 H   0  0  0  0  0  0  0  0  0  0  0  0
  1  2  1  0  0  0  0
  1  3  2  0  0  0  0
  1  4  1  0  0  0  0
  4  5  1  0  0  0  0
  4  6  1  0  0  0  0
  4  7  1  0  0  0  0
  7  8  1  0  0  0  0
  7  9  1  0  0  0  0
  7 10  1  0  0  0  0
 10 11  1  0  0  0  0
 10 12  1  0  0  0  0
 10 13  1  0  0  0  0
 13 14  1  0  0  0  0
 13 15  1  0  0  0  0
 13 16  1  0  0  0  0
M  END
> <VConfSearch Rank>
329

> <Conf_Id>
47

> <Delta U+W>
2.301

> <U+W>
-54.603

> <U>
11.258

> <W>
-65.861

> <W(PB)>
-67.702

> <W(SA)>
1.841

> <Valence>
8.169

> <Coulomb>
2.735

> <VdW>
0.355

> <VdW6>
-6.245

> <VdW12>
6.600

> <Bond>
0.149

> <Angle>
3.168

> <Pdih>
4.840

> <Idih>
0.011

> <Tether>
0.000

$$$$
VeraChem MOL file


 16 15  0  0  0  0  0  0  0  0999 V2000     
   19.9879   17.9509   20.6472 C   0  0  0  0  0  0  0  0  0  0  0  0
   20.7705   18.4509   19.8632 O   0  5  0  0  0  0  0  0  0  0  0  0
   18.8911   17.5380   20.3254 O   0  0  0  0  0  0  0  0  0  0  0  0
   20.4391   17.7483   22.0925 C   0  0  0  0  0  0  0  0  0  0  0  0
   21.3038   17.0755   22.0546 H   0  0  0  0  0  0  0  0  0  0  0  0
   19.6521   17.2164   22.6408 H   0  0  0  0  0  0  0  0  0  0  0  0
   20.8411   19.0445   22.8509 C   0  0  0  0  0  0  0  0  0  0  0  0
   21.4701   18.7567   23.7042 H   0  0  0  0  0  0  0  0  0  0  0  0
   21.4722   19.6740   22.2083 H   0  0  0  0  0  0  0  0  0  0  0  0
   19.6513   19.8690   23.3987 C   0  0  0  0  0  0  0  0  0  0  0  0
   20.0480   20.6637   24.0455 H   0  0  0  0  0  0  0  0  0  0  0  0
   19.0219   19.2357   24.0391 H   0  0  0  0  0  0  0  0  0  0  0  0
   18.7850   20.5197   22.3003 C   0  0  0  0  0  0  0  0  0  0  0  0
   18.0477   21.2000   22.7456 H   0  0  0  0  0  0  0  0  0  0  0  0
   18.2330   19.7647   21.7274 H   0  0  0  0  0  0  0  0  0  0  0  0
   19.4033   21.0990   21.6022 H   0  0  0  0  0  0  0  0  0  0  0  0
  1  2  1  0  0  0  0
  1  3  2  0  0  0  0
  1  4  1  0  0  0  0
  4  5  1  0  0  0  0
  4  6  1  0  0  0  0
  4  7  1  0  0  0  0
  7  8  1  0  0  0  0
  7  9  1  0  0  0  0
  7 10  1  0  0  0  0
 10 11  1  0  0  0  0
 10 12  1  0  0  0  0
 10 13  1  0  0  0  0
 13 14  1  0  0  0  0
 13 15  1  0  0  0  0
 13 16  1  0  0  0  0
M  END
> <VConfSearch Rank>
330

> <Conf_Id>
45

> <Delta U+W>
2.303

> <U+W>
-54.601

> <U>
11.258

> <W>
-65.860

> <W(PB)>
-67.709

> <W(SA)>
1.849

> <Valence>
8.169

> <Coulomb>
2.735

> <VdW>
0.355

> <VdW6>
-6.245

> <VdW12>
6.600

> <Bond>
0.149

> <Angle>
3.168

> <Pdih>
4.840

> <Idih>
0.011

> <Tether>
0.000

$$$$
VeraChem MOL file


 16 15  0  0  0  0  0  0  0  0999 V2000     
   18.6828   17.6228   20.0210 C   0  0  0  0  0  0  0  0  0  0  0  0
   19.3836   16.6409   20.1708 O   0  5  0  0  0  0  0  0  0  0  0  0
   17.7681   17.6681   19.2232 O   0  0  0  0  0  0  0  0  0  0  0  0
   18.9394   18.8752   20.8609 C   0  0  0  0  0  0  0  0  0  0  0  0
   18.0125   19.1030   21.4006 H   0  0  0  0  0  0  0  0  0  0  0  0
   19.1180   19.7043   20.1661 H   0  0  0  0  0  0  0  0  0  0  0  0
   20.1179   18.7709   21.8653 C   0  0  0  0  0  0  0  0  0  0  0  0
   19.9360   17.9352   22.5553 H   0  0  0  0  0  0  0  0  0  0  0  0
   21.0425   18.5372   21.3196 H   0  0  0  0  0  0  0  0  0  0  0  0
   20.3045   20.0755   22.6680 C   0  0  0  0  0  0  0  0  0  0  0  0
   19.3810   20.3094   23.2157 H   0  0  0  0  0  0  0  0  0  0  0  0
   20.4882   20.9118   21.9792 H   0  0  0  0  0  0  0  0  0  0  0  0
   21.4762   19.9657   23.6637 C   0  0  0  0  0  0  0  0  0  0  0  0
   21.3039   19.1561   24.3850 H   0  0  0  0  0  0  0  0  0  0  0  0
   21.5951   20.9011   24.2258 H   0  0  0  0  0  0  0  0  0  0  0  0
   22.4193   19.7629   23.1394 H   0  0  0  0  0  0  0  0  0  0  0  0
  1  2  1  0  0  0  0
  1  3  2  0  0  0  0
  1  4  1  0  0  0  0
  4  5  1  0  0  0  0
  4  6  1  0  0  0  0
  4  7  1  0  0  0  0
  7  8  1  0  0  0  0
  7  9  1  0  0  0  0
  7 10  1  0  0  0  0
 10 11  1  0  0  0  0
 10 12  1  0  0  0  0
 10 13  1  0  0  0  0
 13 14  1  0  0  0  0
 13 15  1  0  0  0  0
 13 16  1  0  0  0  0
M  END
> <VConfSearch Rank>
331

> <Conf_Id>
0

> <Delta U+W>
0.000

> <U+W>
-56.904

> <U>
7.329

> <W>
-64.233

> <W(PB)>
-66.148

> <W(SA)>
1.915

> <Valence>
6.755

> <Coulomb>
-0.421

> <VdW>
0.995

> <VdW6>
-4.495

> <VdW12>
5.490

> <Bond>
0.106

> <Angle>
2.715

> <Pdih>
3.934

> <Idih>
0.000

> <Tether>
0.000

$$$$
VeraChem MOL file


 16 15  0  0  0  0  0  0  0  0999 V2000     
   18.1023   17.2436   22.3810 C   0  0  0  0  0  0  0  0  0  0  0  0
   18.2169   16.2308   21.7199 O   0  5  0  0  0  0  0  0  0  0  0  0
   17.6108   17.2690   23.4916 O   0  0  0  0  0  0  0  0  0  0  0  0
   18.6202   18.5510   21.7920 C   0  0  0  0  0  0  0  0  0  0  0  0
   17.9887   19.3667   22.1646 H   0  0  0  0  0  0  0  0  0  0  0  0
   18.4886   18.5107   20.7039 H   0  0  0  0  0  0  0  0  0  0  0  0
   20.1043   18.8230   22.1404 C   0  0  0  0  0  0  0  0  0  0  0  0
   20.2220   18.8482   23.2327 H   0  0  0  0  0  0  0  0  0  0  0  0
   20.7219   17.9921   21.7720 H   0  0  0  0  0  0  0  0  0  0  0  0
   20.6027   20.1508   21.5329 C   0  0  0  0  0  0  0  0  0  0  0  0
   19.9858   20.9821   21.9016 H   0  0  0  0  0  0  0  0  0  0  0  0
   20.4858   20.1258   20.4405 H   0  0  0  0  0  0  0  0  0  0  0  0
   22.0803   20.4149   21.8837 C   0  0  0  0  0  0  0  0  0  0  0  0
   22.7247   19.6135   21.4990 H   0  0  0  0  0  0  0  0  0  0  0  0
   22.2210   20.4761   22.9709 H   0  0  0  0  0  0  0  0  0  0  0  0
   22.4188   21.3623   21.4443 H   0  0  0  0  0  0  0  0  0  0  0  0
  1  2  1  0  0  0  0
  1  3  2  0  0  0  0
  1  4  1  0  0  0  0
  4  5  1  0  0  0  0
  4  6  1  0  0  0  0
  4  7  1  0  0  0  0
  7  8  1  0  0  0  0
  7  9  1  0  0  0  0
  7 10  1  0  0  0  0
 10 11  1  0  0  0  0
 10 12  1  0  0  0  0
 10 13  1  0  0  0  0
 13 14  1  0  0  0  0
 13 15  1  0  0  0  0
 13 16  1  0  0  0  0
M  END
> <VConfSearch Rank>
332

> <Conf_Id>
22

> <Delta U+W>
-1.185

> <U+W>
-58.089

> <U>
6.298

> <W>
-64.387

> <W(PB)>
-66.329

> <W(SA)>
1.942

> <Valence>
6.246

> <Coulomb>
-0.408

> <VdW>
0.460

> <VdW6>
-4.207

> <VdW12>
4.667

> <Bond>
0.072

> <Angle>
2.246

> <Pdih>
3.928

> <Idih>
0.001

> <Tether>
0.000

$$$$
VeraChem MOL file


 16 15  0  0  0  0  0  0  0  0999 V2000     
   17.8770   18.9840   23.5106 C   0  0  0  0  0  0  0  0  0  0  0  0
   16.7826   19.3756   23.1571 O   0  5  0  0  0  0  0  0  0  0  0  0
   18.1921   18.8318   24.6740 O   0  0  0  0  0  0  0  0  0  0  0  0
   18.9174   18.6866   22.4365 C   0  0  0  0  0  0  0  0  0  0  0  0
   18.3923   18.3226   21.5453 H   0  0  0  0  0  0  0  0  0  0  0  0
   19.5481   17.8671   22.7996 H   0  0  0  0  0  0  0  0  0  0  0  0
   19.7827   19.9230   22.0792 C   0  0  0  0  0  0  0  0  0  0  0  0
   19.1167   20.7522   21.8030 H   0  0  0  0  0  0  0  0  0  0  0  0
   20.3365   20.2524   22.9692 H   0  0  0  0  0  0  0  0  0  0  0  0
   20.7682   19.6687   20.9153 C   0  0  0  0  0  0  0  0  0  0  0  0
   21.2593   20.6165   20.6550 H   0  0  0  0  0  0  0  0  0  0  0  0
   20.2135   19.3506   20.0218 H   0  0  0  0  0  0  0  0  0  0  0  0
   21.8521   18.6228   21.2531 C   0  0  0  0  0  0  0  0  0  0  0  0
   21.4151   17.6288   21.4101 H   0  0  0  0  0  0  0  0  0  0  0  0
   22.4014   18.9053   22.1607 H   0  0  0  0  0  0  0  0  0  0  0  0
   22.5759   18.5415   20.4318 H   0  0  0  0  0  0  0  0  0  0  0  0
  1  2  1  0  0  0  0
  1  3  2  0  0  0  0
  1  4  1  0  0  0  0
  4  5  1  0  0  0  0
  4  6  1  0  0  0  0
  4  7  1  0  0  0  0
  7  8  1  0  0  0  0
  7  9  1  0  0  0  0
  7 10  1  0  0  0  0
 10 11  1  0  0  0  0
 10 12  1  0  0  0  0
 10 13  1  0  0  0  0
 13 14  1  0  0  0  0
 13 15  1  0  0  0  0
 13 16  1  0  0  0  0
M  END
> <VConfSearch Rank>
333

> <Conf_Id>
36

> <Delta U+W>
-0.427

> <U+W>
-57.331

> <U>
7.263

> <W>
-64.594

> <W(PB)>
-66.513

> <W(SA)>
1.920

> <Valence>
6.734

> <Coulomb>
-0.068

> <VdW>
0.598

> <VdW6>
-4.819

> <VdW12>
5.417

> <Bond>
0.107

> <Angle>
2.469

> <Pdih>
4.157

> <Idih>
0.001

> <Tether>
0.000

$$$$
VeraChem MOL file


 16 15  0  0  0  0  0  0  0  0999 V2000     
   20.5596   16.8952   20.8497 C   0  0  0  0  0  0  0  0  0  0  0  0
   21.2431   17.0718   19.8610 O   0  5  0  0  0  0  0  0  0  0  0  0
   19.9383   15.8731   21.0628 O   0  0  0  0  0  0  0  0  0  0  0  0
   20.4598   18.0248   21.8689 C   0  0  0  0  0  0  0  0  0  0  0  0
   21.4172   18.5581   21.8718 H   0  0  0  0  0  0  0  0  0  0  0  0
   20.3338   17.5771   22.8621 H   0  0  0  0  0  0  0  0  0  0  0  0
   19.2927   19.0016   21.5712 C   0  0  0  0  0  0  0  0  0  0  0  0
   19.4520   19.4757   20.5929 H   0  0  0  0  0  0  0  0  0  0  0  0
   18.3613   18.4245   21.4889 H   0  0  0  0  0  0  0  0  0  0  0  0
   19.1090   20.0891   22.6547 C   0  0  0  0  0  0  0  0  0  0  0  0
   18.9380   19.6153   23.6312 H   0  0  0  0  0  0  0  0  0  0  0  0
   18.2020   20.6657   22.4261 H   0  0  0  0  0  0  0  0  0  0  0  0
   20.3050   21.0603   22.7513 C   0  0  0  0  0  0  0  0  0  0  0  0
   21.2131   20.5456   23.0891 H   0  0  0  0  0  0  0  0  0  0  0  0
   20.0910   21.8621   23.4700 H   0  0  0  0  0  0  0  0  0  0  0  0
   20.5133   21.5250   21.7788 H   0  0  0  0  0  0  0  0  0  0  0  0
  1  2  1  0  0  0  0
  1  3  2  0  0  0  0
  1  4  1  0  0  0  0
  4  5  1  0  0  0  0
  4  6  1  0  0  0  0
  4  7  1  0  0  0  0
  7  8  1  0  0  0  0
  7  9  1  0  0  0  0
  7 10  1  0  0  0  0
 10 11  1  0  0  0  0
 10 12  1  0  0  0  0
 10 13  1  0  0  0  0
 13 14  1  0  0  0  0
 13 15  1  0  0  0  0
 13 16  1  0  0  0  0
M  END
> <VConfSearch Rank>
334

> <Conf_Id>
17

> <Delta U+W>
-0.432

> <U+W>
-57.336

> <U>
7.263

> <W>
-64.599

> <W(PB)>
-66.503

> <W(SA)>
1.904

> <Valence>
6.734

> <Coulomb>
-0.068

> <VdW>
0.598

> <VdW6>
-4.819

> <VdW12>
5.417

> <Bond>
0.107

> <Angle>
2.469

> <Pdih>
4.157

> <Idih>
0.001

> <Tether>
0.000

$$$$
VeraChem MOL file


 16 15  0  0  0  0  0  0  0  0999 V2000     
   21.5159   17.2435   22.4390 C   0  0  0  0  0  0  0  0  0  0  0  0
   22.5154   17.2365   21.7480 O   0  5  0  0  0  0  0  0  0  0  0  0
   21.5269   17.0420   23.6371 O   0  0  0  0  0  0  0  0  0  0  0  0
   20.1728   17.4954   21.7593 C   0  0  0  0  0  0  0  0  0  0  0  0
   19.3735   17.1323   22.4169 H   0  0  0  0  0  0  0  0  0  0  0  0
   20.1426   16.8784   20.8534 H   0  0  0  0  0  0  0  0  0  0  0  0
   19.9232   18.9790   21.3829 C   0  0  0  0  0  0  0  0  0  0  0  0
   20.7456   19.3370   20.7481 H   0  0  0  0  0  0  0  0  0  0  0  0
   19.0071   19.0446   20.7804 H   0  0  0  0  0  0  0  0  0  0  0  0
   19.7837   19.8904   22.6214 C   0  0  0  0  0  0  0  0  0  0  0  0
   20.7033   19.8487   23.2217 H   0  0  0  0  0  0  0  0  0  0  0  0
   18.9691   19.5240   23.2614 H   0  0  0  0  0  0  0  0  0  0  0  0
   19.5028   21.3521   22.2201 C   0  0  0  0  0  0  0  0  0  0  0  0
   20.3183   21.7535   21.6042 H   0  0  0  0  0  0  0  0  0  0  0  0
   19.4074   21.9861   23.1112 H   0  0  0  0  0  0  0  0  0  0  0  0
   18.5696   21.4300   21.6471 H   0  0  0  0  0  0  0  0  0  0  0  0
  1  2  1  0  0  0  0
  1  3  2  0  0  0  0
  1  4  1  0  0  0  0
  4  5  1  0  0  0  0
  4  6  1  0  0  0  0
  4  7  1  0  0  0  0
  7  8  1  0  0  0  0
  7  9  1  0  0  0  0
  7 10  1  0  0  0  0
 10 11  1  0  0  0  0
 10 12  1  0  0  0  0
 10 13  1  0  0  0  0
 13 14  1  0  0  0  0
 13 15  1  0  0  0  0
 13 16  1  0  0  0  0
M  END
> <VConfSearch Rank>
335

> <Conf_Id>
19

> <Delta U+W>
0.048

> <U+W>
-56.856

> <U>
8.276

> <W>
-65.132

> <W(PB)>
-67.031

> <W(SA)>
1.899

> <Valence>
6.513

> <Coulomb>
1.428

> <VdW>
0.335

> <VdW6>
-5.021

> <VdW12>
5.356

> <Bond>
0.092

> <Angle>
2.417

> <Pdih>
4.003

> <Idih>
0.001

> <Tether>
0.000

$$$$
VeraChem MOL file


 16 15  0  0  0  0  0  0  0  0999 V2000     
   21.6848   20.6744   22.0261 C   0  0  0  0  0  0  0  0  0  0  0  0
   21.5738   21.5326   21.1731 O   0  5  0  0  0  0  0  0  0  0  0  0
   22.6898   20.0098   22.1826 O   0  0  0  0  0  0  0  0  0  0  0  0
   20.5056   20.4365   22.9654 C   0  0  0  0  0  0  0  0  0  0  0  0
   20.1465   21.4182   23.2964 H   0  0  0  0  0  0  0  0  0  0  0  0
   20.8688   19.9140   23.8588 H   0  0  0  0  0  0  0  0  0  0  0  0
   19.3351   19.6475   22.3232 C   0  0  0  0  0  0  0  0  0  0  0  0
   18.4838   19.6449   23.0173 H   0  0  0  0  0  0  0  0  0  0  0  0
   19.0008   20.1672   21.4145 H   0  0  0  0  0  0  0  0  0  0  0  0
   19.7174   18.1909   21.9818 C   0  0  0  0  0  0  0  0  0  0  0  0
   20.0632   17.6762   22.8890 H   0  0  0  0  0  0  0  0  0  0  0  0
   20.5558   18.1812   21.2714 H   0  0  0  0  0  0  0  0  0  0  0  0
   18.5275   17.4201   21.3767 C   0  0  0  0  0  0  0  0  0  0  0  0
   17.6847   17.3833   22.0794 H   0  0  0  0  0  0  0  0  0  0  0  0
   18.8161   16.3879   21.1391 H   0  0  0  0  0  0  0  0  0  0  0  0
   18.1813   17.8970   20.4503 H   0  0  0  0  0  0  0  0  0  0  0  0
  1  2  1  0  0  0  0
  1  3  2  0  0  0  0
  1  4  1  0  0  0  0
  4  5  1  0  0  0  0
  4  6  1  0  0  0  0
  4  7  1  0  0  0  0
  7  8  1  0  0  0  0
  7  9  1  0  0  0  0
  7 10  1  0  0  0  0
 10 11  1  0  0  0  0
 10 12  1  0  0  0  0
 10 13  1  0  0  0  0
 13 14  1  0  0  0  0
 13 15  1  0  0  0  0
 13 16  1  0  0  0  0
M  END
> <VConfSearch Rank>
336

> <Conf_Id>
20

> <Delta U+W>
-0.010

> <U+W>
-56.914

> <U>
8.277

> <W>
-65.191

> <W(PB)>
-67.081

> <W(SA)>
1.890

> <Valence>
6.513

> <Coulomb>
1.429

> <VdW>
0.335

> <VdW6>
-5.021

> <VdW12>
5.356

> <Bond>
0.092

> <Angle>
2.417

> <Pdih>
4.002

> <Idih>
0.001

> <Tether>
0.000

$$$$
VeraChem MOL file


 16 15  0  0  0  0  0  0  0  0999 V2000     
   19.5463   17.1158   22.7489 C   0  0  0  0  0  0  0  0  0  0  0  0
   18.8635   16.7912   23.7003 O   0  5  0  0  0  0  0  0  0  0  0  0
   20.6449   16.6490   22.5221 O   0  0  0  0  0  0  0  0  0  0  0  0
   18.9767   18.1390   21.7700 C   0  0  0  0  0  0  0  0  0  0  0  0
   17.9706   17.8014   21.4950 H   0  0  0  0  0  0  0  0  0  0  0  0
   19.5732   18.1167   20.8508 H   0  0  0  0  0  0  0  0  0  0  0  0
   18.8960   19.5835   22.3353 C   0  0  0  0  0  0  0  0  0  0  0  0
   18.4034   20.2318   21.5981 H   0  0  0  0  0  0  0  0  0  0  0  0
   18.2484   19.5793   23.2230 H   0  0  0  0  0  0  0  0  0  0  0  0
   20.2644   20.1961   22.7179 C   0  0  0  0  0  0  0  0  0  0  0  0
   20.7525   19.5746   23.4815 H   0  0  0  0  0  0  0  0  0  0  0  0
   20.0939   21.1777   23.1810 H   0  0  0  0  0  0  0  0  0  0  0  0
   21.2111   20.3722   21.5116 C   0  0  0  0  0  0  0  0  0  0  0  0
   21.5069   19.4018   21.0928 H   0  0  0  0  0  0  0  0  0  0  0  0
   22.1270   20.8949   21.8160 H   0  0  0  0  0  0  0  0  0  0  0  0
   20.7329   20.9608   20.7179 H   0  0  0  0  0  0  0  0  0  0  0  0
  1  2  1  0  0  0  0
  1  3  2  0  0  0  0
  1  4  1  0  0  0  0
  4  5  1  0  0  0  0
  4  6  1  0  0  0  0
  4  7  1  0  0  0  0
  7  8  1  0  0  0  0
  7  9  1  0  0  0  0
  7 10  1  0  0  0  0
 10 11  1  0  0  0  0
 10 12  1  0  0  0  0
 10 13  1  0  0  0  0
 13 14  1  0  0  0  0
 13 15  1  0  0  0  0
 13 16  1  0  0  0  0
M  END
> <VConfSearch Rank>
337

> <Conf_Id>
37

> <Delta U+W>
1.063

> <U+W>
-55.841

> <U>
9.719

> <W>
-65.560

> <W(PB)>
-67.414

> <W(SA)>
1.854

> <Valence>
7.002

> <Coulomb>
2.402

> <VdW>
0.314

> <VdW6>
-5.861

> <VdW12>
6.175

> <Bond>
0.134

> <Angle>
2.733

> <Pdih>
4.133

> <Idih>
0.002

> <Tether>
0.000

$$$$
VeraChem MOL file


 16 15  0  0  0  0  0  0  0  0999 V2000     
   18.6593   19.3395   23.7197 C   0  0  0  0  0  0  0  0  0  0  0  0
   17.4979   19.6194   23.4968 O   0  5  0  0  0  0  0  0  0  0  0  0
   19.0016   18.4491   24.4722 O   0  0  0  0  0  0  0  0  0  0  0  0
   19.7434   20.1751   23.0441 C   0  0  0  0  0  0  0  0  0  0  0  0
   20.6986   19.9851   23.5468 H   0  0  0  0  0  0  0  0  0  0  0  0
   19.5020   21.2291   23.2250 H   0  0  0  0  0  0  0  0  0  0  0  0
   19.8719   19.9338   21.5151 C   0  0  0  0  0  0  0  0  0  0  0  0
   18.9151   20.1848   21.0367 H   0  0  0  0  0  0  0  0  0  0  0  0
   20.6145   20.6296   21.1019 H   0  0  0  0  0  0  0  0  0  0  0  0
   20.2597   18.4867   21.1281 C   0  0  0  0  0  0  0  0  0  0  0  0
   20.2434   18.3984   20.0331 H   0  0  0  0  0  0  0  0  0  0  0  0
   19.5051   17.7830   21.5063 H   0  0  0  0  0  0  0  0  0  0  0  0
   21.6556   18.0730   21.6404 C   0  0  0  0  0  0  0  0  0  0  0  0
   22.4244   18.7814   21.3053 H   0  0  0  0  0  0  0  0  0  0  0  0
   21.9237   17.0781   21.2620 H   0  0  0  0  0  0  0  0  0  0  0  0
   21.6801   18.0282   22.7367 H   0  0  0  0  0  0  0  0  0  0  0  0
  1  2  1  0  0  0  0
  1  3  2  0  0  0  0
  1  4  1  0  0  0  0
  4  5  1  0  0  0  0
  4  6  1  0  0  0  0
  4  7  1  0  0  0  0
  7  8  1  0  0  0  0
  7  9  1  0  0  0  0
  7 10  1  0  0  0  0
 10 11  1  0  0  0  0
 10 12  1  0  0  0  0
 10 13  1  0  0  0  0
 13 14  1  0  0  0  0
 13 15  1  0  0  0  0
 13 16  1  0  0  0  0
M  END
> <VConfSearch Rank>
338

> <Conf_Id>
39

> <Delta U+W>
1.129

> <U+W>
-55.775

> <U>
9.718

> <W>
-65.493

> <W(PB)>
-67.361

> <W(SA)>
1.869

> <Valence>
7.002

> <Coulomb>
2.402

> <VdW>
0.314

> <VdW6>
-5.861

> <VdW12>
6.175

> <Bond>
0.134

> <Angle>
2.734

> <Pdih>
4.133

> <Idih>
0.002

> <Tether>
0.000

$$$$
VeraChem MOL file


 16 15  0  0  0  0  0  0  0  0999 V2000     
   21.1073   19.6059   20.7711 C   0  0  0  0  0  0  0  0  0  0  0  0
   22.1551   20.0578   21.1891 O   0  5  0  0  0  0  0  0  0  0  0  0
   20.4437   20.1455   19.9076 O   0  0  0  0  0  0  0  0  0  0  0  0
   20.6489   18.2459   21.2944 C   0  0  0  0  0  0  0  0  0  0  0  0
   21.3958   17.8655   22.0018 H   0  0  0  0  0  0  0  0  0  0  0  0
   20.6567   17.5657   20.4348 H   0  0  0  0  0  0  0  0  0  0  0  0
   19.2355   18.2251   21.9417 C   0  0  0  0  0  0  0  0  0  0  0  0
   18.5294   18.7902   21.3175 H   0  0  0  0  0  0  0  0  0  0  0  0
   18.8772   17.1868   21.9398 H   0  0  0  0  0  0  0  0  0  0  0  0
   19.1843   18.7393   23.4006 C   0  0  0  0  0  0  0  0  0  0  0  0
   19.8930   18.1732   24.0208 H   0  0  0  0  0  0  0  0  0  0  0  0
   18.1848   18.5319   23.8071 H   0  0  0  0  0  0  0  0  0  0  0  0
   19.4647   20.2500   23.5398 C   0  0  0  0  0  0  0  0  0  0  0  0
   20.5090   20.4861   23.3017 H   0  0  0  0  0  0  0  0  0  0  0  0
   19.2781   20.5818   24.5693 H   0  0  0  0  0  0  0  0  0  0  0  0
   18.8177   20.8341   22.8723 H   0  0  0  0  0  0  0  0  0  0  0  0
  1  2  1  0  0  0  0
  1  3  2  0  0  0  0
  1  4  1  0  0  0  0
  4  5  1  0  0  0  0
  4  6  1  0  0  0  0
  4  7  1  0  0  0  0
  7  8  1  0  0  0  0
  7  9  1  0  0  0  0
  7 10  1  0  0  0  0
 10 11  1  0  0  0  0
 10 12  1  0  0  0  0
 10 13  1  0  0  0  0
 13 14  1  0  0  0  0
 13 15  1  0  0  0  0
 13 16  1  0  0  0  0
M  END
> <VConfSearch Rank>
339

> <Conf_Id>
47

> <Delta U+W>
2.301

> <U+W>
-54.603

> <U>
11.258

> <W>
-65.861

> <W(PB)>
-67.702

> <W(SA)>
1.841

> <Valence>
8.169

> <Coulomb>
2.735

> <VdW>
0.355

> <VdW6>
-6.245

> <VdW12>
6.600

> <Bond>
0.149

> <Angle>
3.168

> <Pdih>
4.840

> <Idih>
0.011

> <Tether>
0.000

$$$$
VeraChem MOL file


 16 15  0  0  0  0  0  0  0  0999 V2000     
   21.0788   17.8974   23.2938 C   0  0  0  0  0  0  0  0  0  0  0  0
   20.9708   18.1539   24.4769 O   0  5  0  0  0  0  0  0  0  0  0  0
   22.1489   17.7607   22.7344 O   0  0  0  0  0  0  0  0  0  0  0  0
   19.8061   17.6450   22.4875 C   0  0  0  0  0  0  0  0  0  0  0  0
   19.3185   16.7758   22.9441 H   0  0  0  0  0  0  0  0  0  0  0  0
   20.0823   17.3496   21.4679 H   0  0  0  0  0  0  0  0  0  0  0  0
   18.7976   18.8276   22.4501 C   0  0  0  0  0  0  0  0  0  0  0  0
   17.8130   18.4249   22.1766 H   0  0  0  0  0  0  0  0  0  0  0  0
   18.6818   19.2529   23.4567 H   0  0  0  0  0  0  0  0  0  0  0  0
   19.1481   19.9451   21.4383 C   0  0  0  0  0  0  0  0  0  0  0  0
   18.2986   20.6396   21.3799 H   0  0  0  0  0  0  0  0  0  0  0  0
   19.2648   19.5156   20.4337 H   0  0  0  0  0  0  0  0  0  0  0  0
   20.4117   20.7487   21.8092 C   0  0  0  0  0  0  0  0  0  0  0  0
   20.5302   21.6092   21.1382 H   0  0  0  0  0  0  0  0  0  0  0  0
   21.3161   20.1345   21.7204 H   0  0  0  0  0  0  0  0  0  0  0  0
   20.3507   21.1265   22.8382 H   0  0  0  0  0  0  0  0  0  0  0  0
  1  2  1  0  0  0  0
  1  3  2  0  0  0  0
  1  4  1  0  0  0  0
  4  5  1  0  0  0  0
  4  6  1  0  0  0  0
  4  7  1  0  0  0  0
  7  8  1  0  0  0  0
  7  9  1  0  0  0  0
  7 10  1  0  0  0  0
 10 11  1  0  0  0  0
 10 12  1  0  0  0  0
 10 13  1  0  0  0  0
 13 14  1  0  0  0  0
 13 15  1  0  0  0  0
 13 16  1  0  0  0  0
M  END
> <VConfSearch Rank>
340

> <Conf_Id>
45

> <Delta U+W>
2.303

> <U+W>
-54.601

> <U>
11.258

> <W>
-65.860

> <W(PB)>
-67.709

> <W(SA)>
1.849

> <Valence>
8.169

> <Coulomb>
2.735

> <VdW>
0.355

> <VdW6>
-6.245

> <VdW12>
6.600

> <Bond>
0.149

> <Angle>
3.168

> <Pdih>
4.840

> <Idih>
0.011

> <Tether>
0.000

$$$$
VeraChem MOL file


 16 15  0  0  0  0  0  0  0  0999 V2000     
   18.0643   18.1834   20.1979 C   0  0  0  0  0  0  0  0  0  0  0  0
   17.1439   18.7209   20.7825 O   0  5  0  0  0  0  0  0  0  0  0  0
   17.9107   17.5077   19.2004 O   0  0  0  0  0  0  0  0  0  0  0  0
   19.4937   18.3463   20.7177 C   0  0  0  0  0  0  0  0  0  0  0  0
   20.0903   18.7775   19.9051 H   0  0  0  0  0  0  0  0  0  0  0  0
   19.8893   17.3416   20.9077 H   0  0  0  0  0  0  0  0  0  0  0  0
   19.6407   19.2169   21.9940 C   0  0  0  0  0  0  0  0  0  0  0  0
   19.2377   20.2205   21.7993 H   0  0  0  0  0  0  0  0  0  0  0  0
   19.0366   18.7830   22.8029 H   0  0  0  0  0  0  0  0  0  0  0  0
   21.1118   19.3271   22.4468 C   0  0  0  0  0  0  0  0  0  0  0  0
   21.7167   19.7625   21.6393 H   0  0  0  0  0  0  0  0  0  0  0  0
   21.5154   18.3242   22.6435 H   0  0  0  0  0  0  0  0  0  0  0  0
   21.2512   20.1928   23.7145 C   0  0  0  0  0  0  0  0  0  0  0  0
   20.8834   21.2119   23.5366 H   0  0  0  0  0  0  0  0  0  0  0  0
   22.3027   20.2609   24.0227 H   0  0  0  0  0  0  0  0  0  0  0  0
   20.6806   19.7630   24.5483 H   0  0  0  0  0  0  0  0  0  0  0  0
  1  2  1  0  0  0  0
  1  3  2  0  0  0  0
  1  4  1  0  0  0  0
  4  5  1  0  0  0  0
  4  6  1  0  0  0  0
  4  7  1  0  0  0  0
  7  8  1  0  0  0  0
  7  9  1  0  0  0  0
  7 10  1  0  0  0  0
 10 11  1  0  0  0  0
 10 12  1  0  0  0  0
 10 13  1  0  0  0  0
 13 14  1  0  0  0  0
 13 15  1  0  0  0  0
 13 16  1  0  0  0  0
M  END
> <VConfSearch Rank>
341

> <Conf_Id>
0

> <Delta U+W>
0.000

> <U+W>
-56.904

> <U>
7.329

> <W>
-64.233

> <W(PB)>
-66.148

> <W(SA)>
1.915

> <Valence>
6.755

> <Coulomb>
-0.421

> <VdW>
0.995

> <VdW6>
-4.495

> <VdW12>
5.490

> <Bond>
0.106

> <Angle>
2.715

> <Pdih>
3.934

> <Idih>
0.000

> <Tether>
0.000

$$$$
VeraChem MOL file


 16 15  0  0  0  0  0  0  0  0999 V2000     
   17.9316   20.8122   22.3645 C   0  0  0  0  0  0  0  0  0  0  0  0
   17.5140   20.8299   23.5052 O   0  5  0  0  0  0  0  0  0  0  0  0
   17.8904   21.7705   21.6189 O   0  0  0  0  0  0  0  0  0  0  0  0
   18.5580   19.5224   21.8462 C   0  0  0  0  0  0  0  0  0  0  0  0
   18.3571   19.4540   20.7702 H   0  0  0  0  0  0  0  0  0  0  0  0
   18.0469   18.6785   22.3254 H   0  0  0  0  0  0  0  0  0  0  0  0
   20.0817   19.4436   22.1109 C   0  0  0  0  0  0  0  0  0  0  0  0
   20.5776   20.3014   21.6356 H   0  0  0  0  0  0  0  0  0  0  0  0
   20.2674   19.5259   23.1909 H   0  0  0  0  0  0  0  0  0  0  0  0
   20.6900   18.1299   21.5772 C   0  0  0  0  0  0  0  0  0  0  0  0
   20.5052   18.0476   20.4971 H   0  0  0  0  0  0  0  0  0  0  0  0
   20.1949   17.2719   22.0527 H   0  0  0  0  0  0  0  0  0  0  0  0
   22.2065   18.0584   21.8441 C   0  0  0  0  0  0  0  0  0  0  0  0
   22.4187   18.1071   22.9202 H   0  0  0  0  0  0  0  0  0  0  0  0
   22.7313   18.8885   21.3532 H   0  0  0  0  0  0  0  0  0  0  0  0
   22.6232   17.1187   21.4587 H   0  0  0  0  0  0  0  0  0  0  0  0
  1  2  1  0  0  0  0
  1  3  2  0  0  0  0
  1  4  1  0  0  0  0
  4  5  1  0  0  0  0
  4  6  1  0  0  0  0
  4  7  1  0  0  0  0
  7  8  1  0  0  0  0
  7  9  1  0  0  0  0
  7 10  1  0  0  0  0
 10 11  1  0  0  0  0
 10 12  1  0  0  0  0
 10 13  1  0  0  0  0
 13 14  1  0  0  0  0
 13 15  1  0  0  0  0
 13 16  1  0  0  0  0
M  END
> <VConfSearch Rank>
342

> <Conf_Id>
22

> <Delta U+W>
-1.185

> <U+W>
-58.089

> <U>
6.298

> <W>
-64.387

> <W(PB)>
-66.329

> <W(SA)>
1.942

> <Valence>
6.246

> <Coulomb>
-0.408

> <VdW>
0.460

> <VdW6>
-4.207

> <VdW12>
4.667

> <Bond>
0.072

> <Angle>
2.246

> <Pdih>
3.928

> <Idih>
0.001

> <Tether>
0.000

$$$$
VeraChem MOL file


 16 15  0  0  0  0  0  0  0  0999 V2000     
   19.4677   21.4991   21.0332 C   0  0  0  0  0  0  0  0  0  0  0  0
   18.3754   21.8079   20.6001 O   0  5  0  0  0  0  0  0  0  0  0  0
   20.4940   22.0812   20.7434 O   0  0  0  0  0  0  0  0  0  0  0  0
   19.5576   20.3039   21.9755 C   0  0  0  0  0  0  0  0  0  0  0  0
   18.6299   20.2593   22.5584 H   0  0  0  0  0  0  0  0  0  0  0  0
   20.3754   20.4942   22.6799 H   0  0  0  0  0  0  0  0  0  0  0  0
   19.7835   18.9644   21.2274 C   0  0  0  0  0  0  0  0  0  0  0  0
   18.9964   18.8458   20.4699 H   0  0  0  0  0  0  0  0  0  0  0  0
   20.7362   19.0054   20.6816 H   0  0  0  0  0  0  0  0  0  0  0  0
   19.7675   17.7297   22.1578 C   0  0  0  0  0  0  0  0  0  0  0  0
   19.8233   16.8220   21.5411 H   0  0  0  0  0  0  0  0  0  0  0  0
   18.8101   17.6819   22.6949 H   0  0  0  0  0  0  0  0  0  0  0  0
   20.9323   17.7156   23.1707 C   0  0  0  0  0  0  0  0  0  0  0  0
   20.8536   18.5459   23.8836 H   0  0  0  0  0  0  0  0  0  0  0  0
   21.8999   17.7918   22.6578 H   0  0  0  0  0  0  0  0  0  0  0  0
   20.9281   16.7815   23.7472 H   0  0  0  0  0  0  0  0  0  0  0  0
  1  2  1  0  0  0  0
  1  3  2  0  0  0  0
  1  4  1  0  0  0  0
  4  5  1  0  0  0  0
  4  6  1  0  0  0  0
  4  7  1  0  0  0  0
  7  8  1  0  0  0  0
  7  9  1  0  0  0  0
  7 10  1  0  0  0  0
 10 11  1  0  0  0  0
 10 12  1  0  0  0  0
 10 13  1  0  0  0  0
 13 14  1  0  0  0  0
 13 15  1  0  0  0  0
 13 16  1  0  0  0  0
M  END
> <VConfSearch Rank>
343

> <Conf_Id>
36

> <Delta U+W>
-0.427

> <U+W>
-57.331

> <U>
7.263

> <W>
-64.594

> <W(PB)>
-66.513

> <W(SA)>
1.920

> <Valence>
6.734

> <Coulomb>
-0.068

> <VdW>
0.598

> <VdW6>
-4.819

> <VdW12>
5.417

> <Bond>
0.107

> <Angle>
2.469

> <Pdih>
4.157

> <Idih>
0.001

> <Tether>
0.000

$$$$
VeraChem MOL file


 16 15  0  0  0  0  0  0  0  0999 V2000     
   18.6871   19.6778   19.8030 C   0  0  0  0  0  0  0  0  0  0  0  0
   17.8732   18.8131   19.5463 O   0  5  0  0  0  0  0  0  0  0  0  0
   19.1055   20.4708   18.9832 O   0  0  0  0  0  0  0  0  0  0  0  0
   19.2279   19.7599   21.2262 C   0  0  0  0  0  0  0  0  0  0  0  0
   18.4269   19.4494   21.9067 H   0  0  0  0  0  0  0  0  0  0  0  0
   19.4517   20.8109   21.4453 H   0  0  0  0  0  0  0  0  0  0  0  0
   20.4928   18.8886   21.4397 C   0  0  0  0  0  0  0  0  0  0  0  0
   20.2458   17.8333   21.2589 H   0  0  0  0  0  0  0  0  0  0  0  0
   21.2436   19.1654   20.6867 H   0  0  0  0  0  0  0  0  0  0  0  0
   21.1179   19.0452   22.8451 C   0  0  0  0  0  0  0  0  0  0  0  0
   21.3757   20.0987   23.0216 H   0  0  0  0  0  0  0  0  0  0  0  0
   22.0624   18.4848   22.8760 H   0  0  0  0  0  0  0  0  0  0  0  0
   20.2011   18.5383   23.9789 C   0  0  0  0  0  0  0  0  0  0  0  0
   19.2904   19.1449   24.0596 H   0  0  0  0  0  0  0  0  0  0  0  0
   20.7209   18.5896   24.9444 H   0  0  0  0  0  0  0  0  0  0  0  0
   19.9064   17.4945   23.8089 H   0  0  0  0  0  0  0  0  0  0  0  0
  1  2  1  0  0  0  0
  1  3  2  0  0  0  0
  1  4  1  0  0  0  0
  4  5  1  0  0  0  0
  4  6  1  0  0  0  0
  4  7  1  0  0  0  0
  7  8  1  0  0  0  0
  7  9  1  0  0  0  0
  7 10  1  0  0  0  0
 10 11  1  0  0  0  0
 10 12  1  0  0  0  0
 10 13  1  0  0  0  0
 13 14  1  0  0  0  0
 13 15  1  0  0  0  0
 13 16  1  0  0  0  0
M  END
> <VConfSearch Rank>
344

> <Conf_Id>
17

> <Delta U+W>
-0.432

> <U+W>
-57.336

> <U>
7.263

> <W>
-64.599

> <W(PB)>
-66.503

> <W(SA)>
1.904

> <Valence>
6.734

> <Coulomb>
-0.068

> <VdW>
0.598

> <VdW6>
-4.819

> <VdW12>
5.417

> <Bond>
0.107

> <Angle>
2.469

> <Pdih>
4.157

> <Idih>
0.001

> <Tether>
0.000

$$$$
VeraChem MOL file


 16 15  0  0  0  0  0  0  0  0999 V2000     
   22.4750   19.4390   21.8816 C   0  0  0  0  0  0  0  0  0  0  0  0
   23.1182   18.8678   22.7396 O   0  5  0  0  0  0  0  0  0  0  0  0
   22.7261   19.3669   20.6950 O   0  0  0  0  0  0  0  0  0  0  0  0
   21.3037   20.3129   22.3221 C   0  0  0  0  0  0  0  0  0  0  0  0
   21.0610   21.0092   21.5101 H   0  0  0  0  0  0  0  0  0  0  0  0
   21.6472   20.9199   23.1681 H   0  0  0  0  0  0  0  0  0  0  0  0
   20.0408   19.5146   22.7376 C   0  0  0  0  0  0  0  0  0  0  0  0
   20.3052   18.8018   23.5311 H   0  0  0  0  0  0  0  0  0  0  0  0
   19.3061   20.2086   23.1680 H   0  0  0  0  0  0  0  0  0  0  0  0
   19.3969   18.7627   21.5526 C   0  0  0  0  0  0  0  0  0  0  0  0
   20.1168   18.0501   21.1265 H   0  0  0  0  0  0  0  0  0  0  0  0
   19.1444   19.4751   20.7550 H   0  0  0  0  0  0  0  0  0  0  0  0
   18.1257   18.0058   21.9857 C   0  0  0  0  0  0  0  0  0  0  0  0
   18.3559   17.2643   22.7620 H   0  0  0  0  0  0  0  0  0  0  0  0
   17.6814   17.4767   21.1326 H   0  0  0  0  0  0  0  0  0  0  0  0
   17.3727   18.6981   22.3847 H   0  0  0  0  0  0  0  0  0  0  0  0
  1  2  1  0  0  0  0
  1  3  2  0  0  0  0
  1  4  1  0  0  0  0
  4  5  1  0  0  0  0
  4  6  1  0  0  0  0
  4  7  1  0  0  0  0
  7  8  1  0  0  0  0
  7  9  1  0  0  0  0
  7 10  1  0  0  0  0
 10 11  1  0  0  0  0
 10 12  1  0  0  0  0
 10 13  1  0  0  0  0
 13 14  1  0  0  0  0
 13 15  1  0  0  0  0
 13 16  1  0  0  0  0
M  END
> <VConfSearch Rank>
345

> <Conf_Id>
19

> <Delta U+W>
0.048

> <U+W>
-56.856

> <U>
8.276

> <W>
-65.132

> <W(PB)>
-67.031

> <W(SA)>
1.899

> <Valence>
6.513

> <Coulomb>
1.428

> <VdW>
0.335

> <VdW6>
-5.021

> <VdW12>
5.356

> <Bond>
0.092

> <Angle>
2.417

> <Pdih>
4.003

> <Idih>
0.001

> <Tether>
0.000

$$$$
VeraChem MOL file


 16 15  0  0  0  0  0  0  0  0999 V2000     
   18.2253   18.0765   20.7705 C   0  0  0  0  0  0  0  0  0  0  0  0
   17.8828   16.9971   21.2109 O   0  5  0  0  0  0  0  0  0  0  0  0
   18.5415   18.2587   19.6116 O   0  0  0  0  0  0  0  0  0  0  0  0
   18.2356   19.2711   21.7205 C   0  0  0  0  0  0  0  0  0  0  0  0
   17.2995   19.2450   22.2907 H   0  0  0  0  0  0  0  0  0  0  0  0
   18.2190   20.1923   21.1255 H   0  0  0  0  0  0  0  0  0  0  0  0
   19.4375   19.2890   22.7004 C   0  0  0  0  0  0  0  0  0  0  0  0
   19.2902   20.0966   23.4303 H   0  0  0  0  0  0  0  0  0  0  0  0
   19.4579   18.3487   23.2689 H   0  0  0  0  0  0  0  0  0  0  0  0
   20.7879   19.4942   21.9803 C   0  0  0  0  0  0  0  0  0  0  0  0
   20.7616   20.4284   21.4025 H   0  0  0  0  0  0  0  0  0  0  0  0
   20.9557   18.6801   21.2614 H   0  0  0  0  0  0  0  0  0  0  0  0
   21.9609   19.5418   22.9794 C   0  0  0  0  0  0  0  0  0  0  0  0
   21.8380   20.3690   23.6908 H   0  0  0  0  0  0  0  0  0  0  0  0
   22.9125   19.6871   22.4517 H   0  0  0  0  0  0  0  0  0  0  0  0
   22.0289   18.6060   23.5496 H   0  0  0  0  0  0  0  0  0  0  0  0
  1  2  1  0  0  0  0
  1  3  2  0  0  0  0
  1  4  1  0  0  0  0
  4  5  1  0  0  0  0
  4  6  1  0  0  0  0
  4  7  1  0  0  0  0
  7  8  1  0  0  0  0
  7  9  1  0  0  0  0
  7 10  1  0  0  0  0
 10 11  1  0  0  0  0
 10 12  1  0  0  0  0
 10 13  1  0  0  0  0
 13 14  1  0  0  0  0
 13 15  1  0  0  0  0
 13 16  1  0  0  0  0
M  END
> <VConfSearch Rank>
346

> <Conf_Id>
20

> <Delta U+W>
-0.010

> <U+W>
-56.914

> <U>
8.277

> <W>
-65.191

> <W(PB)>
-67.081

> <W(SA)>
1.890

> <Valence>
6.513

> <Coulomb>
1.429

> <VdW>
0.335

> <VdW6>
-5.021

> <VdW12>
5.356

> <Bond>
0.092

> <Angle>
2.417

> <Pdih>
4.002

> <Idih>
0.001

> <Tether>
0.000

$$$$
VeraChem MOL file


 16 15  0  0  0  0  0  0  0  0999 V2000     
   19.6173   18.0561   20.3463 C   0  0  0  0  0  0  0  0  0  0  0  0
   20.3654   18.1686   19.3953 O   0  5  0  0  0  0  0  0  0  0  0  0
   18.4062   18.0545   20.2498 O   0  0  0  0  0  0  0  0  0  0  0  0
   20.2350   17.8733   21.7301 C   0  0  0  0  0  0  0  0  0  0  0  0
   20.9733   17.0666   21.6530 H   0  0  0  0  0  0  0  0  0  0  0  0
   19.4588   17.5186   22.4178 H   0  0  0  0  0  0  0  0  0  0  0  0
   20.9241   19.1468   22.2922 C   0  0  0  0  0  0  0  0  0  0  0  0
   21.4068   18.9029   23.2482 H   0  0  0  0  0  0  0  0  0  0  0  0
   21.7303   19.4432   21.6070 H   0  0  0  0  0  0  0  0  0  0  0  0
   19.9728   20.3501   22.4949 C   0  0  0  0  0  0  0  0  0  0  0  0
   19.5094   20.6265   21.5376 H   0  0  0  0  0  0  0  0  0  0  0  0
   20.5658   21.2184   22.8134 H   0  0  0  0  0  0  0  0  0  0  0  0
   18.8727   20.0862   23.5449 C   0  0  0  0  0  0  0  0  0  0  0  0
   18.1800   19.3045   23.2078 H   0  0  0  0  0  0  0  0  0  0  0  0
   18.2850   20.9962   23.7217 H   0  0  0  0  0  0  0  0  0  0  0  0
   19.3088   19.7732   24.5025 H   0  0  0  0  0  0  0  0  0  0  0  0
  1  2  1  0  0  0  0
  1  3  2  0  0  0  0
  1  4  1  0  0  0  0
  4  5  1  0  0  0  0
  4  6  1  0  0  0  0
  4  7  1  0  0  0  0
  7  8  1  0  0  0  0
  7  9  1  0  0  0  0
  7 10  1  0  0  0  0
 10 11  1  0  0  0  0
 10 12  1  0  0  0  0
 10 13  1  0  0  0  0
 13 14  1  0  0  0  0
 13 15  1  0  0  0  0
 13 16  1  0  0  0  0
M  END
> <VConfSearch Rank>
347

> <Conf_Id>
37

> <Delta U+W>
1.063

> <U+W>
-55.841

> <U>
9.719

> <W>
-65.560

> <W(PB)>
-67.414

> <W(SA)>
1.854

> <Valence>
7.002

> <Coulomb>
2.402

> <VdW>
0.314

> <VdW6>
-5.861

> <VdW12>
6.175

> <Bond>
0.134

> <Angle>
2.733

> <Pdih>
4.133

> <Idih>
0.002

> <Tether>
0.000

$$$$
VeraChem MOL file


 16 15  0  0  0  0  0  0  0  0999 V2000     
   22.0976   19.9578   21.8584 C   0  0  0  0  0  0  0  0  0  0  0  0
   22.3376   21.1475   21.9203 O   0  5  0  0  0  0  0  0  0  0  0  0
   22.7828   19.1073   22.3908 O   0  0  0  0  0  0  0  0  0  0  0  0
   20.8908   19.5088   21.0388 C   0  0  0  0  0  0  0  0  0  0  0  0
   20.9703   18.4309   20.8570 H   0  0  0  0  0  0  0  0  0  0  0  0
   20.9639   19.9947   20.0588 H   0  0  0  0  0  0  0  0  0  0  0  0
   19.5203   19.8559   21.6822 C   0  0  0  0  0  0  0  0  0  0  0  0
   19.4523   20.9462   21.8005 H   0  0  0  0  0  0  0  0  0  0  0  0
   18.7156   19.5703   20.9914 H   0  0  0  0  0  0  0  0  0  0  0  0
   19.2731   19.1878   23.0557 C   0  0  0  0  0  0  0  0  0  0  0  0
   18.3220   19.5587   23.4619 H   0  0  0  0  0  0  0  0  0  0  0  0
   20.0531   19.4937   23.7667 H   0  0  0  0  0  0  0  0  0  0  0  0
   19.2159   17.6472   22.9817 C   0  0  0  0  0  0  0  0  0  0  0  0
   18.4673   17.3152   22.2506 H   0  0  0  0  0  0  0  0  0  0  0  0
   18.9452   17.2260   23.9585 H   0  0  0  0  0  0  0  0  0  0  0  0
   20.1886   17.2260   22.6971 H   0  0  0  0  0  0  0  0  0  0  0  0
  1  2  1  0  0  0  0
  1  3  2  0  0  0  0
  1  4  1  0  0  0  0
  4  5  1  0  0  0  0
  4  6  1  0  0  0  0
  4  7  1  0  0  0  0
  7  8  1  0  0  0  0
  7  9  1  0  0  0  0
  7 10  1  0  0  0  0
 10 11  1  0  0  0  0
 10 12  1  0  0  0  0
 10 13  1  0  0  0  0
 13 14  1  0  0  0  0
 13 15  1  0  0  0  0
 13 16  1  0  0  0  0
M  END
> <VConfSearch Rank>
348

> <Conf_Id>
39

> <Delta U+W>
1.129

> <U+W>
-55.775

> <U>
9.718

> <W>
-65.493

> <W(PB)>
-67.361

> <W(SA)>
1.869

> <Valence>
7.002

> <Coulomb>
2.402

> <VdW>
0.314

> <VdW6>
-5.861

> <VdW12>
6.175

> <Bond>
0.134

> <Angle>
2.734

> <Pdih>
4.133

> <Idih>
0.002

> <Tether>
0.000

$$$$
VeraChem MOL file


 16 15  0  0  0  0  0  0  0  0999 V2000     
   21.2853   20.3738   22.8907 C   0  0  0  0  0  0  0  0  0  0  0  0
   22.3712   20.1203   22.4078 O   0  5  0  0  0  0  0  0  0  0  0  0
   21.1136   20.5886   24.0745 O   0  0  0  0  0  0  0  0  0  0  0  0
   20.0926   20.5183   21.9470 C   0  0  0  0  0  0  0  0  0  0  0  0
   20.4343   20.3717   20.9151 H   0  0  0  0  0  0  0  0  0  0  0  0
   19.7635   21.5612   22.0228 H   0  0  0  0  0  0  0  0  0  0  0  0
   18.8871   19.5852   22.2522 C   0  0  0  0  0  0  0  0  0  0  0  0
   18.6798   19.5820   23.3313 H   0  0  0  0  0  0  0  0  0  0  0  0
   17.9964   20.0149   21.7742 H   0  0  0  0  0  0  0  0  0  0  0  0
   19.0454   18.1342   21.7372 C   0  0  0  0  0  0  0  0  0  0  0  0
   19.2545   18.1419   20.6585 H   0  0  0  0  0  0  0  0  0  0  0  0
   18.0851   17.6149   21.8615 H   0  0  0  0  0  0  0  0  0  0  0  0
   20.1361   17.3271   22.4715 C   0  0  0  0  0  0  0  0  0  0  0  0
   21.1382   17.7101   22.2433 H   0  0  0  0  0  0  0  0  0  0  0  0
   20.1074   16.2740   22.1633 H   0  0  0  0  0  0  0  0  0  0  0  0
   19.9908   17.3666   23.5590 H   0  0  0  0  0  0  0  0  0  0  0  0
  1  2  1  0  0  0  0
  1  3  2  0  0  0  0
  1  4  1  0  0  0  0
  4  5  1  0  0  0  0
  4  6  1  0  0  0  0
  4  7  1  0  0  0  0
  7  8  1  0  0  0  0
  7  9  1  0  0  0  0
  7 10  1  0  0  0  0
 10 11  1  0  0  0  0
 10 12  1  0  0  0  0
 10 13  1  0  0  0  0
 13 14  1  0  0  0  0
 13 15  1  0  0  0  0
 13 16  1  0  0  0  0
M  END
> <VConfSearch Rank>
349

> <Conf_Id>
47

> <Delta U+W>
2.301

> <U+W>
-54.603

> <U>
11.258

> <W>
-65.861

> <W(PB)>
-67.702

> <W(SA)>
1.841

> <Valence>
8.169

> <Coulomb>
2.735

> <VdW>
0.355

> <VdW6>
-6.245

> <VdW12>
6.600

> <Bond>
0.149

> <Angle>
3.168

> <Pdih>
4.840

> <Idih>
0.011

> <Tether>
0.000

$$$$
VeraChem MOL file


 16 15  0  0  0  0  0  0  0  0999 V2000     
   18.7342   20.6922   22.6938 C   0  0  0  0  0  0  0  0  0  0  0  0
   17.6906   20.2976   23.1757 O   0  5  0  0  0  0  0  0  0  0  0  0
   18.7902   21.5275   21.8128 O   0  0  0  0  0  0  0  0  0  0  0  0
   20.0458   20.1799   23.2861 C   0  0  0  0  0  0  0  0  0  0  0  0
   20.0557   20.4975   24.3353 H   0  0  0  0  0  0  0  0  0  0  0  0
   20.8828   20.6919   22.7958 H   0  0  0  0  0  0  0  0  0  0  0  0
   20.2465   18.6396   23.2232 C   0  0  0  0  0  0  0  0  0  0  0  0
   21.0027   18.3654   23.9712 H   0  0  0  0  0  0  0  0  0  0  0  0
   19.3219   18.1288   23.5262 H   0  0  0  0  0  0  0  0  0  0  0  0
   20.7240   18.1047   21.8516 C   0  0  0  0  0  0  0  0  0  0  0  0
   20.9849   17.0433   21.9644 H   0  0  0  0  0  0  0  0  0  0  0  0
   21.6474   18.6190   21.5515 H   0  0  0  0  0  0  0  0  0  0  0  0
   19.6710   18.2326   20.7312 C   0  0  0  0  0  0  0  0  0  0  0  0
   20.0099   17.7144   19.8249 H   0  0  0  0  0  0  0  0  0  0  0  0
   19.4966   19.2822   20.4650 H   0  0  0  0  0  0  0  0  0  0  0  0
   18.7140   17.7903   21.0374 H   0  0  0  0  0  0  0  0  0  0  0  0
  1  2  1  0  0  0  0
  1  3  2  0  0  0  0
  1  4  1  0  0  0  0
  4  5  1  0  0  0  0
  4  6  1  0  0  0  0
  4  7  1  0  0  0  0
  7  8  1  0  0  0  0
  7  9  1  0  0  0  0
  7 10  1  0  0  0  0
 10 11  1  0  0  0  0
 10 12  1  0  0  0  0
 10 13  1  0  0  0  0
 13 14  1  0  0  0  0
 13 15  1  0  0  0  0
 13 16  1  0  0  0  0
M  END
> <VConfSearch Rank>
350

> <Conf_Id>
45

> <Delta U+W>
2.303

> <U+W>
-54.601

> <U>
11.258

> <W>
-65.860

> <W(PB)>
-67.709

> <W(SA)>
1.849

> <Valence>
8.169

> <Coulomb>
2.735

> <VdW>
0.355

> <VdW6>
-6.245

> <VdW12>
6.600

> <Bond>
0.149

> <Angle>
3.168

> <Pdih>
4.840

> <Idih>
0.011

> <Tether>
0.000

$$$$
VeraChem MOL file


 16 15  0  0  0  0  0  0  0  0999 V2000     
   22.5273   20.1536   22.3182 C   0  0  0  0  0  0  0  0  0  0  0  0
   23.0145   19.5745   21.3668 O   0  5  0  0  0  0  0  0  0  0  0  0
   23.1660   20.8892   23.0437 O   0  0  0  0  0  0  0  0  0  0  0  0
   21.0442   19.9679   22.6431 C   0  0  0  0  0  0  0  0  0  0  0  0
   20.5802   20.9612   22.6338 H   0  0  0  0  0  0  0  0  0  0  0  0
   20.9788   19.5931   23.6714 H   0  0  0  0  0  0  0  0  0  0  0  0
   20.2696   19.0193   21.6899 C   0  0  0  0  0  0  0  0  0  0  0  0
   20.3431   19.3969   20.6606 H   0  0  0  0  0  0  0  0  0  0  0  0
   20.7422   18.0273   21.6993 H   0  0  0  0  0  0  0  0  0  0  0  0
   18.7849   18.8906   22.0907 C   0  0  0  0  0  0  0  0  0  0  0  0
   18.3106   19.8818   22.0799 H   0  0  0  0  0  0  0  0  0  0  0  0
   18.7099   18.5114   23.1193 H   0  0  0  0  0  0  0  0  0  0  0  0
   18.0211   17.9474   21.1405 C   0  0  0  0  0  0  0  0  0  0  0  0
   18.0532   18.3196   20.1080 H   0  0  0  0  0  0  0  0  0  0  0  0
   16.9678   17.8671   21.4393 H   0  0  0  0  0  0  0  0  0  0  0  0
   18.4554   16.9391   21.1551 H   0  0  0  0  0  0  0  0  0  0  0  0
  1  2  1  0  0  0  0
  1  3  2  0  0  0  0
  1  4  1  0  0  0  0
  4  5  1  0  0  0  0
  4  6  1  0  0  0  0
  4  7  1  0  0  0  0
  7  8  1  0  0  0  0
  7  9  1  0  0  0  0
  7 10  1  0  0  0  0
 10 11  1  0  0  0  0
 10 12  1  0  0  0  0
 10 13  1  0  0  0  0
 13 14  1  0  0  0  0
 13 15  1  0  0  0  0
 13 16  1  0  0  0  0
M  END
> <VConfSearch Rank>
351

> <Conf_Id>
0

> <Delta U+W>
0.000

> <U+W>
-56.904

> <U>
7.329

> <W>
-64.233

> <W(PB)>
-66.148

> <W(SA)>
1.915

> <Valence>
6.755

> <Coulomb>
-0.421

> <VdW>
0.995

> <VdW6>
-4.495

> <VdW12>
5.490

> <Bond>
0.106

> <Angle>
2.715

> <Pdih>
3.934

> <Idih>
0.000

> <Tether>
0.000

$$$$
VeraChem MOL file


 16 15  0  0  0  0  0  0  0  0999 V2000     
   17.4530   19.9063   21.5242 C   0  0  0  0  0  0  0  0  0  0  0  0
   16.9831   20.6005   22.4035 O   0  5  0  0  0  0  0  0  0  0  0  0
   17.1291   19.9905   20.3563 O   0  0  0  0  0  0  0  0  0  0  0  0
   18.5206   18.8864   21.9042 C   0  0  0  0  0  0  0  0  0  0  0  0
   18.4256   18.0261   21.2307 H   0  0  0  0  0  0  0  0  0  0  0  0
   18.3053   18.5291   22.9185 H   0  0  0  0  0  0  0  0  0  0  0  0
   19.9564   19.4625   21.8348 C   0  0  0  0  0  0  0  0  0  0  0  0
   20.1524   19.8272   20.8169 H   0  0  0  0  0  0  0  0  0  0  0  0
   20.0321   20.3303   22.5047 H   0  0  0  0  0  0  0  0  0  0  0  0
   21.0164   18.4111   22.2238 C   0  0  0  0  0  0  0  0  0  0  0  0
   20.9414   17.5434   21.5536 H   0  0  0  0  0  0  0  0  0  0  0  0
   20.8211   18.0466   23.2419 H   0  0  0  0  0  0  0  0  0  0  0  0
   22.4427   18.9914   22.1525 C   0  0  0  0  0  0  0  0  0  0  0  0
   22.5552   19.8423   22.8371 H   0  0  0  0  0  0  0  0  0  0  0  0
   22.6764   19.3354   21.1364 H   0  0  0  0  0  0  0  0  0  0  0  0
   23.1839   18.2313   22.4319 H   0  0  0  0  0  0  0  0  0  0  0  0
  1  2  1  0  0  0  0
  1  3  2  0  0  0  0
  1  4  1  0  0  0  0
  4  5  1  0  0  0  0
  4  6  1  0  0  0  0
  4  7  1  0  0  0  0
  7  8  1  0  0  0  0
  7  9  1  0  0  0  0
  7 10  1  0  0  0  0
 10 11  1  0  0  0  0
 10 12  1  0  0  0  0
 10 13  1  0  0  0  0
 13 14  1  0  0  0  0
 13 15  1  0  0  0  0
 13 16  1  0  0  0  0
M  END
> <VConfSearch Rank>
352

> <Conf_Id>
22

> <Delta U+W>
-1.185

> <U+W>
-58.089

> <U>
6.298

> <W>
-64.387

> <W(PB)>
-66.329

> <W(SA)>
1.942

> <Valence>
6.246

> <Coulomb>
-0.408

> <VdW>
0.460

> <VdW6>
-4.207

> <VdW12>
4.667

> <Bond>
0.072

> <Angle>
2.246

> <Pdih>
3.928

> <Idih>
0.001

> <Tether>
0.000

$$$$
VeraChem MOL file


 16 15  0  0  0  0  0  0  0  0999 V2000     
   21.5981   17.1461   22.1693 C   0  0  0  0  0  0  0  0  0  0  0  0
   21.5758   16.3705   23.1041 O   0  5  0  0  0  0  0  0  0  0  0  0
   22.5635   17.3011   21.4482 O   0  0  0  0  0  0  0  0  0  0  0  0
   20.3537   17.9847   21.8991 C   0  0  0  0  0  0  0  0  0  0  0  0
   19.4759   17.3941   22.1875 H   0  0  0  0  0  0  0  0  0  0  0  0
   20.2918   18.1524   20.8178 H   0  0  0  0  0  0  0  0  0  0  0  0
   20.3624   19.3357   22.6604 C   0  0  0  0  0  0  0  0  0  0  0  0
   20.5128   19.1371   23.7306 H   0  0  0  0  0  0  0  0  0  0  0  0
   21.2221   19.9360   22.3321 H   0  0  0  0  0  0  0  0  0  0  0  0
   19.0596   20.1495   22.4846 C   0  0  0  0  0  0  0  0  0  0  0  0
   19.1034   21.0317   23.1381 H   0  0  0  0  0  0  0  0  0  0  0  0
   18.2010   19.5538   22.8239 H   0  0  0  0  0  0  0  0  0  0  0  0
   18.8255   20.6172   21.0322 C   0  0  0  0  0  0  0  0  0  0  0  0
   18.6620   19.7668   20.3586 H   0  0  0  0  0  0  0  0  0  0  0  0
   19.6846   21.1912   20.6610 H   0  0  0  0  0  0  0  0  0  0  0  0
   17.9386   21.2615   20.9749 H   0  0  0  0  0  0  0  0  0  0  0  0
  1  2  1  0  0  0  0
  1  3  2  0  0  0  0
  1  4  1  0  0  0  0
  4  5  1  0  0  0  0
  4  6  1  0  0  0  0
  4  7  1  0  0  0  0
  7  8  1  0  0  0  0
  7  9  1  0  0  0  0
  7 10  1  0  0  0  0
 10 11  1  0  0  0  0
 10 12  1  0  0  0  0
 10 13  1  0  0  0  0
 13 14  1  0  0  0  0
 13 15  1  0  0  0  0
 13 16  1  0  0  0  0
M  END
> <VConfSearch Rank>
353

> <Conf_Id>
36

> <Delta U+W>
-0.427

> <U+W>
-57.331

> <U>
7.263

> <W>
-64.594

> <W(PB)>
-66.513

> <W(SA)>
1.920

> <Valence>
6.734

> <Coulomb>
-0.068

> <VdW>
0.598

> <VdW6>
-4.819

> <VdW12>
5.417

> <Bond>
0.107

> <Angle>
2.469

> <Pdih>
4.157

> <Idih>
0.001

> <Tether>
0.000

$$$$
VeraChem MOL file


 16 15  0  0  0  0  0  0  0  0999 V2000     
   21.2170   16.9881   21.2874 C   0  0  0  0  0  0  0  0  0  0  0  0
   20.9580   16.6834   20.1402 O   0  5  0  0  0  0  0  0  0  0  0  0
   21.6843   16.2138   22.0987 O   0  0  0  0  0  0  0  0  0  0  0  0
   20.9210   18.4138   21.7396 C   0  0  0  0  0  0  0  0  0  0  0  0
   21.0729   19.0757   20.8795 H   0  0  0  0  0  0  0  0  0  0  0  0
   21.6624   18.6911   22.4986 H   0  0  0  0  0  0  0  0  0  0  0  0
   19.4875   18.5788   22.3078 C   0  0  0  0  0  0  0  0  0  0  0  0
   18.7535   18.3394   21.5259 H   0  0  0  0  0  0  0  0  0  0  0  0
   19.3384   17.8425   23.1097 H   0  0  0  0  0  0  0  0  0  0  0  0
   19.2079   19.9909   22.8718 C   0  0  0  0  0  0  0  0  0  0  0  0
   19.9345   20.2258   23.6618 H   0  0  0  0  0  0  0  0  0  0  0  0
   18.2185   19.9908   23.3497 H   0  0  0  0  0  0  0  0  0  0  0  0
   19.2393   21.0945   21.7928 C   0  0  0  0  0  0  0  0  0  0  0  0
   20.2432   21.2086   21.3652 H   0  0  0  0  0  0  0  0  0  0  0  0
   18.9504   22.0614   22.2247 H   0  0  0  0  0  0  0  0  0  0  0  0
   18.5407   20.8665   20.9772 H   0  0  0  0  0  0  0  0  0  0  0  0
  1  2  1  0  0  0  0
  1  3  2  0  0  0  0
  1  4  1  0  0  0  0
  4  5  1  0  0  0  0
  4  6  1  0  0  0  0
  4  7  1  0  0  0  0
  7  8  1  0  0  0  0
  7  9  1  0  0  0  0
  7 10  1  0  0  0  0
 10 11  1  0  0  0  0
 10 12  1  0  0  0  0
 10 13  1  0  0  0  0
 13 14  1  0  0  0  0
 13 15  1  0  0  0  0
 13 16  1  0  0  0  0
M  END
> <VConfSearch Rank>
354

> <Conf_Id>
17

> <Delta U+W>
-0.432

> <U+W>
-57.336

> <U>
7.263

> <W>
-64.599

> <W(PB)>
-66.503

> <W(SA)>
1.904

> <Valence>
6.734

> <Coulomb>
-0.068

> <VdW>
0.598

> <VdW6>
-4.819

> <VdW12>
5.417

> <Bond>
0.107

> <Angle>
2.469

> <Pdih>
4.157

> <Idih>
0.001

> <Tether>
0.000

$$$$
VeraChem MOL file


 16 15  0  0  0  0  0  0  0  0999 V2000     
   20.8647   17.9543   24.0089 C   0  0  0  0  0  0  0  0  0  0  0  0
   22.0705   17.8159   24.0661 O   0  5  0  0  0  0  0  0  0  0  0  0
   20.1906   18.3560   24.9366 O   0  0  0  0  0  0  0  0  0  0  0  0
   20.1580   17.5802   22.7089 C   0  0  0  0  0  0  0  0  0  0  0  0
   19.0930   17.4255   22.9207 H   0  0  0  0  0  0  0  0  0  0  0  0
   20.5601   16.6135   22.3832 H   0  0  0  0  0  0  0  0  0  0  0  0
   20.3316   18.6215   21.5728 C   0  0  0  0  0  0  0  0  0  0  0  0
   21.4027   18.7874   21.3914 H   0  0  0  0  0  0  0  0  0  0  0  0
   19.9138   18.2091   20.6444 H   0  0  0  0  0  0  0  0  0  0  0  0
   19.6404   19.9657   21.8886 C   0  0  0  0  0  0  0  0  0  0  0  0
   20.0651   20.3981   22.8053 H   0  0  0  0  0  0  0  0  0  0  0  0
   18.5720   19.7966   22.0820 H   0  0  0  0  0  0  0  0  0  0  0  0
   19.7993   20.9701   20.7300 C   0  0  0  0  0  0  0  0  0  0  0  0
   20.8592   21.1808   20.5359 H   0  0  0  0  0  0  0  0  0  0  0  0
   19.3035   21.9195   20.9708 H   0  0  0  0  0  0  0  0  0  0  0  0
   19.3525   20.5789   19.8066 H   0  0  0  0  0  0  0  0  0  0  0  0
  1  2  1  0  0  0  0
  1  3  2  0  0  0  0
  1  4  1  0  0  0  0
  4  5  1  0  0  0  0
  4  6  1  0  0  0  0
  4  7  1  0  0  0  0
  7  8  1  0  0  0  0
  7  9  1  0  0  0  0
  7 10  1  0  0  0  0
 10 11  1  0  0  0  0
 10 12  1  0  0  0  0
 10 13  1  0  0  0  0
 13 14  1  0  0  0  0
 13 15  1  0  0  0  0
 13 16  1  0  0  0  0
M  END
> <VConfSearch Rank>
355

> <Conf_Id>
19

> <Delta U+W>
0.048

> <U+W>
-56.856

> <U>
8.276

> <W>
-65.132

> <W(PB)>
-67.031

> <W(SA)>
1.899

> <Valence>
6.513

> <Coulomb>
1.428

> <VdW>
0.335

> <VdW6>
-5.021

> <VdW12>
5.356

> <Bond>
0.092

> <Angle>
2.417

> <Pdih>
4.003

> <Idih>
0.001

> <Tether>
0.000

$$$$
VeraChem MOL file


 16 15  0  0  0  0  0  0  0  0999 V2000     
   18.9028   19.2291   19.9278 C   0  0  0  0  0  0  0  0  0  0  0  0
   18.8018   20.3523   19.4756 O   0  5  0  0  0  0  0  0  0  0  0  0
   17.9942   18.4225   19.9305 O   0  0  0  0  0  0  0  0  0  0  0  0
   20.2514   18.8028   20.5015 C   0  0  0  0  0  0  0  0  0  0  0  0
   21.0250   19.1211   19.7926 H   0  0  0  0  0  0  0  0  0  0  0  0
   20.2863   17.7071   20.5380 H   0  0  0  0  0  0  0  0  0  0  0  0
   20.5582   19.3947   21.9017 C   0  0  0  0  0  0  0  0  0  0  0  0
   21.5948   19.1518   22.1720 H   0  0  0  0  0  0  0  0  0  0  0  0
   20.4916   20.4906   21.8564 H   0  0  0  0  0  0  0  0  0  0  0  0
   19.6085   18.8578   22.9944 C   0  0  0  0  0  0  0  0  0  0  0  0
   19.6670   17.7612   23.0302 H   0  0  0  0  0  0  0  0  0  0  0  0
   18.5692   19.1131   22.7447 H   0  0  0  0  0  0  0  0  0  0  0  0
   19.9564   19.4355   24.3807 C   0  0  0  0  0  0  0  0  0  0  0  0
   20.9800   19.1667   24.6730 H   0  0  0  0  0  0  0  0  0  0  0  0
   19.2720   19.0449   25.1450 H   0  0  0  0  0  0  0  0  0  0  0  0
   19.8756   20.5304   24.3810 H   0  0  0  0  0  0  0  0  0  0  0  0
  1  2  1  0  0  0  0
  1  3  2  0  0  0  0
  1  4  1  0  0  0  0
  4  5  1  0  0  0  0
  4  6  1  0  0  0  0
  4  7  1  0  0  0  0
  7  8  1  0  0  0  0
  7  9  1  0  0  0  0
  7 10  1  0  0  0  0
 10 11  1  0  0  0  0
 10 12  1  0  0  0  0
 10 13  1  0  0  0  0
 13 14  1  0  0  0  0
 13 15  1  0  0  0  0
 13 16  1  0  0  0  0
M  END
> <VConfSearch Rank>
356

> <Conf_Id>
20

> <Delta U+W>
-0.010

> <U+W>
-56.914

> <U>
8.277

> <W>
-65.191

> <W(PB)>
-67.081

> <W(SA)>
1.890

> <Valence>
6.513

> <Coulomb>
1.429

> <VdW>
0.335

> <VdW6>
-5.021

> <VdW12>
5.356

> <Bond>
0.092

> <Angle>
2.417

> <Pdih>
4.002

> <Idih>
0.001

> <Tether>
0.000

$$$$
VeraChem MOL file


 16 15  0  0  0  0  0  0  0  0999 V2000     
   19.1083   19.8913   24.0477 C   0  0  0  0  0  0  0  0  0  0  0  0
   18.7844   19.1611   24.9634 O   0  5  0  0  0  0  0  0  0  0  0  0
   18.4338   20.8270   23.6658 O   0  0  0  0  0  0  0  0  0  0  0  0
   20.4500   19.6381   23.3653 C   0  0  0  0  0  0  0  0  0  0  0  0
   21.2068   19.5595   24.1545 H   0  0  0  0  0  0  0  0  0  0  0  0
   20.7137   20.5194   22.7695 H   0  0  0  0  0  0  0  0  0  0  0  0
   20.4864   18.3550   22.4906 C   0  0  0  0  0  0  0  0  0  0  0  0
   21.5052   18.2097   22.1067 H   0  0  0  0  0  0  0  0  0  0  0  0
   20.2711   17.4868   23.1287 H   0  0  0  0  0  0  0  0  0  0  0  0
   19.4921   18.3628   21.3052 C   0  0  0  0  0  0  0  0  0  0  0  0
   18.4646   18.4727   21.6790 H   0  0  0  0  0  0  0  0  0  0  0  0
   19.5354   17.3868   20.8025 H   0  0  0  0  0  0  0  0  0  0  0  0
   19.7873   19.4694   20.2704 C   0  0  0  0  0  0  0  0  0  0  0  0
   19.6342   20.4675   20.7004 H   0  0  0  0  0  0  0  0  0  0  0  0
   19.1175   19.3747   19.4059 H   0  0  0  0  0  0  0  0  0  0  0  0
   20.8210   19.4035   19.9069 H   0  0  0  0  0  0  0  0  0  0  0  0
  1  2  1  0  0  0  0
  1  3  2  0  0  0  0
  1  4  1  0  0  0  0
  4  5  1  0  0  0  0
  4  6  1  0  0  0  0
  4  7  1  0  0  0  0
  7  8  1  0  0  0  0
  7  9  1  0  0  0  0
  7 10  1  0  0  0  0
 10 11  1  0  0  0  0
 10 12  1  0  0  0  0
 10 13  1  0  0  0  0
 13 14  1  0  0  0  0
 13 15  1  0  0  0  0
 13 16  1  0  0  0  0
M  END
> <VConfSearch Rank>
357

> <Conf_Id>
37

> <Delta U+W>
1.063

> <U+W>
-55.841

> <U>
9.719

> <W>
-65.560

> <W(PB)>
-67.414

> <W(SA)>
1.854

> <Valence>
7.002

> <Coulomb>
2.402

> <VdW>
0.314

> <VdW6>
-5.861

> <VdW12>
6.175

> <Bond>
0.134

> <Angle>
2.733

> <Pdih>
4.133

> <Idih>
0.002

> <Tether>
0.000

$$$$
VeraChem MOL file


 16 15  0  0  0  0  0  0  0  0999 V2000     
   21.0314   17.8933   20.6650 C   0  0  0  0  0  0  0  0  0  0  0  0
   20.7373   16.7250   20.5059 O   0  5  0  0  0  0  0  0  0  0  0  0
   21.1317   18.6895   19.7527 O   0  0  0  0  0  0  0  0  0  0  0  0
   21.3234   18.3752   22.0836 C   0  0  0  0  0  0  0  0  0  0  0  0
   21.8278   19.3467   22.0284 H   0  0  0  0  0  0  0  0  0  0  0  0
   22.0446   17.6760   22.5228 H   0  0  0  0  0  0  0  0  0  0  0  0
   20.0701   18.4601   22.9971 C   0  0  0  0  0  0  0  0  0  0  0  0
   19.6210   17.4602   23.0737 H   0  0  0  0  0  0  0  0  0  0  0  0
   20.3830   18.7357   24.0132 H   0  0  0  0  0  0  0  0  0  0  0  0
   18.9915   19.4563   22.5091 C   0  0  0  0  0  0  0  0  0  0  0  0
   18.1178   19.3821   23.1712 H   0  0  0  0  0  0  0  0  0  0  0  0
   18.6444   19.1709   21.5062 H   0  0  0  0  0  0  0  0  0  0  0  0
   19.4792   20.9206   22.4904 C   0  0  0  0  0  0  0  0  0  0  0  0
   19.8648   21.2202   23.4736 H   0  0  0  0  0  0  0  0  0  0  0  0
   18.6543   21.5963   22.2298 H   0  0  0  0  0  0  0  0  0  0  0  0
   20.2739   21.0659   21.7476 H   0  0  0  0  0  0  0  0  0  0  0  0
  1  2  1  0  0  0  0
  1  3  2  0  0  0  0
  1  4  1  0  0  0  0
  4  5  1  0  0  0  0
  4  6  1  0  0  0  0
  4  7  1  0  0  0  0
  7  8  1  0  0  0  0
  7  9  1  0  0  0  0
  7 10  1  0  0  0  0
 10 11  1  0  0  0  0
 10 12  1  0  0  0  0
 10 13  1  0  0  0  0
 13 14  1  0  0  0  0
 13 15  1  0  0  0  0
 13 16  1  0  0  0  0
M  END
> <VConfSearch Rank>
358

> <Conf_Id>
39

> <Delta U+W>
1.129

> <U+W>
-55.775

> <U>
9.718

> <W>
-65.493

> <W(PB)>
-67.361

> <W(SA)>
1.869

> <Valence>
7.002

> <Coulomb>
2.402

> <VdW>
0.314

> <VdW6>
-5.861

> <VdW12>
6.175

> <Bond>
0.134

> <Angle>
2.734

> <Pdih>
4.133

> <Idih>
0.002

> <Tether>
0.000

$$$$
VeraChem MOL file


 16 15  0  0  0  0  0  0  0  0999 V2000     
   18.0899   18.5691   21.6001 C   0  0  0  0  0  0  0  0  0  0  0  0
   17.7989   17.4388   21.9387 O   0  5  0  0  0  0  0  0  0  0  0  0
   17.9662   18.9790   20.4627 O   0  0  0  0  0  0  0  0  0  0  0  0
   18.5489   19.5491   22.6784 C   0  0  0  0  0  0  0  0  0  0  0  0
   18.5291   19.0438   23.6516 H   0  0  0  0  0  0  0  0  0  0  0  0
   17.7905   20.3395   22.7203 H   0  0  0  0  0  0  0  0  0  0  0  0
   19.9411   20.1978   22.4374 C   0  0  0  0  0  0  0  0  0  0  0  0
   20.0273   20.5215   21.3909 H   0  0  0  0  0  0  0  0  0  0  0  0
   19.9982   21.1124   23.0429 H   0  0  0  0  0  0  0  0  0  0  0  0
   21.1460   19.3040   22.8181 C   0  0  0  0  0  0  0  0  0  0  0  0
   21.0550   18.9808   23.8643 H   0  0  0  0  0  0  0  0  0  0  0  0
   22.0602   19.9108   22.7612 H   0  0  0  0  0  0  0  0  0  0  0  0
   21.3204   18.0709   21.9074 C   0  0  0  0  0  0  0  0  0  0  0  0
   20.5073   17.3492   22.0521 H   0  0  0  0  0  0  0  0  0  0  0  0
   22.2628   17.5560   22.1346 H   0  0  0  0  0  0  0  0  0  0  0  0
   21.3393   18.3621   20.8490 H   0  0  0  0  0  0  0  0  0  0  0  0
  1  2  1  0  0  0  0
  1  3  2  0  0  0  0
  1  4  1  0  0  0  0
  4  5  1  0  0  0  0
  4  6  1  0  0  0  0
  4  7  1  0  0  0  0
  7  8  1  0  0  0  0
  7  9  1  0  0  0  0
  7 10  1  0  0  0  0
 10 11  1  0  0  0  0
 10 12  1  0  0  0  0
 10 13  1  0  0  0  0
 13 14  1  0  0  0  0
 13 15  1  0  0  0  0
 13 16  1  0  0  0  0
M  END
> <VConfSearch Rank>
359

> <Conf_Id>
47

> <Delta U+W>
2.301

> <U+W>
-54.603

> <U>
11.258

> <W>
-65.861

> <W(PB)>
-67.702

> <W(SA)>
1.841

> <Valence>
8.169

> <Coulomb>
2.735

> <VdW>
0.355

> <VdW6>
-6.245

> <VdW12>
6.600

> <Bond>
0.149

> <Angle>
3.168

> <Pdih>
4.840

> <Idih>
0.011

> <Tether>
0.000

$$$$
VeraChem MOL file


 16 15  0  0  0  0  0  0  0  0999 V2000     
   21.4840   20.0819   22.9416 C   0  0  0  0  0  0  0  0  0  0  0  0
   22.4129   19.3002   22.9993 O   0  5  0  0  0  0  0  0  0  0  0  0
   21.1925   20.8416   23.8443 O   0  0  0  0  0  0  0  0  0  0  0  0
   20.6981   20.1790   21.6353 C   0  0  0  0  0  0  0  0  0  0  0  0
   21.4128   20.4984   20.8679 H   0  0  0  0  0  0  0  0  0  0  0  0
   19.9551   20.9809   21.7246 H   0  0  0  0  0  0  0  0  0  0  0  0
   20.0147   18.8619   21.1715 C   0  0  0  0  0  0  0  0  0  0  0  0
   19.8084   18.9475   20.0961 H   0  0  0  0  0  0  0  0  0  0  0  0
   20.7123   18.0198   21.2799 H   0  0  0  0  0  0  0  0  0  0  0  0
   18.6789   18.5403   21.8841 C   0  0  0  0  0  0  0  0  0  0  0  0
   18.2095   17.6880   21.3737 H   0  0  0  0  0  0  0  0  0  0  0  0
   17.9850   19.3853   21.7750 H   0  0  0  0  0  0  0  0  0  0  0  0
   18.8376   18.1885   23.3778 C   0  0  0  0  0  0  0  0  0  0  0  0
   17.8844   17.8361   23.7926 H   0  0  0  0  0  0  0  0  0  0  0  0
   19.1487   19.0624   23.9632 H   0  0  0  0  0  0  0  0  0  0  0  0
   19.5832   17.3952   23.5189 H   0  0  0  0  0  0  0  0  0  0  0  0
  1  2  1  0  0  0  0
  1  3  2  0  0  0  0
  1  4  1  0  0  0  0
  4  5  1  0  0  0  0
  4  6  1  0  0  0  0
  4  7  1  0  0  0  0
  7  8  1  0  0  0  0
  7  9  1  0  0  0  0
  7 10  1  0  0  0  0
 10 11  1  0  0  0  0
 10 12  1  0  0  0  0
 10 13  1  0  0  0  0
 13 14  1  0  0  0  0
 13 15  1  0  0  0  0
 13 16  1  0  0  0  0
M  END
> <VConfSearch Rank>
360

> <Conf_Id>
45

> <Delta U+W>
2.303

> <U+W>
-54.601

> <U>
11.258

> <W>
-65.860

> <W(PB)>
-67.709

> <W(SA)>
1.849

> <Valence>
8.169

> <Coulomb>
2.735

> <VdW>
0.355

> <VdW6>
-6.245

> <VdW12>
6.600

> <Bond>
0.149

> <Angle>
3.168

> <Pdih>
4.840

> <Idih>
0.011

> <Tether>
0.000

$$$$
VeraChem MOL file


 16 15  0  0  0  0  0  0  0  0999 V2000     
   18.1297   18.9155   19.9084 C   0  0  0  0  0  0  0  0  0  0  0  0
   17.9493   17.7237   20.0660 O   0  5  0  0  0  0  0  0  0  0  0  0
   17.5487   19.5673   19.0641 O   0  0  0  0  0  0  0  0  0  0  0  0
   19.1284   19.6574   20.7984 C   0  0  0  0  0  0  0  0  0  0  0  0
   18.5842   20.4702   21.2939 H   0  0  0  0  0  0  0  0  0  0  0  0
   19.8707   20.1234   20.1396 H   0  0  0  0  0  0  0  0  0  0  0  0
   19.8467   18.7841   21.8613 C   0  0  0  0  0  0  0  0  0  0  0  0
   19.0978   18.3156   22.5149 H   0  0  0  0  0  0  0  0  0  0  0  0
   20.3855   17.9685   21.3594 H   0  0  0  0  0  0  0  0  0  0  0  0
   20.8330   19.6116   22.7120 C   0  0  0  0  0  0  0  0  0  0  0  0
   20.2950   20.4265   23.2159 H   0  0  0  0  0  0  0  0  0  0  0  0
   21.5836   20.0792   22.0597 H   0  0  0  0  0  0  0  0  0  0  0  0
   21.5432   18.7388   23.7656 C   0  0  0  0  0  0  0  0  0  0  0  0
   20.8173   18.2830   24.4518 H   0  0  0  0  0  0  0  0  0  0  0  0
   22.2404   19.3421   24.3614 H   0  0  0  0  0  0  0  0  0  0  0  0
   22.1154   17.9331   23.2871 H   0  0  0  0  0  0  0  0  0  0  0  0
  1  2  1  0  0  0  0
  1  3  2  0  0  0  0
  1  4  1  0  0  0  0
  4  5  1  0  0  0  0
  4  6  1  0  0  0  0
  4  7  1  0  0  0  0
  7  8  1  0  0  0  0
  7  9  1  0  0  0  0
  7 10  1  0  0  0  0
 10 11  1  0  0  0  0
 10 12  1  0  0  0  0
 10 13  1  0  0  0  0
 13 14  1  0  0  0  0
 13 15  1  0  0  0  0
 13 16  1  0  0  0  0
M  END
> <VConfSearch Rank>
361

> <Conf_Id>
0

> <Delta U+W>
0.000

> <U+W>
-56.904

> <U>
7.329

> <W>
-64.233

> <W(PB)>
-66.148

> <W(SA)>
1.915

> <Valence>
6.755

> <Coulomb>
-0.421

> <VdW>
0.995

> <VdW6>
-4.495

> <VdW12>
5.490

> <Bond>
0.106

> <Angle>
2.715

> <Pdih>
3.934

> <Idih>
0.000

> <Tether>
0.000

$$$$
VeraChem MOL file


 16 15  0  0  0  0  0  0  0  0999 V2000     
   19.6200   19.8528   24.5419 C   0  0  0  0  0  0  0  0  0  0  0  0
   19.7410   18.9530   25.3491 O   0  5  0  0  0  0  0  0  0  0  0  0
   19.8679   21.0160   24.7899 O   0  0  0  0  0  0  0  0  0  0  0  0
   19.1485   19.5006   23.1354 C   0  0  0  0  0  0  0  0  0  0  0  0
   18.5689   20.3473   22.7479 H   0  0  0  0  0  0  0  0  0  0  0  0
   18.4644   18.6465   23.2089 H   0  0  0  0  0  0  0  0  0  0  0  0
   20.3160   19.1683   22.1738 C   0  0  0  0  0  0  0  0  0  0  0  0
   20.9983   20.0280   22.1205 H   0  0  0  0  0  0  0  0  0  0  0  0
   20.8938   18.3272   22.5815 H   0  0  0  0  0  0  0  0  0  0  0  0
   19.8119   18.8157   20.7589 C   0  0  0  0  0  0  0  0  0  0  0  0
   19.2346   19.6569   20.3506 H   0  0  0  0  0  0  0  0  0  0  0  0
   19.1301   17.9556   20.8117 H   0  0  0  0  0  0  0  0  0  0  0  0
   20.9791   18.4861   19.8075 C   0  0  0  0  0  0  0  0  0  0  0  0
   21.5557   17.6275   20.1759 H   0  0  0  0  0  0  0  0  0  0  0  0
   21.6610   19.3413   19.7114 H   0  0  0  0  0  0  0  0  0  0  0  0
   20.6036   18.2378   18.8062 H   0  0  0  0  0  0  0  0  0  0  0  0
  1  2  1  0  0  0  0
  1  3  2  0  0  0  0
  1  4  1  0  0  0  0
  4  5  1  0  0  0  0
  4  6  1  0  0  0  0
  4  7  1  0  0  0  0
  7  8  1  0  0  0  0
  7  9  1  0  0  0  0
  7 10  1  0  0  0  0
 10 11  1  0  0  0  0
 10 12  1  0  0  0  0
 10 13  1  0  0  0  0
 13 14  1  0  0  0  0
 13 15  1  0  0  0  0
 13 16  1  0  0  0  0
M  END
> <VConfSearch Rank>
362

> <Conf_Id>
22

> <Delta U+W>
-1.185

> <U+W>
-58.089

> <U>
6.298

> <W>
-64.387

> <W(PB)>
-66.329

> <W(SA)>
1.942

> <Valence>
6.246

> <Coulomb>
-0.408

> <VdW>
0.460

> <VdW6>
-4.207

> <VdW12>
4.667

> <Bond>
0.072

> <Angle>
2.246

> <Pdih>
3.928

> <Idih>
0.001

> <Tether>
0.000

$$$$
VeraChem MOL file


 16 15  0  0  0  0  0  0  0  0999 V2000     
   18.6400   17.0120   21.3622 C   0  0  0  0  0  0  0  0  0  0  0  0
   18.7395   15.9768   21.9904 O   0  5  0  0  0  0  0  0  0  0  0  0
   18.2340   17.0670   20.2185 O   0  0  0  0  0  0  0  0  0  0  0  0
   19.0667   18.3096   22.0394 C   0  0  0  0  0  0  0  0  0  0  0  0
   18.8578   18.2186   23.1121 H   0  0  0  0  0  0  0  0  0  0  0  0
   18.4313   19.1139   21.6515 H   0  0  0  0  0  0  0  0  0  0  0  0
   20.5647   18.6413   21.8132 C   0  0  0  0  0  0  0  0  0  0  0  0
   21.1690   17.7807   22.1321 H   0  0  0  0  0  0  0  0  0  0  0  0
   20.7529   18.7721   20.7386 H   0  0  0  0  0  0  0  0  0  0  0  0
   21.0404   19.8948   22.5831 C   0  0  0  0  0  0  0  0  0  0  0  0
   22.1274   19.9949   22.4576 H   0  0  0  0  0  0  0  0  0  0  0  0
   20.8631   19.7593   23.6590 H   0  0  0  0  0  0  0  0  0  0  0  0
   20.3623   21.1965   22.1050 C   0  0  0  0  0  0  0  0  0  0  0  0
   19.2855   21.1883   22.3154 H   0  0  0  0  0  0  0  0  0  0  0  0
   20.5018   21.3386   21.0254 H   0  0  0  0  0  0  0  0  0  0  0  0
   20.7944   22.0651   22.6187 H   0  0  0  0  0  0  0  0  0  0  0  0
  1  2  1  0  0  0  0
  1  3  2  0  0  0  0
  1  4  1  0  0  0  0
  4  5  1  0  0  0  0
  4  6  1  0  0  0  0
  4  7  1  0  0  0  0
  7  8  1  0  0  0  0
  7  9  1  0  0  0  0
  7 10  1  0  0  0  0
 10 11  1  0  0  0  0
 10 12  1  0  0  0  0
 10 13  1  0  0  0  0
 13 14  1  0  0  0  0
 13 15  1  0  0  0  0
 13 16  1  0  0  0  0
M  END
> <VConfSearch Rank>
363

> <Conf_Id>
36

> <Delta U+W>
-0.427

> <U+W>
-57.331

> <U>
7.263

> <W>
-64.594

> <W(PB)>
-66.513

> <W(SA)>
1.920

> <Valence>
6.734

> <Coulomb>
-0.068

> <VdW>
0.598

> <VdW6>
-4.819

> <VdW12>
5.417

> <Bond>
0.107

> <Angle>
2.469

> <Pdih>
4.157

> <Idih>
0.001

> <Tether>
0.000

$$$$
VeraChem MOL file


 16 15  0  0  0  0  0  0  0  0999 V2000     
   20.8477   20.3463   24.1031 C   0  0  0  0  0  0  0  0  0  0  0  0
   21.7100   19.6914   24.6539 O   0  5  0  0  0  0  0  0  0  0  0  0
   20.2291   21.2375   24.6500 O   0  0  0  0  0  0  0  0  0  0  0  0
   20.5092   20.0192   22.6529 C   0  0  0  0  0  0  0  0  0  0  0  0
   21.4290   19.6797   22.1632 H   0  0  0  0  0  0  0  0  0  0  0  0
   20.2005   20.9475   22.1575 H   0  0  0  0  0  0  0  0  0  0  0  0
   19.3953   18.9481   22.5226 C   0  0  0  0  0  0  0  0  0  0  0  0
   19.7328   18.0101   22.9847 H   0  0  0  0  0  0  0  0  0  0  0  0
   18.5183   19.2790   23.0960 H   0  0  0  0  0  0  0  0  0  0  0  0
   18.9630   18.6845   21.0617 C   0  0  0  0  0  0  0  0  0  0  0  0
   18.6144   19.6202   20.6030 H   0  0  0  0  0  0  0  0  0  0  0  0
   18.1026   18.0011   21.0659 H   0  0  0  0  0  0  0  0  0  0  0  0
   20.0836   18.0685   20.1971 C   0  0  0  0  0  0  0  0  0  0  0  0
   20.9213   18.7657   20.0703 H   0  0  0  0  0  0  0  0  0  0  0  0
   19.7042   17.8201   19.1974 H   0  0  0  0  0  0  0  0  0  0  0  0
   20.4683   17.1460   20.6513 H   0  0  0  0  0  0  0  0  0  0  0  0
  1  2  1  0  0  0  0
  1  3  2  0  0  0  0
  1  4  1  0  0  0  0
  4  5  1  0  0  0  0
  4  6  1  0  0  0  0
  4  7  1  0  0  0  0
  7  8  1  0  0  0  0
  7  9  1  0  0  0  0
  7 10  1  0  0  0  0
 10 11  1  0  0  0  0
 10 12  1  0  0  0  0
 10 13  1  0  0  0  0
 13 14  1  0  0  0  0
 13 15  1  0  0  0  0
 13 16  1  0  0  0  0
M  END
> <VConfSearch Rank>
364

> <Conf_Id>
17

> <Delta U+W>
-0.432

> <U+W>
-57.336

> <U>
7.263

> <W>
-64.599

> <W(PB)>
-66.503

> <W(SA)>
1.904

> <Valence>
6.734

> <Coulomb>
-0.068

> <VdW>
0.598

> <VdW6>
-4.819

> <VdW12>
5.417

> <Bond>
0.107

> <Angle>
2.469

> <Pdih>
4.157

> <Idih>
0.001

> <Tether>
0.000

$$$$
VeraChem MOL file


 16 15  0  0  0  0  0  0  0  0999 V2000     
   18.6484   17.3463   21.6542 C   0  0  0  0  0  0  0  0  0  0  0  0
   17.5563   17.4851   22.1683 O   0  5  0  0  0  0  0  0  0  0  0  0
   18.8076   17.0437   20.4883 O   0  0  0  0  0  0  0  0  0  0  0  0
   19.8850   17.5394   22.5276 C   0  0  0  0  0  0  0  0  0  0  0  0
   20.7385   17.0534   22.0394 H   0  0  0  0  0  0  0  0  0  0  0  0
   19.7099   17.0028   23.4676 H   0  0  0  0  0  0  0  0  0  0  0  0
   20.2174   19.0230   22.8335 C   0  0  0  0  0  0  0  0  0  0  0  0
   19.3442   19.5040   23.2959 H   0  0  0  0  0  0  0  0  0  0  0  0
   21.0283   19.0613   23.5735 H   0  0  0  0  0  0  0  0  0  0  0  0
   20.6411   19.8086   21.5735 C   0  0  0  0  0  0  0  0  0  0  0  0
   19.8288   19.7944   20.8335 H   0  0  0  0  0  0  0  0  0  0  0  0
   21.5065   19.3195   21.1054 H   0  0  0  0  0  0  0  0  0  0  0  0
   20.9981   21.2698   21.9107 C   0  0  0  0  0  0  0  0  0  0  0  0
   20.1391   21.7917   22.3525 H   0  0  0  0  0  0  0  0  0  0  0  0
   21.2959   21.8139   21.0049 H   0  0  0  0  0  0  0  0  0  0  0  0
   21.8318   21.3164   22.6236 H   0  0  0  0  0  0  0  0  0  0  0  0
  1  2  1  0  0  0  0
  1  3  2  0  0  0  0
  1  4  1  0  0  0  0
  4  5  1  0  0  0  0
  4  6  1  0  0  0  0
  4  7  1  0  0  0  0
  7  8  1  0  0  0  0
  7  9  1  0  0  0  0
  7 10  1  0  0  0  0
 10 11  1  0  0  0  0
 10 12  1  0  0  0  0
 10 13  1  0  0  0  0
 13 14  1  0  0  0  0
 13 15  1  0  0  0  0
 13 16  1  0  0  0  0
M  END
> <VConfSearch Rank>
365

> <Conf_Id>
19

> <Delta U+W>
0.048

> <U+W>
-56.856

> <U>
8.276

> <W>
-65.132

> <W(PB)>
-67.031

> <W(SA)>
1.899

> <Valence>
6.513

> <Coulomb>
1.428

> <VdW>
0.335

> <VdW6>
-5.021

> <VdW12>
5.356

> <Bond>
0.092

> <Angle>
2.417

> <Pdih>
4.003

> <Idih>
0.001

> <Tether>
0.000

$$$$
VeraChem MOL file


 16 15  0  0  0  0  0  0  0  0999 V2000     
   18.0339   17.7063   21.7196 C   0  0  0  0  0  0  0  0  0  0  0  0
   18.3375   16.6792   21.1460 O   0  5  0  0  0  0  0  0  0  0  0  0
   17.0987   18.4082   21.3893 O   0  0  0  0  0  0  0  0  0  0  0  0
   18.8585   18.1232   22.9344 C   0  0  0  0  0  0  0  0  0  0  0  0
   18.9978   17.2321   23.5580 H   0  0  0  0  0  0  0  0  0  0  0  0
   18.2734   18.8368   23.5272 H   0  0  0  0  0  0  0  0  0  0  0  0
   20.2420   18.7286   22.5816 C   0  0  0  0  0  0  0  0  0  0  0  0
   20.8166   18.8681   23.5074 H   0  0  0  0  0  0  0  0  0  0  0  0
   20.8052   18.0149   21.9643 H   0  0  0  0  0  0  0  0  0  0  0  0
   20.1281   20.0809   21.8451 C   0  0  0  0  0  0  0  0  0  0  0  0
   19.5542   20.7897   22.4580 H   0  0  0  0  0  0  0  0  0  0  0  0
   19.5722   19.9496   20.9062 H   0  0  0  0  0  0  0  0  0  0  0  0
   21.5162   20.6764   21.5366 C   0  0  0  0  0  0  0  0  0  0  0  0
   22.0830   20.8513   22.4604 H   0  0  0  0  0  0  0  0  0  0  0  0
   21.4173   21.6360   21.0126 H   0  0  0  0  0  0  0  0  0  0  0  0
   22.1002   20.0003   20.8984 H   0  0  0  0  0  0  0  0  0  0  0  0
  1  2  1  0  0  0  0
  1  3  2  0  0  0  0
  1  4  1  0  0  0  0
  4  5  1  0  0  0  0
  4  6  1  0  0  0  0
  4  7  1  0  0  0  0
  7  8  1  0  0  0  0
  7  9  1  0  0  0  0
  7 10  1  0  0  0  0
 10 11  1  0  0  0  0
 10 12  1  0  0  0  0
 10 13  1  0  0  0  0
 13 14  1  0  0  0  0
 13 15  1  0  0  0  0
 13 16  1  0  0  0  0
M  END
> <VConfSearch Rank>
366

> <Conf_Id>
20

> <Delta U+W>
-0.010

> <U+W>
-56.914

> <U>
8.277

> <W>
-65.191

> <W(PB)>
-67.081

> <W(SA)>
1.890

> <Valence>
6.513

> <Coulomb>
1.429

> <VdW>
0.335

> <VdW6>
-5.021

> <VdW12>
5.356

> <Bond>
0.092

> <Angle>
2.417

> <Pdih>
4.002

> <Idih>
0.001

> <Tether>
0.000

$$$$
VeraChem MOL file


 16 15  0  0  0  0  0  0  0  0999 V2000     
   18.9997   20.5290   20.7575 C   0  0  0  0  0  0  0  0  0  0  0  0
   18.7121   21.6771   21.0328 O   0  5  0  0  0  0  0  0  0  0  0  0
   18.2611   19.7805   20.1487 O   0  0  0  0  0  0  0  0  0  0  0  0
   20.3758   20.0131   21.1697 C   0  0  0  0  0  0  0  0  0  0  0  0
   21.1147   20.7465   20.8260 H   0  0  0  0  0  0  0  0  0  0  0  0
   20.5822   19.0857   20.6233 H   0  0  0  0  0  0  0  0  0  0  0  0
   20.5419   19.7962   22.6988 C   0  0  0  0  0  0  0  0  0  0  0  0
   21.5792   19.5040   22.9105 H   0  0  0  0  0  0  0  0  0  0  0  0
   20.3814   20.7552   23.2106 H   0  0  0  0  0  0  0  0  0  0  0  0
   19.5831   18.7417   23.3012 C   0  0  0  0  0  0  0  0  0  0  0  0
   18.5402   19.0406   23.1263 H   0  0  0  0  0  0  0  0  0  0  0  0
   19.7204   18.7224   24.3911 H   0  0  0  0  0  0  0  0  0  0  0  0
   19.8142   17.3206   22.7449 C   0  0  0  0  0  0  0  0  0  0  0  0
   19.5677   17.2664   21.6768 H   0  0  0  0  0  0  0  0  0  0  0  0
   19.1785   16.5954   23.2690 H   0  0  0  0  0  0  0  0  0  0  0  0
   20.8594   17.0114   22.8754 H   0  0  0  0  0  0  0  0  0  0  0  0
  1  2  1  0  0  0  0
  1  3  2  0  0  0  0
  1  4  1  0  0  0  0
  4  5  1  0  0  0  0
  4  6  1  0  0  0  0
  4  7  1  0  0  0  0
  7  8  1  0  0  0  0
  7  9  1  0  0  0  0
  7 10  1  0  0  0  0
 10 11  1  0  0  0  0
 10 12  1  0  0  0  0
 10 13  1  0  0  0  0
 13 14  1  0  0  0  0
 13 15  1  0  0  0  0
 13 16  1  0  0  0  0
M  END
> <VConfSearch Rank>
367

> <Conf_Id>
37

> <Delta U+W>
1.063

> <U+W>
-55.841

> <U>
9.719

> <W>
-65.560

> <W(PB)>
-67.414

> <W(SA)>
1.854

> <Valence>
7.002

> <Coulomb>
2.402

> <VdW>
0.314

> <VdW6>
-5.861

> <VdW12>
6.175

> <Bond>
0.134

> <Angle>
2.733

> <Pdih>
4.133

> <Idih>
0.002

> <Tether>
0.000

$$$$
VeraChem MOL file


 16 15  0  0  0  0  0  0  0  0999 V2000     
   19.8471   18.7113   20.0867 C   0  0  0  0  0  0  0  0  0  0  0  0
   19.7858   17.5828   19.6401 O   0  5  0  0  0  0  0  0  0  0  0  0
   19.0675   19.5938   19.7872 O   0  0  0  0  0  0  0  0  0  0  0  0
   20.9851   19.0442   21.0478 C   0  0  0  0  0  0  0  0  0  0  0  0
   21.0624   20.1338   21.1379 H   0  0  0  0  0  0  0  0  0  0  0  0
   21.9165   18.7050   20.5794 H   0  0  0  0  0  0  0  0  0  0  0  0
   20.8472   18.3874   22.4486 C   0  0  0  0  0  0  0  0  0  0  0  0
   20.8270   17.2957   22.3259 H   0  0  0  0  0  0  0  0  0  0  0  0
   21.7430   18.6139   23.0424 H   0  0  0  0  0  0  0  0  0  0  0  0
   19.5899   18.8250   23.2372 C   0  0  0  0  0  0  0  0  0  0  0  0
   19.5405   18.2473   24.1704 H   0  0  0  0  0  0  0  0  0  0  0  0
   18.6843   18.5719   22.6685 H   0  0  0  0  0  0  0  0  0  0  0  0
   19.5807   20.3295   23.5818 C   0  0  0  0  0  0  0  0  0  0  0  0
   20.4933   20.6161   24.1204 H   0  0  0  0  0  0  0  0  0  0  0  0
   18.7208   20.5716   24.2197 H   0  0  0  0  0  0  0  0  0  0  0  0
   19.5052   20.9448   22.6762 H   0  0  0  0  0  0  0  0  0  0  0  0
  1  2  1  0  0  0  0
  1  3  2  0  0  0  0
  1  4  1  0  0  0  0
  4  5  1  0  0  0  0
  4  6  1  0  0  0  0
  4  7  1  0  0  0  0
  7  8  1  0  0  0  0
  7  9  1  0  0  0  0
  7 10  1  0  0  0  0
 10 11  1  0  0  0  0
 10 12  1  0  0  0  0
 10 13  1  0  0  0  0
 13 14  1  0  0  0  0
 13 15  1  0  0  0  0
 13 16  1  0  0  0  0
M  END
> <VConfSearch Rank>
368

> <Conf_Id>
39

> <Delta U+W>
1.129

> <U+W>
-55.775

> <U>
9.718

> <W>
-65.493

> <W(PB)>
-67.361

> <W(SA)>
1.869

> <Valence>
7.002

> <Coulomb>
2.402

> <VdW>
0.314

> <VdW6>
-5.861

> <VdW12>
6.175

> <Bond>
0.134

> <Angle>
2.734

> <Pdih>
4.133

> <Idih>
0.002

> <Tether>
0.000

$$$$
VeraChem MOL file


 16 15  0  0  0  0  0  0  0  0999 V2000     
   20.2312   17.1308   22.5346 C   0  0  0  0  0  0  0  0  0  0  0  0
   21.3898   16.9188   22.8338 O   0  5  0  0  0  0  0  0  0  0  0  0
   19.6407   16.5147   21.6692 O   0  0  0  0  0  0  0  0  0  0  0  0
   19.4531   18.1621   23.3498 C   0  0  0  0  0  0  0  0  0  0  0  0
   20.1062   18.5633   24.1343 H   0  0  0  0  0  0  0  0  0  0  0  0
   18.6527   17.6129   23.8593 H   0  0  0  0  0  0  0  0  0  0  0  0
   18.8248   19.3223   22.5275 C   0  0  0  0  0  0  0  0  0  0  0  0
   18.3414   18.9228   21.6251 H   0  0  0  0  0  0  0  0  0  0  0  0
   18.0212   19.7678   23.1293 H   0  0  0  0  0  0  0  0  0  0  0  0
   19.8107   20.4527   22.1459 C   0  0  0  0  0  0  0  0  0  0  0  0
   20.2932   20.8481   23.0505 H   0  0  0  0  0  0  0  0  0  0  0  0
   19.2359   21.2840   21.7147 H   0  0  0  0  0  0  0  0  0  0  0  0
   20.8880   20.0238   21.1282 C   0  0  0  0  0  0  0  0  0  0  0  0
   21.5938   19.3103   21.5706 H   0  0  0  0  0  0  0  0  0  0  0  0
   21.4662   20.8940   20.7916 H   0  0  0  0  0  0  0  0  0  0  0  0
   20.4325   19.5566   20.2453 H   0  0  0  0  0  0  0  0  0  0  0  0
  1  2  1  0  0  0  0
  1  3  2  0  0  0  0
  1  4  1  0  0  0  0
  4  5  1  0  0  0  0
  4  6  1  0  0  0  0
  4  7  1  0  0  0  0
  7  8  1  0  0  0  0
  7  9  1  0  0  0  0
  7 10  1  0  0  0  0
 10 11  1  0  0  0  0
 10 12  1  0  0  0  0
 10 13  1  0  0  0  0
 13 14  1  0  0  0  0
 13 15  1  0  0  0  0
 13 16  1  0  0  0  0
M  END
> <VConfSearch Rank>
369

> <Conf_Id>
47

> <Delta U+W>
2.301

> <U+W>
-54.603

> <U>
11.258

> <W>
-65.861

> <W(PB)>
-67.702

> <W(SA)>
1.841

> <Valence>
8.169

> <Coulomb>
2.735

> <VdW>
0.355

> <VdW6>
-6.245

> <VdW12>
6.600

> <Bond>
0.149

> <Angle>
3.168

> <Pdih>
4.840

> <Idih>
0.011

> <Tether>
0.000

$$$$
VeraChem MOL file


 16 15  0  0  0  0  0  0  0  0999 V2000     
   21.2765   19.8309   21.0386 C   0  0  0  0  0  0  0  0  0  0  0  0
   22.0113   20.5619   21.6733 O   0  5  0  0  0  0  0  0  0  0  0  0
   20.8044   20.1308   19.9597 O   0  0  0  0  0  0  0  0  0  0  0  0
   21.0039   18.4288   21.5803 C   0  0  0  0  0  0  0  0  0  0  0  0
   21.9743   17.9209   21.6247 H   0  0  0  0  0  0  0  0  0  0  0  0
   20.3947   17.8777   20.8536 H   0  0  0  0  0  0  0  0  0  0  0  0
   20.3422   18.3767   22.9862 C   0  0  0  0  0  0  0  0  0  0  0  0
   20.5284   17.3814   23.4117 H   0  0  0  0  0  0  0  0  0  0  0  0
   20.8363   19.0911   23.6593 H   0  0  0  0  0  0  0  0  0  0  0  0
   18.8126   18.6132   22.9905 C   0  0  0  0  0  0  0  0  0  0  0  0
   18.4307   18.3971   23.9979 H   0  0  0  0  0  0  0  0  0  0  0  0
   18.3227   17.8984   22.3151 H   0  0  0  0  0  0  0  0  0  0  0  0
   18.4026   20.0512   22.6105 C   0  0  0  0  0  0  0  0  0  0  0  0
   17.3258   20.1971   22.7658 H   0  0  0  0  0  0  0  0  0  0  0  0
   18.6148   20.2613   21.5551 H   0  0  0  0  0  0  0  0  0  0  0  0
   18.9370   20.7886   23.2236 H   0  0  0  0  0  0  0  0  0  0  0  0
  1  2  1  0  0  0  0
  1  3  2  0  0  0  0
  1  4  1  0  0  0  0
  4  5  1  0  0  0  0
  4  6  1  0  0  0  0
  4  7  1  0  0  0  0
  7  8  1  0  0  0  0
  7  9  1  0  0  0  0
  7 10  1  0  0  0  0
 10 11  1  0  0  0  0
 10 12  1  0  0  0  0
 10 13  1  0  0  0  0
 13 14  1  0  0  0  0
 13 15  1  0  0  0  0
 13 16  1  0  0  0  0
M  END
> <VConfSearch Rank>
370

> <Conf_Id>
45

> <Delta U+W>
2.303

> <U+W>
-54.601

> <U>
11.258

> <W>
-65.860

> <W(PB)>
-67.709

> <W(SA)>
1.849

> <Valence>
8.169

> <Coulomb>
2.735

> <VdW>
0.355

> <VdW6>
-6.245

> <VdW12>
6.600

> <Bond>
0.149

> <Angle>
3.168

> <Pdih>
4.840

> <Idih>
0.011

> <Tether>
0.000

$$$$
VeraChem MOL file


 16 15  0  0  0  0  0  0  0  0999 V2000     
   21.2796   17.7852   23.9750 C   0  0  0  0  0  0  0  0  0  0  0  0
   22.3530   18.3222   23.7824 O   0  5  0  0  0  0  0  0  0  0  0  0
   21.0983   16.9623   24.8498 O   0  0  0  0  0  0  0  0  0  0  0  0
   20.0824   18.1404   23.0916 C   0  0  0  0  0  0  0  0  0  0  0  0
   19.2835   18.4985   23.7517 H   0  0  0  0  0  0  0  0  0  0  0  0
   19.7266   17.2103   22.6330 H   0  0  0  0  0  0  0  0  0  0  0  0
   20.3617   19.1950   21.9878 C   0  0  0  0  0  0  0  0  0  0  0  0
   20.7229   20.1227   22.4529 H   0  0  0  0  0  0  0  0  0  0  0  0
   21.1665   18.8331   21.3330 H   0  0  0  0  0  0  0  0  0  0  0  0
   19.1024   19.4922   21.1468 C   0  0  0  0  0  0  0  0  0  0  0  0
   18.2973   19.8558   21.8003 H   0  0  0  0  0  0  0  0  0  0  0  0
   18.7412   18.5655   20.6797 H   0  0  0  0  0  0  0  0  0  0  0  0
   19.3861   20.5401   20.0525 C   0  0  0  0  0  0  0  0  0  0  0  0
   19.7196   21.4884   20.4939 H   0  0  0  0  0  0  0  0  0  0  0  0
   18.4811   20.7397   19.4641 H   0  0  0  0  0  0  0  0  0  0  0  0
   20.1667   20.1886   19.3651 H   0  0  0  0  0  0  0  0  0  0  0  0
  1  2  1  0  0  0  0
  1  3  2  0  0  0  0
  1  4  1  0  0  0  0
  4  5  1  0  0  0  0
  4  6  1  0  0  0  0
  4  7  1  0  0  0  0
  7  8  1  0  0  0  0
  7  9  1  0  0  0  0
  7 10  1  0  0  0  0
 10 11  1  0  0  0  0
 10 12  1  0  0  0  0
 10 13  1  0  0  0  0
 13 14  1  0  0  0  0
 13 15  1  0  0  0  0
 13 16  1  0  0  0  0
M  END
> <VConfSearch Rank>
371

> <Conf_Id>
0

> <Delta U+W>
0.000

> <U+W>
-56.904

> <U>
7.329

> <W>
-64.233

> <W(PB)>
-66.148

> <W(SA)>
1.915

> <Valence>
6.755

> <Coulomb>
-0.421

> <VdW>
0.995

> <VdW6>
-4.495

> <VdW12>
5.490

> <Bond>
0.106

> <Angle>
2.715

> <Pdih>
3.934

> <Idih>
0.000

> <Tether>
0.000

$$$$
VeraChem MOL file


 16 15  0  0  0  0  0  0  0  0999 V2000     
   21.4263   17.7374   23.8442 C   0  0  0  0  0  0  0  0  0  0  0  0
   20.9221   17.7453   24.9494 O   0  5  0  0  0  0  0  0  0  0  0  0
   22.0948   16.8172   23.4172 O   0  0  0  0  0  0  0  0  0  0  0  0
   21.1923   18.9399   22.9367 C   0  0  0  0  0  0  0  0  0  0  0  0
   22.0794   19.0681   22.3047 H   0  0  0  0  0  0  0  0  0  0  0  0
   21.1125   19.8332   23.5679 H   0  0  0  0  0  0  0  0  0  0  0  0
   19.9266   18.7935   22.0565 C   0  0  0  0  0  0  0  0  0  0  0  0
   20.0160   17.8885   21.4397 H   0  0  0  0  0  0  0  0  0  0  0  0
   19.0490   18.6536   22.7030 H   0  0  0  0  0  0  0  0  0  0  0  0
   19.7131   20.0227   21.1487 C   0  0  0  0  0  0  0  0  0  0  0  0
   20.5902   20.1626   20.5016 H   0  0  0  0  0  0  0  0  0  0  0  0
   19.6230   20.9279   21.7652 H   0  0  0  0  0  0  0  0  0  0  0  0
   18.4519   19.8701   20.2758 C   0  0  0  0  0  0  0  0  0  0  0  0
   17.5543   19.7598   20.8984 H   0  0  0  0  0  0  0  0  0  0  0  0
   18.5286   18.9888   19.6254 H   0  0  0  0  0  0  0  0  0  0  0  0
   18.3148   20.7520   19.6366 H   0  0  0  0  0  0  0  0  0  0  0  0
  1  2  1  0  0  0  0
  1  3  2  0  0  0  0
  1  4  1  0  0  0  0
  4  5  1  0  0  0  0
  4  6  1  0  0  0  0
  4  7  1  0  0  0  0
  7  8  1  0  0  0  0
  7  9  1  0  0  0  0
  7 10  1  0  0  0  0
 10 11  1  0  0  0  0
 10 12  1  0  0  0  0
 10 13  1  0  0  0  0
 13 14  1  0  0  0  0
 13 15  1  0  0  0  0
 13 16  1  0  0  0  0
M  END
> <VConfSearch Rank>
372

> <Conf_Id>
22

> <Delta U+W>
-1.185

> <U+W>
-58.089

> <U>
6.298

> <W>
-64.387

> <W(PB)>
-66.329

> <W(SA)>
1.942

> <Valence>
6.246

> <Coulomb>
-0.408

> <VdW>
0.460

> <VdW6>
-4.207

> <VdW12>
4.667

> <Bond>
0.072

> <Angle>
2.246

> <Pdih>
3.928

> <Idih>
0.001

> <Tether>
0.000

$$$$
VeraChem MOL file


 16 15  0  0  0  0  0  0  0  0999 V2000     
   20.9042   18.3834   24.2770 C   0  0  0  0  0  0  0  0  0  0  0  0
   20.5926   18.9226   25.3201 O   0  5  0  0  0  0  0  0  0  0  0  0
   21.9128   17.7205   24.1388 O   0  0  0  0  0  0  0  0  0  0  0  0
   19.9897   18.5655   23.0706 C   0  0  0  0  0  0  0  0  0  0  0  0
   18.9589   18.6514   23.4347 H   0  0  0  0  0  0  0  0  0  0  0  0
   20.0464   17.6524   22.4672 H   0  0  0  0  0  0  0  0  0  0  0  0
   20.3601   19.8064   22.2174 C   0  0  0  0  0  0  0  0  0  0  0  0
   20.3789   20.6906   22.8696 H   0  0  0  0  0  0  0  0  0  0  0  0
   21.3791   19.6894   21.8233 H   0  0  0  0  0  0  0  0  0  0  0  0
   19.3769   20.0686   21.0534 C   0  0  0  0  0  0  0  0  0  0  0  0
   19.6456   21.0187   20.5714 H   0  0  0  0  0  0  0  0  0  0  0  0
   18.3597   20.1973   21.4484 H   0  0  0  0  0  0  0  0  0  0  0  0
   19.3827   18.9511   19.9884 C   0  0  0  0  0  0  0  0  0  0  0  0
   19.0108   18.0041   20.3990 H   0  0  0  0  0  0  0  0  0  0  0  0
   20.3956   18.7844   19.5994 H   0  0  0  0  0  0  0  0  0  0  0  0
   18.7368   19.2231   19.1435 H   0  0  0  0  0  0  0  0  0  0  0  0
  1  2  1  0  0  0  0
  1  3  2  0  0  0  0
  1  4  1  0  0  0  0
  4  5  1  0  0  0  0
  4  6  1  0  0  0  0
  4  7  1  0  0  0  0
  7  8  1  0  0  0  0
  7  9  1  0  0  0  0
  7 10  1  0  0  0  0
 10 11  1  0  0  0  0
 10 12  1  0  0  0  0
 10 13  1  0  0  0  0
 13 14  1  0  0  0  0
 13 15  1  0  0  0  0
 13 16  1  0  0  0  0
M  END
> <VConfSearch Rank>
373

> <Conf_Id>
36

> <Delta U+W>
-0.427

> <U+W>
-57.331

> <U>
7.263

> <W>
-64.594

> <W(PB)>
-66.513

> <W(SA)>
1.920

> <Valence>
6.734

> <Coulomb>
-0.068

> <VdW>
0.598

> <VdW6>
-4.819

> <VdW12>
5.417

> <Bond>
0.107

> <Angle>
2.469

> <Pdih>
4.157

> <Idih>
0.001

> <Tether>
0.000

$$$$
VeraChem MOL file


 16 15  0  0  0  0  0  0  0  0999 V2000     
   21.1357   19.3506   19.6908 C   0  0  0  0  0  0  0  0  0  0  0  0
   20.6252   18.6155   18.8692 O   0  5  0  0  0  0  0  0  0  0  0  0
   22.2470   19.8259   19.5680 O   0  0  0  0  0  0  0  0  0  0  0  0
   20.3473   19.6786   20.9539 C   0  0  0  0  0  0  0  0  0  0  0  0
   19.2841   19.6989   20.6887 H   0  0  0  0  0  0  0  0  0  0  0  0
   20.6222   20.6909   21.2736 H   0  0  0  0  0  0  0  0  0  0  0  0
   20.6034   18.6678   22.1018 C   0  0  0  0  0  0  0  0  0  0  0  0
   20.2846   17.6650   21.7852 H   0  0  0  0  0  0  0  0  0  0  0  0
   21.6853   18.6068   22.2839 H   0  0  0  0  0  0  0  0  0  0  0  0
   19.8977   19.0467   23.4242 C   0  0  0  0  0  0  0  0  0  0  0  0
   20.2252   20.0446   23.7472 H   0  0  0  0  0  0  0  0  0  0  0  0
   20.2169   18.3461   24.2082 H   0  0  0  0  0  0  0  0  0  0  0  0
   18.3577   19.0131   23.3237 C   0  0  0  0  0  0  0  0  0  0  0  0
   17.9843   19.7788   22.6322 H   0  0  0  0  0  0  0  0  0  0  0  0
   17.9049   19.2031   24.3055 H   0  0  0  0  0  0  0  0  0  0  0  0
   18.0080   18.0328   22.9744 H   0  0  0  0  0  0  0  0  0  0  0  0
  1  2  1  0  0  0  0
  1  3  2  0  0  0  0
  1  4  1  0  0  0  0
  4  5  1  0  0  0  0
  4  6  1  0  0  0  0
  4  7  1  0  0  0  0
  7  8  1  0  0  0  0
  7  9  1  0  0  0  0
  7 10  1  0  0  0  0
 10 11  1  0  0  0  0
 10 12  1  0  0  0  0
 10 13  1  0  0  0  0
 13 14  1  0  0  0  0
 13 15  1  0  0  0  0
 13 16  1  0  0  0  0
M  END
> <VConfSearch Rank>
374

> <Conf_Id>
17

> <Delta U+W>
-0.432

> <U+W>
-57.336

> <U>
7.263

> <W>
-64.599

> <W(PB)>
-66.503

> <W(SA)>
1.904

> <Valence>
6.734

> <Coulomb>
-0.068

> <VdW>
0.598

> <VdW6>
-4.819

> <VdW12>
5.417

> <Bond>
0.107

> <Angle>
2.469

> <Pdih>
4.157

> <Idih>
0.001

> <Tether>
0.000

$$$$
VeraChem MOL file


 16 15  0  0  0  0  0  0  0  0999 V2000     
   22.0288   17.7851   21.6445 C   0  0  0  0  0  0  0  0  0  0  0  0
   23.0199   18.4205   21.3438 O   0  5  0  0  0  0  0  0  0  0  0  0
   22.0254   16.9021   22.4791 O   0  0  0  0  0  0  0  0  0  0  0  0
   20.7246   18.0983   20.9162 C   0  0  0  0  0  0  0  0  0  0  0  0
   20.0447   17.2455   21.0323 H   0  0  0  0  0  0  0  0  0  0  0  0
   20.9561   18.1759   19.8472 H   0  0  0  0  0  0  0  0  0  0  0  0
   20.0328   19.4025   21.3913 C   0  0  0  0  0  0  0  0  0  0  0  0
   20.7348   20.2426   21.2961 H   0  0  0  0  0  0  0  0  0  0  0  0
   19.1869   19.6202   20.7253 H   0  0  0  0  0  0  0  0  0  0  0  0
   19.5238   19.3086   22.8461 C   0  0  0  0  0  0  0  0  0  0  0  0
   20.3654   19.1111   23.5246 H   0  0  0  0  0  0  0  0  0  0  0  0
   18.8317   18.4607   22.9425 H   0  0  0  0  0  0  0  0  0  0  0  0
   18.8112   20.6044   23.2814 C   0  0  0  0  0  0  0  0  0  0  0  0
   19.4912   21.4645   23.2237 H   0  0  0  0  0  0  0  0  0  0  0  0
   18.4567   20.5214   24.3170 H   0  0  0  0  0  0  0  0  0  0  0  0
   17.9432   20.8098   22.6413 H   0  0  0  0  0  0  0  0  0  0  0  0
  1  2  1  0  0  0  0
  1  3  2  0  0  0  0
  1  4  1  0  0  0  0
  4  5  1  0  0  0  0
  4  6  1  0  0  0  0
  4  7  1  0  0  0  0
  7  8  1  0  0  0  0
  7  9  1  0  0  0  0
  7 10  1  0  0  0  0
 10 11  1  0  0  0  0
 10 12  1  0  0  0  0
 10 13  1  0  0  0  0
 13 14  1  0  0  0  0
 13 15  1  0  0  0  0
 13 16  1  0  0  0  0
M  END
> <VConfSearch Rank>
375

> <Conf_Id>
19

> <Delta U+W>
0.048

> <U+W>
-56.856

> <U>
8.276

> <W>
-65.132

> <W(PB)>
-67.031

> <W(SA)>
1.899

> <Valence>
6.513

> <Coulomb>
1.428

> <VdW>
0.335

> <VdW6>
-5.021

> <VdW12>
5.356

> <Bond>
0.092

> <Angle>
2.417

> <Pdih>
4.003

> <Idih>
0.001

> <Tether>
0.000

$$$$
VeraChem MOL file


 16 15  0  0  0  0  0  0  0  0999 V2000     
   18.4293   18.8823   23.9526 C   0  0  0  0  0  0  0  0  0  0  0  0
   17.9224   19.9181   24.3353 O   0  5  0  0  0  0  0  0  0  0  0  0
   18.9772   18.0898   24.6929 O   0  0  0  0  0  0  0  0  0  0  0  0
   18.3521   18.5497   22.4650 C   0  0  0  0  0  0  0  0  0  0  0  0
   17.3243   18.7468   22.1377 H   0  0  0  0  0  0  0  0  0  0  0  0
   18.5249   17.4742   22.3368 H   0  0  0  0  0  0  0  0  0  0  0  0
   19.3393   19.3588   21.5843 C   0  0  0  0  0  0  0  0  0  0  0  0
   19.1193   19.1593   20.5268 H   0  0  0  0  0  0  0  0  0  0  0  0
   19.1738   20.4333   21.7446 H   0  0  0  0  0  0  0  0  0  0  0  0
   20.8155   19.0086   21.8716 C   0  0  0  0  0  0  0  0  0  0  0  0
   20.9767   17.9319   21.7230 H   0  0  0  0  0  0  0  0  0  0  0  0
   21.0529   19.2237   22.9229 H   0  0  0  0  0  0  0  0  0  0  0  0
   21.7733   19.8013   20.9602 C   0  0  0  0  0  0  0  0  0  0  0  0
   21.5823   19.5799   19.9020 H   0  0  0  0  0  0  0  0  0  0  0  0
   22.8174   19.5416   21.1778 H   0  0  0  0  0  0  0  0  0  0  0  0
   21.6542   20.8823   21.1116 H   0  0  0  0  0  0  0  0  0  0  0  0
  1  2  1  0  0  0  0
  1  3  2  0  0  0  0
  1  4  1  0  0  0  0
  4  5  1  0  0  0  0
  4  6  1  0  0  0  0
  4  7  1  0  0  0  0
  7  8  1  0  0  0  0
  7  9  1  0  0  0  0
  7 10  1  0  0  0  0
 10 11  1  0  0  0  0
 10 12  1  0  0  0  0
 10 13  1  0  0  0  0
 13 14  1  0  0  0  0
 13 15  1  0  0  0  0
 13 16  1  0  0  0  0
M  END
> <VConfSearch Rank>
376

> <Conf_Id>
20

> <Delta U+W>
-0.010

> <U+W>
-56.914

> <U>
8.277

> <W>
-65.191

> <W(PB)>
-67.081

> <W(SA)>
1.890

> <Valence>
6.513

> <Coulomb>
1.429

> <VdW>
0.335

> <VdW6>
-5.021

> <VdW12>
5.356

> <Bond>
0.092

> <Angle>
2.417

> <Pdih>
4.002

> <Idih>
0.001

> <Tether>
0.000

$$$$
VeraChem MOL file


 16 15  0  0  0  0  0  0  0  0999 V2000     
   21.4876   20.5678   22.2181 C   0  0  0  0  0  0  0  0  0  0  0  0
   22.6020   20.2838   22.6111 O   0  5  0  0  0  0  0  0  0  0  0  0
   20.8975   21.5773   22.5483 O   0  0  0  0  0  0  0  0  0  0  0  0
   20.8097   19.6213   21.2311 C   0  0  0  0  0  0  0  0  0  0  0  0
   21.5250   19.4264   20.4234 H   0  0  0  0  0  0  0  0  0  0  0  0
   19.9593   20.1398   20.7737 H   0  0  0  0  0  0  0  0  0  0  0  0
   20.3580   18.2713   21.8524 C   0  0  0  0  0  0  0  0  0  0  0  0
   19.9568   17.6261   21.0592 H   0  0  0  0  0  0  0  0  0  0  0  0
   21.2410   17.7542   22.2529 H   0  0  0  0  0  0  0  0  0  0  0  0
   19.3055   18.4079   22.9783 C   0  0  0  0  0  0  0  0  0  0  0  0
   19.7082   19.0233   23.7948 H   0  0  0  0  0  0  0  0  0  0  0  0
   19.1153   17.4136   23.4055 H   0  0  0  0  0  0  0  0  0  0  0  0
   17.9678   19.0049   22.4919 C   0  0  0  0  0  0  0  0  0  0  0  0
   18.0908   20.0468   22.1697 H   0  0  0  0  0  0  0  0  0  0  0  0
   17.2260   18.9934   23.3008 H   0  0  0  0  0  0  0  0  0  0  0  0
   17.5612   18.4279   21.6512 H   0  0  0  0  0  0  0  0  0  0  0  0
  1  2  1  0  0  0  0
  1  3  2  0  0  0  0
  1  4  1  0  0  0  0
  4  5  1  0  0  0  0
  4  6  1  0  0  0  0
  4  7  1  0  0  0  0
  7  8  1  0  0  0  0
  7  9  1  0  0  0  0
  7 10  1  0  0  0  0
 10 11  1  0  0  0  0
 10 12  1  0  0  0  0
 10 13  1  0  0  0  0
 13 14  1  0  0  0  0
 13 15  1  0  0  0  0
 13 16  1  0  0  0  0
M  END
> <VConfSearch Rank>
377

> <Conf_Id>
37

> <Delta U+W>
1.063

> <U+W>
-55.841

> <U>
9.719

> <W>
-65.560

> <W(PB)>
-67.414

> <W(SA)>
1.854

> <Valence>
7.002

> <Coulomb>
2.402

> <VdW>
0.314

> <VdW6>
-5.861

> <VdW12>
6.175

> <Bond>
0.134

> <Angle>
2.733

> <Pdih>
4.133

> <Idih>
0.002

> <Tether>
0.000

$$$$
VeraChem MOL file


 16 15  0  0  0  0  0  0  0  0999 V2000     
   20.4112   19.9445   24.1451 C   0  0  0  0  0  0  0  0  0  0  0  0
   20.0365   21.0550   24.4663 O   0  5  0  0  0  0  0  0  0  0  0  0
   20.2220   18.9521   24.8200 O   0  0  0  0  0  0  0  0  0  0  0  0
   21.1908   19.7972   22.8412 C   0  0  0  0  0  0  0  0  0  0  0  0
   21.6819   18.8173   22.8335 H   0  0  0  0  0  0  0  0  0  0  0  0
   21.9920   20.5454   22.8547 H   0  0  0  0  0  0  0  0  0  0  0  0
   20.3318   19.9892   21.5614 C   0  0  0  0  0  0  0  0  0  0  0  0
   19.8989   20.9990   21.5753 H   0  0  0  0  0  0  0  0  0  0  0  0
   20.9849   19.9463   20.6794 H   0  0  0  0  0  0  0  0  0  0  0  0
   19.1896   18.9581   21.3994 C   0  0  0  0  0  0  0  0  0  0  0  0
   18.5945   19.2273   20.5160 H   0  0  0  0  0  0  0  0  0  0  0  0
   18.5086   19.0152   22.2600 H   0  0  0  0  0  0  0  0  0  0  0  0
   19.6961   17.5092   21.2359 C   0  0  0  0  0  0  0  0  0  0  0  0
   20.4071   17.4319   20.4031 H   0  0  0  0  0  0  0  0  0  0  0  0
   18.8581   16.8309   21.0300 H   0  0  0  0  0  0  0  0  0  0  0  0
   20.1922   17.1557   22.1488 H   0  0  0  0  0  0  0  0  0  0  0  0
  1  2  1  0  0  0  0
  1  3  2  0  0  0  0
  1  4  1  0  0  0  0
  4  5  1  0  0  0  0
  4  6  1  0  0  0  0
  4  7  1  0  0  0  0
  7  8  1  0  0  0  0
  7  9  1  0  0  0  0
  7 10  1  0  0  0  0
 10 11  1  0  0  0  0
 10 12  1  0  0  0  0
 10 13  1  0  0  0  0
 13 14  1  0  0  0  0
 13 15  1  0  0  0  0
 13 16  1  0  0  0  0
M  END
> <VConfSearch Rank>
378

> <Conf_Id>
39

> <Delta U+W>
1.129

> <U+W>
-55.775

> <U>
9.718

> <W>
-65.493

> <W(PB)>
-67.361

> <W(SA)>
1.869

> <Valence>
7.002

> <Coulomb>
2.402

> <VdW>
0.314

> <VdW6>
-5.861

> <VdW12>
6.175

> <Bond>
0.134

> <Angle>
2.734

> <Pdih>
4.133

> <Idih>
0.002

> <Tether>
0.000

$$$$
VeraChem MOL file


 16 15  0  0  0  0  0  0  0  0999 V2000     
   19.7797   19.4854   24.2195 C   0  0  0  0  0  0  0  0  0  0  0  0
   20.2988   18.6097   24.8832 O   0  5  0  0  0  0  0  0  0  0  0  0
   18.6769   19.9384   24.4556 O   0  0  0  0  0  0  0  0  0  0  0  0
   20.5929   20.1095   23.0869 C   0  0  0  0  0  0  0  0  0  0  0  0
   21.5853   19.6433   23.0612 H   0  0  0  0  0  0  0  0  0  0  0  0
   20.7472   21.1599   23.3600 H   0  0  0  0  0  0  0  0  0  0  0  0
   19.9320   20.0455   21.6811 C   0  0  0  0  0  0  0  0  0  0  0  0
   18.8710   20.3223   21.7531 H   0  0  0  0  0  0  0  0  0  0  0  0
   20.4025   20.8117   21.0502 H   0  0  0  0  0  0  0  0  0  0  0  0
   20.0783   18.6844   20.9588 C   0  0  0  0  0  0  0  0  0  0  0  0
   21.1402   18.4104   20.8906 H   0  0  0  0  0  0  0  0  0  0  0  0
   19.7226   18.7996   19.9256 H   0  0  0  0  0  0  0  0  0  0  0  0
   19.2880   17.5377   21.6227 C   0  0  0  0  0  0  0  0  0  0  0  0
   19.7138   17.2714   22.5977 H   0  0  0  0  0  0  0  0  0  0  0  0
   19.3154   16.6384   20.9941 H   0  0  0  0  0  0  0  0  0  0  0  0
   18.2365   17.8172   21.7697 H   0  0  0  0  0  0  0  0  0  0  0  0
  1  2  1  0  0  0  0
  1  3  2  0  0  0  0
  1  4  1  0  0  0  0
  4  5  1  0  0  0  0
  4  6  1  0  0  0  0
  4  7  1  0  0  0  0
  7  8  1  0  0  0  0
  7  9  1  0  0  0  0
  7 10  1  0  0  0  0
 10 11  1  0  0  0  0
 10 12  1  0  0  0  0
 10 13  1  0  0  0  0
 13 14  1  0  0  0  0
 13 15  1  0  0  0  0
 13 16  1  0  0  0  0
M  END
> <VConfSearch Rank>
379

> <Conf_Id>
47

> <Delta U+W>
2.301

> <U+W>
-54.603

> <U>
11.258

> <W>
-65.861

> <W(PB)>
-67.702

> <W(SA)>
1.841

> <Valence>
8.169

> <Coulomb>
2.735

> <VdW>
0.355

> <VdW6>
-6.245

> <VdW12>
6.600

> <Bond>
0.149

> <Angle>
3.168

> <Pdih>
4.840

> <Idih>
0.011

> <Tether>
0.000

$$$$
VeraChem MOL file


 16 15  0  0  0  0  0  0  0  0999 V2000     
   19.4632   17.7441   23.6572 C   0  0  0  0  0  0  0  0  0  0  0  0
   19.3412   16.6633   23.1149 O   0  5  0  0  0  0  0  0  0  0  0  0
   18.6752   18.1737   24.4766 O   0  0  0  0  0  0  0  0  0  0  0  0
   20.7167   18.5659   23.3624 C   0  0  0  0  0  0  0  0  0  0  0  0
   21.5681   17.9607   23.6949 H   0  0  0  0  0  0  0  0  0  0  0  0
   20.7087   19.4663   23.9887 H   0  0  0  0  0  0  0  0  0  0  0  0
   20.9232   18.9507   21.8703 C   0  0  0  0  0  0  0  0  0  0  0  0
   21.9836   19.1990   21.7279 H   0  0  0  0  0  0  0  0  0  0  0  0
   20.7272   18.0804   21.2286 H   0  0  0  0  0  0  0  0  0  0  0  0
   20.0866   20.1621   21.3927 C   0  0  0  0  0  0  0  0  0  0  0  0
   20.4257   20.4431   20.3860 H   0  0  0  0  0  0  0  0  0  0  0  0
   20.2840   21.0294   22.0378 H   0  0  0  0  0  0  0  0  0  0  0  0
   18.5690   19.8899   21.3389 C   0  0  0  0  0  0  0  0  0  0  0  0
   18.0449   20.7294   20.8642 H   0  0  0  0  0  0  0  0  0  0  0  0
   18.1495   19.7661   22.3448 H   0  0  0  0  0  0  0  0  0  0  0  0
   18.3514   18.9829   20.7600 H   0  0  0  0  0  0  0  0  0  0  0  0
  1  2  1  0  0  0  0
  1  3  2  0  0  0  0
  1  4  1  0  0  0  0
  4  5  1  0  0  0  0
  4  6  1  0  0  0  0
  4  7  1  0  0  0  0
  7  8  1  0  0  0  0
  7  9  1  0  0  0  0
  7 10  1  0  0  0  0
 10 11  1  0  0  0  0
 10 12  1  0  0  0  0
 10 13  1  0  0  0  0
 13 14  1  0  0  0  0
 13 15  1  0  0  0  0
 13 16  1  0  0  0  0
M  END
> <VConfSearch Rank>
380

> <Conf_Id>
45

> <Delta U+W>
2.303

> <U+W>
-54.601

> <U>
11.258

> <W>
-65.860

> <W(PB)>
-67.709

> <W(SA)>
1.849

> <Valence>
8.169

> <Coulomb>
2.735

> <VdW>
0.355

> <VdW6>
-6.245

> <VdW12>
6.600

> <Bond>
0.149

> <Angle>
3.168

> <Pdih>
4.840

> <Idih>
0.011

> <Tether>
0.000

$$$$
VeraChem MOL file


 16 15  0  0  0  0  0  0  0  0999 V2000     
   17.9500   19.2951   23.7698 C   0  0  0  0  0  0  0  0  0  0  0  0
   17.6759   20.4481   23.4995 O   0  5  0  0  0  0  0  0  0  0  0  0
   17.3595   18.6552   24.6168 O   0  0  0  0  0  0  0  0  0  0  0  0
   19.0859   18.5894   23.0271 C   0  0  0  0  0  0  0  0  0  0  0  0
   18.6634   17.6921   22.5595 H   0  0  0  0  0  0  0  0  0  0  0  0
   19.8074   18.2495   23.7795 H   0  0  0  0  0  0  0  0  0  0  0  0
   19.8112   19.4461   21.9555 C   0  0  0  0  0  0  0  0  0  0  0  0
   19.0825   19.7882   21.2076 H   0  0  0  0  0  0  0  0  0  0  0  0
   20.2276   20.3461   22.4288 H   0  0  0  0  0  0  0  0  0  0  0  0
   20.9393   18.6573   21.2580 C   0  0  0  0  0  0  0  0  0  0  0  0
   20.5239   17.7578   20.7827 H   0  0  0  0  0  0  0  0  0  0  0  0
   21.6698   18.3161   22.0047 H   0  0  0  0  0  0  0  0  0  0  0  0
   21.6559   19.5133   20.1950 C   0  0  0  0  0  0  0  0  0  0  0  0
   20.9540   19.8427   19.4176 H   0  0  0  0  0  0  0  0  0  0  0  0
   22.4545   18.9379   19.7090 H   0  0  0  0  0  0  0  0  0  0  0  0
   22.1083   20.4050   20.6485 H   0  0  0  0  0  0  0  0  0  0  0  0
  1  2  1  0  0  0  0
  1  3  2  0  0  0  0
  1  4  1  0  0  0  0
  4  5  1  0  0  0  0
  4  6  1  0  0  0  0
  4  7  1  0  0  0  0
  7  8  1  0  0  0  0
  7  9  1  0  0  0  0
  7 10  1  0  0  0  0
 10 11  1  0  0  0  0
 10 12  1  0  0  0  0
 10 13  1  0  0  0  0
 13 14  1  0  0  0  0
 13 15  1  0  0  0  0
 13 16  1  0  0  0  0
M  END
> <VConfSearch Rank>
381

> <Conf_Id>
0

> <Delta U+W>
0.000

> <U+W>
-56.904

> <U>
7.329

> <W>
-64.233

> <W(PB)>
-66.148

> <W(SA)>
1.915

> <Valence>
6.755

> <Coulomb>
-0.421

> <VdW>
0.995

> <VdW6>
-4.495

> <VdW12>
5.490

> <Bond>
0.106

> <Angle>
2.715

> <Pdih>
3.934

> <Idih>
0.000

> <Tether>
0.000

$$$$
VeraChem MOL file


 16 15  0  0  0  0  0  0  0  0999 V2000     
   19.4719   18.7287   19.2976 C   0  0  0  0  0  0  0  0  0  0  0  0
   18.2882   18.6489   19.0365 O   0  5  0  0  0  0  0  0  0  0  0  0
   20.3013   19.1716   18.5284 O   0  0  0  0  0  0  0  0  0  0  0  0
   19.9395   18.2645   20.6726 C   0  0  0  0  0  0  0  0  0  0  0  0
   20.9560   17.8656   20.5704 H   0  0  0  0  0  0  0  0  0  0  0  0
   19.2961   17.4347   20.9894 H   0  0  0  0  0  0  0  0  0  0  0  0
   19.9134   19.3944   21.7312 C   0  0  0  0  0  0  0  0  0  0  0  0
   20.5521   20.2226   21.3941 H   0  0  0  0  0  0  0  0  0  0  0  0
   18.8922   19.7918   21.8130 H   0  0  0  0  0  0  0  0  0  0  0  0
   20.3907   18.8985   23.1121 C   0  0  0  0  0  0  0  0  0  0  0  0
   21.4122   18.5016   23.0309 H   0  0  0  0  0  0  0  0  0  0  0  0
   19.7519   18.0707   23.4500 H   0  0  0  0  0  0  0  0  0  0  0  0
   20.3621   20.0281   24.1606 C   0  0  0  0  0  0  0  0  0  0  0  0
   19.3452   20.4228   24.2851 H   0  0  0  0  0  0  0  0  0  0  0  0
   21.0177   20.8570   23.8629 H   0  0  0  0  0  0  0  0  0  0  0  0
   20.7042   19.6590   25.1362 H   0  0  0  0  0  0  0  0  0  0  0  0
  1  2  1  0  0  0  0
  1  3  2  0  0  0  0
  1  4  1  0  0  0  0
  4  5  1  0  0  0  0
  4  6  1  0  0  0  0
  4  7  1  0  0  0  0
  7  8  1  0  0  0  0
  7  9  1  0  0  0  0
  7 10  1  0  0  0  0
 10 11  1  0  0  0  0
 10 12  1  0  0  0  0
 10 13  1  0  0  0  0
 13 14  1  0  0  0  0
 13 15  1  0  0  0  0
 13 16  1  0  0  0  0
M  END
> <VConfSearch Rank>
382

> <Conf_Id>
22

> <Delta U+W>
-1.185

> <U+W>
-58.089

> <U>
6.298

> <W>
-64.387

> <W(PB)>
-66.329

> <W(SA)>
1.942

> <Valence>
6.246

> <Coulomb>
-0.408

> <VdW>
0.460

> <VdW6>
-4.207

> <VdW12>
4.667

> <Bond>
0.072

> <Angle>
2.246

> <Pdih>
3.928

> <Idih>
0.001

> <Tether>
0.000

$$$$
VeraChem MOL file


 16 15  0  0  0  0  0  0  0  0999 V2000     
   20.1746   19.9982   24.4237 C   0  0  0  0  0  0  0  0  0  0  0  0
   19.5520   20.9580   24.8326 O   0  5  0  0  0  0  0  0  0  0  0  0
   21.1874   19.5812   24.9493 O   0  0  0  0  0  0  0  0  0  0  0  0
   19.6681   19.2912   23.1714 C   0  0  0  0  0  0  0  0  0  0  0  0
   18.5741   19.3665   23.1568 H   0  0  0  0  0  0  0  0  0  0  0  0
   19.9197   18.2284   23.2625 H   0  0  0  0  0  0  0  0  0  0  0  0
   20.2616   19.8818   21.8661 C   0  0  0  0  0  0  0  0  0  0  0  0
   20.0675   20.9632   21.8475 H   0  0  0  0  0  0  0  0  0  0  0  0
   21.3539   19.7624   21.8732 H   0  0  0  0  0  0  0  0  0  0  0  0
   19.6756   19.2499   20.5825 C   0  0  0  0  0  0  0  0  0  0  0  0
   20.0637   19.7954   19.7113 H   0  0  0  0  0  0  0  0  0  0  0  0
   18.5845   19.3796   20.5695 H   0  0  0  0  0  0  0  0  0  0  0  0
   20.0223   17.7536   20.4278 C   0  0  0  0  0  0  0  0  0  0  0  0
   19.5576   17.1506   21.2178 H   0  0  0  0  0  0  0  0  0  0  0  0
   21.1080   17.5958   20.4669 H   0  0  0  0  0  0  0  0  0  0  0  0
   19.6602   17.3737   19.4636 H   0  0  0  0  0  0  0  0  0  0  0  0
  1  2  1  0  0  0  0
  1  3  2  0  0  0  0
  1  4  1  0  0  0  0
  4  5  1  0  0  0  0
  4  6  1  0  0  0  0
  4  7  1  0  0  0  0
  7  8  1  0  0  0  0
  7  9  1  0  0  0  0
  7 10  1  0  0  0  0
 10 11  1  0  0  0  0
 10 12  1  0  0  0  0
 10 13  1  0  0  0  0
 13 14  1  0  0  0  0
 13 15  1  0  0  0  0
 13 16  1  0  0  0  0
M  END
> <VConfSearch Rank>
383

> <Conf_Id>
36

> <Delta U+W>
-0.427

> <U+W>
-57.331

> <U>
7.263

> <W>
-64.594

> <W(PB)>
-66.513

> <W(SA)>
1.920

> <Valence>
6.734

> <Coulomb>
-0.068

> <VdW>
0.598

> <VdW6>
-4.819

> <VdW12>
5.417

> <Bond>
0.107

> <Angle>
2.469

> <Pdih>
4.157

> <Idih>
0.001

> <Tether>
0.000

$$$$
VeraChem MOL file


 16 15  0  0  0  0  0  0  0  0999 V2000     
   17.9218   18.4155   20.5751 C   0  0  0  0  0  0  0  0  0  0  0  0
   17.1055   17.8245   21.2535 O   0  5  0  0  0  0  0  0  0  0  0  0
   17.9604   18.3507   19.3625 O   0  0  0  0  0  0  0  0  0  0  0  0
   18.9672   19.2690   21.2846 C   0  0  0  0  0  0  0  0  0  0  0  0
   18.5040   19.6833   22.1873 H   0  0  0  0  0  0  0  0  0  0  0  0
   19.2183   20.1130   20.6311 H   0  0  0  0  0  0  0  0  0  0  0  0
   20.2484   18.4733   21.6456 C   0  0  0  0  0  0  0  0  0  0  0  0
   19.9910   17.6567   22.3342 H   0  0  0  0  0  0  0  0  0  0  0  0
   20.6387   17.9997   20.7341 H   0  0  0  0  0  0  0  0  0  0  0  0
   21.3617   19.3483   22.2663 C   0  0  0  0  0  0  0  0  0  0  0  0
   21.6276   20.1582   21.5729 H   0  0  0  0  0  0  0  0  0  0  0  0
   22.2654   18.7355   22.3893 H   0  0  0  0  0  0  0  0  0  0  0  0
   20.9744   19.9445   23.6366 C   0  0  0  0  0  0  0  0  0  0  0  0
   20.1435   20.6550   23.5442 H   0  0  0  0  0  0  0  0  0  0  0  0
   21.8247   20.4831   24.0747 H   0  0  0  0  0  0  0  0  0  0  0  0
   20.6767   19.1548   24.3386 H   0  0  0  0  0  0  0  0  0  0  0  0
  1  2  1  0  0  0  0
  1  3  2  0  0  0  0
  1  4  1  0  0  0  0
  4  5  1  0  0  0  0
  4  6  1  0  0  0  0
  4  7  1  0  0  0  0
  7  8  1  0  0  0  0
  7  9  1  0  0  0  0
  7 10  1  0  0  0  0
 10 11  1  0  0  0  0
 10 12  1  0  0  0  0
 10 13  1  0  0  0  0
 13 14  1  0  0  0  0
 13 15  1  0  0  0  0
 13 16  1  0  0  0  0
M  END
> <VConfSearch Rank>
384

> <Conf_Id>
17

> <Delta U+W>
-0.432

> <U+W>
-57.336

> <U>
7.263

> <W>
-64.599

> <W(PB)>
-66.503

> <W(SA)>
1.904

> <Valence>
6.734

> <Coulomb>
-0.068

> <VdW>
0.598

> <VdW6>
-4.819

> <VdW12>
5.417

> <Bond>
0.107

> <Angle>
2.469

> <Pdih>
4.157

> <Idih>
0.001

> <Tether>
0.000

$$$$
VeraChem MOL file


 16 15  0  0  0  0  0  0  0  0999 V2000     
   18.4065   20.7484   21.9708 C   0  0  0  0  0  0  0  0  0  0  0  0
   17.8347   20.9280   23.0277 O   0  5  0  0  0  0  0  0  0  0  0  0
   18.8253   21.6503   21.2727 O   0  0  0  0  0  0  0  0  0  0  0  0
   18.5858   19.3129   21.4843 C   0  0  0  0  0  0  0  0  0  0  0  0
   18.7851   19.3305   20.4058 H   0  0  0  0  0  0  0  0  0  0  0  0
   17.6276   18.7979   21.6211 H   0  0  0  0  0  0  0  0  0  0  0  0
   19.7033   18.5305   22.2219 C   0  0  0  0  0  0  0  0  0  0  0  0
   19.5057   18.5456   23.3029 H   0  0  0  0  0  0  0  0  0  0  0  0
   19.6679   17.4782   21.9088 H   0  0  0  0  0  0  0  0  0  0  0  0
   21.1112   19.0981   21.9396 C   0  0  0  0  0  0  0  0  0  0  0  0
   21.1648   20.1454   22.2681 H   0  0  0  0  0  0  0  0  0  0  0  0
   21.3024   19.0938   20.8576 H   0  0  0  0  0  0  0  0  0  0  0  0
   22.2050   18.2823   22.6570 C   0  0  0  0  0  0  0  0  0  0  0  0
   22.0548   18.2959   23.7445 H   0  0  0  0  0  0  0  0  0  0  0  0
   23.1985   18.6991   22.4468 H   0  0  0  0  0  0  0  0  0  0  0  0
   22.1983   17.2365   22.3227 H   0  0  0  0  0  0  0  0  0  0  0  0
  1  2  1  0  0  0  0
  1  3  2  0  0  0  0
  1  4  1  0  0  0  0
  4  5  1  0  0  0  0
  4  6  1  0  0  0  0
  4  7  1  0  0  0  0
  7  8  1  0  0  0  0
  7  9  1  0  0  0  0
  7 10  1  0  0  0  0
 10 11  1  0  0  0  0
 10 12  1  0  0  0  0
 10 13  1  0  0  0  0
 13 14  1  0  0  0  0
 13 15  1  0  0  0  0
 13 16  1  0  0  0  0
M  END
> <VConfSearch Rank>
385

> <Conf_Id>
19

> <Delta U+W>
0.048

> <U+W>
-56.856

> <U>
8.276

> <W>
-65.132

> <W(PB)>
-67.031

> <W(SA)>
1.899

> <Valence>
6.513

> <Coulomb>
1.428

> <VdW>
0.335

> <VdW6>
-5.021

> <VdW12>
5.356

> <Bond>
0.092

> <Angle>
2.417

> <Pdih>
4.003

> <Idih>
0.001

> <Tether>
0.000

$$$$
VeraChem MOL file


 16 15  0  0  0  0  0  0  0  0999 V2000     
   20.5199   18.6143   19.8817 C   0  0  0  0  0  0  0  0  0  0  0  0
   21.7027   18.7915   19.6675 O   0  5  0  0  0  0  0  0  0  0  0  0
   19.6375   19.0195   19.1513 O   0  0  0  0  0  0  0  0  0  0  0  0
   20.1244   17.8197   21.1234 C   0  0  0  0  0  0  0  0  0  0  0  0
   20.7719   16.9359   21.1674 H   0  0  0  0  0  0  0  0  0  0  0  0
   19.0982   17.4547   20.9939 H   0  0  0  0  0  0  0  0  0  0  0  0
   20.2457   18.6160   22.4486 C   0  0  0  0  0  0  0  0  0  0  0  0
   20.0783   17.9322   23.2918 H   0  0  0  0  0  0  0  0  0  0  0  0
   21.2705   18.9991   22.5508 H   0  0  0  0  0  0  0  0  0  0  0  0
   19.2397   19.7843   22.5337 C   0  0  0  0  0  0  0  0  0  0  0  0
   18.2162   19.4012   22.4190 H   0  0  0  0  0  0  0  0  0  0  0  0
   19.4112   20.4863   21.7057 H   0  0  0  0  0  0  0  0  0  0  0  0
   19.3584   20.5374   23.8735 C   0  0  0  0  0  0  0  0  0  0  0  0
   19.1576   19.8677   24.7200 H   0  0  0  0  0  0  0  0  0  0  0  0
   18.6378   21.3644   23.9172 H   0  0  0  0  0  0  0  0  0  0  0  0
   20.3648   20.9576   23.9995 H   0  0  0  0  0  0  0  0  0  0  0  0
  1  2  1  0  0  0  0
  1  3  2  0  0  0  0
  1  4  1  0  0  0  0
  4  5  1  0  0  0  0
  4  6  1  0  0  0  0
  4  7  1  0  0  0  0
  7  8  1  0  0  0  0
  7  9  1  0  0  0  0
  7 10  1  0  0  0  0
 10 11  1  0  0  0  0
 10 12  1  0  0  0  0
 10 13  1  0  0  0  0
 13 14  1  0  0  0  0
 13 15  1  0  0  0  0
 13 16  1  0  0  0  0
M  END
> <VConfSearch Rank>
386

> <Conf_Id>
20

> <Delta U+W>
-0.010

> <U+W>
-56.914

> <U>
8.277

> <W>
-65.191

> <W(PB)>
-67.081

> <W(SA)>
1.890

> <Valence>
6.513

> <Coulomb>
1.429

> <VdW>
0.335

> <VdW6>
-5.021

> <VdW12>
5.356

> <Bond>
0.092

> <Angle>
2.417

> <Pdih>
4.002

> <Idih>
0.001

> <Tether>
0.000

$$$$
VeraChem MOL file


 16 15  0  0  0  0  0  0  0  0999 V2000     
   19.6989   18.3665   20.1830 C   0  0  0  0  0  0  0  0  0  0  0  0
   20.4113   18.7208   19.2645 O   0  5  0  0  0  0  0  0  0  0  0  0
   18.4930   18.2507   20.0896 O   0  0  0  0  0  0  0  0  0  0  0  0
   20.3604   18.0163   21.5132 C   0  0  0  0  0  0  0  0  0  0  0  0
   21.1783   17.3193   21.2964 H   0  0  0  0  0  0  0  0  0  0  0  0
   19.6403   17.4670   22.1305 H   0  0  0  0  0  0  0  0  0  0  0  0
   20.9219   19.2411   22.2861 C   0  0  0  0  0  0  0  0  0  0  0  0
   21.4471   18.8900   23.1846 H   0  0  0  0  0  0  0  0  0  0  0  0
   21.6780   19.7361   21.6611 H   0  0  0  0  0  0  0  0  0  0  0  0
   19.8527   20.2818   22.6955 C   0  0  0  0  0  0  0  0  0  0  0  0
   19.3433   20.6670   21.8013 H   0  0  0  0  0  0  0  0  0  0  0  0
   20.3566   21.1413   23.1585 H   0  0  0  0  0  0  0  0  0  0  0  0
   18.8084   19.7241   23.6859 C   0  0  0  0  0  0  0  0  0  0  0  0
   18.1957   18.9420   23.2197 H   0  0  0  0  0  0  0  0  0  0  0  0
   18.1312   20.5214   24.0185 H   0  0  0  0  0  0  0  0  0  0  0  0
   19.2945   19.3002   24.5741 H   0  0  0  0  0  0  0  0  0  0  0  0
  1  2  1  0  0  0  0
  1  3  2  0  0  0  0
  1  4  1  0  0  0  0
  4  5  1  0  0  0  0
  4  6  1  0  0  0  0
  4  7  1  0  0  0  0
  7  8  1  0  0  0  0
  7  9  1  0  0  0  0
  7 10  1  0  0  0  0
 10 11  1  0  0  0  0
 10 12  1  0  0  0  0
 10 13  1  0  0  0  0
 13 14  1  0  0  0  0
 13 15  1  0  0  0  0
 13 16  1  0  0  0  0
M  END
> <VConfSearch Rank>
387

> <Conf_Id>
37

> <Delta U+W>
1.063

> <U+W>
-55.841

> <U>
9.719

> <W>
-65.560

> <W(PB)>
-67.414

> <W(SA)>
1.854

> <Valence>
7.002

> <Coulomb>
2.402

> <VdW>
0.314

> <VdW6>
-5.861

> <VdW12>
6.175

> <Bond>
0.134

> <Angle>
2.733

> <Pdih>
4.133

> <Idih>
0.002

> <Tether>
0.000

$$$$
VeraChem MOL file


 16 15  0  0  0  0  0  0  0  0999 V2000     
   21.7606   19.0169   23.5762 C   0  0  0  0  0  0  0  0  0  0  0  0
   22.9279   19.1105   23.2518 O   0  5  0  0  0  0  0  0  0  0  0  0
   21.2787   19.6062   24.5232 O   0  0  0  0  0  0  0  0  0  0  0  0
   20.8625   18.0819   22.7705 C   0  0  0  0  0  0  0  0  0  0  0  0
   19.9432   17.9004   23.3390 H   0  0  0  0  0  0  0  0  0  0  0  0
   21.3782   17.1172   22.6986 H   0  0  0  0  0  0  0  0  0  0  0  0
   20.5307   18.5934   21.3419 C   0  0  0  0  0  0  0  0  0  0  0  0
   21.4693   18.7129   20.7831 H   0  0  0  0  0  0  0  0  0  0  0  0
   19.9515   17.8265   20.8102 H   0  0  0  0  0  0  0  0  0  0  0  0
   19.7551   19.9318   21.3078 C   0  0  0  0  0  0  0  0  0  0  0  0
   19.6431   20.2477   20.2614 H   0  0  0  0  0  0  0  0  0  0  0  0
   20.3405   20.7167   21.8066 H   0  0  0  0  0  0  0  0  0  0  0  0
   18.3559   19.8410   21.9531 C   0  0  0  0  0  0  0  0  0  0  0  0
   17.7622   19.0389   21.4956 H   0  0  0  0  0  0  0  0  0  0  0  0
   17.8103   20.7842   21.8202 H   0  0  0  0  0  0  0  0  0  0  0  0
   18.4265   19.6479   23.0311 H   0  0  0  0  0  0  0  0  0  0  0  0
  1  2  1  0  0  0  0
  1  3  2  0  0  0  0
  1  4  1  0  0  0  0
  4  5  1  0  0  0  0
  4  6  1  0  0  0  0
  4  7  1  0  0  0  0
  7  8  1  0  0  0  0
  7  9  1  0  0  0  0
  7 10  1  0  0  0  0
 10 11  1  0  0  0  0
 10 12  1  0  0  0  0
 10 13  1  0  0  0  0
 13 14  1  0  0  0  0
 13 15  1  0  0  0  0
 13 16  1  0  0  0  0
M  END
> <VConfSearch Rank>
388

> <Conf_Id>
39

> <Delta U+W>
1.129

> <U+W>
-55.775

> <U>
9.718

> <W>
-65.493

> <W(PB)>
-67.361

> <W(SA)>
1.869

> <Valence>
7.002

> <Coulomb>
2.402

> <VdW>
0.314

> <VdW6>
-5.861

> <VdW12>
6.175

> <Bond>
0.134

> <Angle>
2.734

> <Pdih>
4.133

> <Idih>
0.002

> <Tether>
0.000

$$$$
VeraChem MOL file


 16 15  0  0  0  0  0  0  0  0999 V2000     
   18.0106   19.5325   21.8093 C   0  0  0  0  0  0  0  0  0  0  0  0
   17.2341   19.0373   22.6022 O   0  5  0  0  0  0  0  0  0  0  0  0
   17.8753   19.4557   20.6039 O   0  0  0  0  0  0  0  0  0  0  0  0
   19.1648   20.3697   22.3576 C   0  0  0  0  0  0  0  0  0  0  0  0
   19.0948   20.4008   23.4518 H   0  0  0  0  0  0  0  0  0  0  0  0
   18.9985   21.3940   22.0040 H   0  0  0  0  0  0  0  0  0  0  0  0
   20.5846   19.9098   21.9224 C   0  0  0  0  0  0  0  0  0  0  0  0
   20.5916   19.6828   20.8472 H   0  0  0  0  0  0  0  0  0  0  0  0
   21.2714   20.7563   22.0574 H   0  0  0  0  0  0  0  0  0  0  0  0
   21.1500   18.7113   22.7221 C   0  0  0  0  0  0  0  0  0  0  0  0
   21.1396   18.9414   23.7964 H   0  0  0  0  0  0  0  0  0  0  0  0
   22.2049   18.5762   22.4459 H   0  0  0  0  0  0  0  0  0  0  0  0
   20.4046   17.3846   22.4682 C   0  0  0  0  0  0  0  0  0  0  0  0
   19.3881   17.4125   22.8792 H   0  0  0  0  0  0  0  0  0  0  0  0
   20.9317   16.5501   22.9484 H   0  0  0  0  0  0  0  0  0  0  0  0
   20.3368   17.1699   21.3937 H   0  0  0  0  0  0  0  0  0  0  0  0
  1  2  1  0  0  0  0
  1  3  2  0  0  0  0
  1  4  1  0  0  0  0
  4  5  1  0  0  0  0
  4  6  1  0  0  0  0
  4  7  1  0  0  0  0
  7  8  1  0  0  0  0
  7  9  1  0  0  0  0
  7 10  1  0  0  0  0
 10 11  1  0  0  0  0
 10 12  1  0  0  0  0
 10 13  1  0  0  0  0
 13 14  1  0  0  0  0
 13 15  1  0  0  0  0
 13 16  1  0  0  0  0
M  END
> <VConfSearch Rank>
389

> <Conf_Id>
47

> <Delta U+W>
2.301

> <U+W>
-54.603

> <U>
11.258

> <W>
-65.861

> <W(PB)>
-67.702

> <W(SA)>
1.841

> <Valence>
8.169

> <Coulomb>
2.735

> <VdW>
0.355

> <VdW6>
-6.245

> <VdW12>
6.600

> <Bond>
0.149

> <Angle>
3.168

> <Pdih>
4.840

> <Idih>
0.011

> <Tether>
0.000

$$$$
VeraChem MOL file


 16 15  0  0  0  0  0  0  0  0999 V2000     
   21.0670   18.2933   23.6407 C   0  0  0  0  0  0  0  0  0  0  0  0
   21.5917   19.1835   24.2804 O   0  5  0  0  0  0  0  0  0  0  0  0
   21.6789   17.3472   23.1853 O   0  0  0  0  0  0  0  0  0  0  0  0
   19.5484   18.3163   23.4766 C   0  0  0  0  0  0  0  0  0  0  0  0
   19.1277   18.2537   24.4870 H   0  0  0  0  0  0  0  0  0  0  0  0
   19.2327   17.4080   22.9489 H   0  0  0  0  0  0  0  0  0  0  0  0
   18.9756   19.5762   22.7685 C   0  0  0  0  0  0  0  0  0  0  0  0
   17.9114   19.6566   23.0283 H   0  0  0  0  0  0  0  0  0  0  0  0
   19.4542   20.4808   23.1688 H   0  0  0  0  0  0  0  0  0  0  0  0
   19.0843   19.5564   21.2247 C   0  0  0  0  0  0  0  0  0  0  0  0
   18.5129   20.4058   20.8254 H   0  0  0  0  0  0  0  0  0  0  0  0
   18.6064   18.6498   20.8287 H   0  0  0  0  0  0  0  0  0  0  0  0
   20.5320   19.6515   20.7000 C   0  0  0  0  0  0  0  0  0  0  0  0
   20.5377   19.7739   19.6092 H   0  0  0  0  0  0  0  0  0  0  0  0
   21.1017   18.7437   20.9328 H   0  0  0  0  0  0  0  0  0  0  0  0
   21.0554   20.5101   21.1406 H   0  0  0  0  0  0  0  0  0  0  0  0
  1  2  1  0  0  0  0
  1  3  2  0  0  0  0
  1  4  1  0  0  0  0
  4  5  1  0  0  0  0
  4  6  1  0  0  0  0
  4  7  1  0  0  0  0
  7  8  1  0  0  0  0
  7  9  1  0  0  0  0
  7 10  1  0  0  0  0
 10 11  1  0  0  0  0
 10 12  1  0  0  0  0
 10 13  1  0  0  0  0
 13 14  1  0  0  0  0
 13 15  1  0  0  0  0
 13 16  1  0  0  0  0
M  END
> <VConfSearch Rank>
390

> <Conf_Id>
45

> <Delta U+W>
2.303

> <U+W>
-54.601

> <U>
11.258

> <W>
-65.860

> <W(PB)>
-67.709

> <W(SA)>
1.849

> <Valence>
8.169

> <Coulomb>
2.735

> <VdW>
0.355

> <VdW6>
-6.245

> <VdW12>
6.600

> <Bond>
0.149

> <Angle>
3.168

> <Pdih>
4.840

> <Idih>
0.011

> <Tether>
0.000

$$$$
VeraChem MOL file


 16 15  0  0  0  0  0  0  0  0999 V2000     
   20.4482   20.5906   24.2206 C   0  0  0  0  0  0  0  0  0  0  0  0
   19.3107   20.4750   24.6334 O   0  5  0  0  0  0  0  0  0  0  0  0
   21.3097   21.2055   24.8167 O   0  0  0  0  0  0  0  0  0  0  0  0
   20.8444   19.9438   22.8923 C   0  0  0  0  0  0  0  0  0  0  0  0
   21.6833   19.2675   23.0950 H   0  0  0  0  0  0  0  0  0  0  0  0
   21.2244   20.7399   22.2411 H   0  0  0  0  0  0  0  0  0  0  0  0
   19.7116   19.1700   22.1668 C   0  0  0  0  0  0  0  0  0  0  0  0
   19.3312   18.3775   22.8260 H   0  0  0  0  0  0  0  0  0  0  0  0
   18.8719   19.8514   21.9713 H   0  0  0  0  0  0  0  0  0  0  0  0
   20.1983   18.5519   20.8393 C   0  0  0  0  0  0  0  0  0  0  0  0
   21.0369   17.8689   21.0337 H   0  0  0  0  0  0  0  0  0  0  0  0
   20.5773   19.3437   20.1784 H   0  0  0  0  0  0  0  0  0  0  0  0
   19.0689   17.7849   20.1236 C   0  0  0  0  0  0  0  0  0  0  0  0
   18.6918   16.9660   20.7503 H   0  0  0  0  0  0  0  0  0  0  0  0
   19.4315   17.3519   19.1822 H   0  0  0  0  0  0  0  0  0  0  0  0
   18.2288   18.4517   19.8888 H   0  0  0  0  0  0  0  0  0  0  0  0
  1  2  1  0  0  0  0
  1  3  2  0  0  0  0
  1  4  1  0  0  0  0
  4  5  1  0  0  0  0
  4  6  1  0  0  0  0
  4  7  1  0  0  0  0
  7  8  1  0  0  0  0
  7  9  1  0  0  0  0
  7 10  1  0  0  0  0
 10 11  1  0  0  0  0
 10 12  1  0  0  0  0
 10 13  1  0  0  0  0
 13 14  1  0  0  0  0
 13 15  1  0  0  0  0
 13 16  1  0  0  0  0
M  END
> <VConfSearch Rank>
391

> <Conf_Id>
0

> <Delta U+W>
0.000

> <U+W>
-56.904

> <U>
7.329

> <W>
-64.233

> <W(PB)>
-66.148

> <W(SA)>
1.915

> <Valence>
6.755

> <Coulomb>
-0.421

> <VdW>
0.995

> <VdW6>
-4.495

> <VdW12>
5.490

> <Bond>
0.106

> <Angle>
2.715

> <Pdih>
3.934

> <Idih>
0.000

> <Tether>
0.000

$$$$
VeraChem MOL file


 16 15  0  0  0  0  0  0  0  0999 V2000     
   21.2822   16.6929   22.0593 C   0  0  0  0  0  0  0  0  0  0  0  0
   20.9768   16.0101   23.0166 O   0  5  0  0  0  0  0  0  0  0  0  0
   21.6048   16.2337   20.9819 O   0  0  0  0  0  0  0  0  0  0  0  0
   21.2410   18.2092   22.2132 C   0  0  0  0  0  0  0  0  0  0  0  0
   22.0207   18.6384   21.5723 H   0  0  0  0  0  0  0  0  0  0  0  0
   21.5028   18.4541   23.2498 H   0  0  0  0  0  0  0  0  0  0  0  0
   19.8616   18.8143   21.8538 C   0  0  0  0  0  0  0  0  0  0  0  0
   19.6082   18.5502   20.8177 H   0  0  0  0  0  0  0  0  0  0  0  0
   19.0902   18.3658   22.4952 H   0  0  0  0  0  0  0  0  0  0  0  0
   19.8471   20.3484   22.0180 C   0  0  0  0  0  0  0  0  0  0  0  0
   20.6179   20.7973   21.3762 H   0  0  0  0  0  0  0  0  0  0  0  0
   20.0999   20.6129   23.0542 H   0  0  0  0  0  0  0  0  0  0  0  0
   18.4713   20.9435   21.6587 C   0  0  0  0  0  0  0  0  0  0  0  0
   17.6851   20.5348   22.3069 H   0  0  0  0  0  0  0  0  0  0  0  0
   18.2070   20.7206   20.6166 H   0  0  0  0  0  0  0  0  0  0  0  0
   18.4781   22.0345   21.7806 H   0  0  0  0  0  0  0  0  0  0  0  0
  1  2  1  0  0  0  0
  1  3  2  0  0  0  0
  1  4  1  0  0  0  0
  4  5  1  0  0  0  0
  4  6  1  0  0  0  0
  4  7  1  0  0  0  0
  7  8  1  0  0  0  0
  7  9  1  0  0  0  0
  7 10  1  0  0  0  0
 10 11  1  0  0  0  0
 10 12  1  0  0  0  0
 10 13  1  0  0  0  0
 13 14  1  0  0  0  0
 13 15  1  0  0  0  0
 13 16  1  0  0  0  0
M  END
> <VConfSearch Rank>
392

> <Conf_Id>
22

> <Delta U+W>
-1.185

> <U+W>
-58.089

> <U>
6.298

> <W>
-64.387

> <W(PB)>
-66.329

> <W(SA)>
1.942

> <Valence>
6.246

> <Coulomb>
-0.408

> <VdW>
0.460

> <VdW6>
-4.207

> <VdW12>
4.667

> <Bond>
0.072

> <Angle>
2.246

> <Pdih>
3.928

> <Idih>
0.001

> <Tether>
0.000

$$$$
VeraChem MOL file


 16 15  0  0  0  0  0  0  0  0999 V2000     
   18.8327   17.8791   20.0358 C   0  0  0  0  0  0  0  0  0  0  0  0
   18.9996   18.1927   18.8740 O   0  5  0  0  0  0  0  0  0  0  0  0
   17.8847   17.2270   20.4258 O   0  0  0  0  0  0  0  0  0  0  0  0
   19.8580   18.3467   21.0628 C   0  0  0  0  0  0  0  0  0  0  0  0
   20.8376   18.3878   20.5715 H   0  0  0  0  0  0  0  0  0  0  0  0
   19.9191   17.5827   21.8461 H   0  0  0  0  0  0  0  0  0  0  0  0
   19.5089   19.7281   21.6749 C   0  0  0  0  0  0  0  0  0  0  0  0
   19.3695   20.4509   20.8590 H   0  0  0  0  0  0  0  0  0  0  0  0
   18.5462   19.6634   22.2005 H   0  0  0  0  0  0  0  0  0  0  0  0
   20.5934   20.2672   22.6360 C   0  0  0  0  0  0  0  0  0  0  0  0
   20.3226   21.2887   22.9367 H   0  0  0  0  0  0  0  0  0  0  0  0
   21.5536   20.3431   22.1073 H   0  0  0  0  0  0  0  0  0  0  0  0
   20.7659   19.4043   23.9043 C   0  0  0  0  0  0  0  0  0  0  0  0
   21.1464   18.4046   23.6604 H   0  0  0  0  0  0  0  0  0  0  0  0
   19.8115   19.2902   24.4347 H   0  0  0  0  0  0  0  0  0  0  0  0
   21.4810   19.8730   24.5927 H   0  0  0  0  0  0  0  0  0  0  0  0
  1  2  1  0  0  0  0
  1  3  2  0  0  0  0
  1  4  1  0  0  0  0
  4  5  1  0  0  0  0
  4  6  1  0  0  0  0
  4  7  1  0  0  0  0
  7  8  1  0  0  0  0
  7  9  1  0  0  0  0
  7 10  1  0  0  0  0
 10 11  1  0  0  0  0
 10 12  1  0  0  0  0
 10 13  1  0  0  0  0
 13 14  1  0  0  0  0
 13 15  1  0  0  0  0
 13 16  1  0  0  0  0
M  END
> <VConfSearch Rank>
393

> <Conf_Id>
36

> <Delta U+W>
-0.427

> <U+W>
-57.331

> <U>
7.263

> <W>
-64.594

> <W(PB)>
-66.513

> <W(SA)>
1.920

> <Valence>
6.734

> <Coulomb>
-0.068

> <VdW>
0.598

> <VdW6>
-4.819

> <VdW12>
5.417

> <Bond>
0.107

> <Angle>
2.469

> <Pdih>
4.157

> <Idih>
0.001

> <Tether>
0.000

$$$$
VeraChem MOL file


 16 15  0  0  0  0  0  0  0  0999 V2000     
   22.3065   18.0920   22.3243 C   0  0  0  0  0  0  0  0  0  0  0  0
   23.1792   18.9344   22.2559 O   0  5  0  0  0  0  0  0  0  0  0  0
   22.5105   16.9016   22.1929 O   0  0  0  0  0  0  0  0  0  0  0  0
   20.8744   18.5550   22.5682 C   0  0  0  0  0  0  0  0  0  0  0  0
   20.9152   19.4493   23.2004 H   0  0  0  0  0  0  0  0  0  0  0  0
   20.3573   17.7754   23.1403 H   0  0  0  0  0  0  0  0  0  0  0  0
   20.1064   18.8513   21.2539 C   0  0  0  0  0  0  0  0  0  0  0  0
   20.6097   19.6628   20.7102 H   0  0  0  0  0  0  0  0  0  0  0  0
   20.1586   17.9648   20.6068 H   0  0  0  0  0  0  0  0  0  0  0  0
   18.6207   19.2158   21.4781 C   0  0  0  0  0  0  0  0  0  0  0  0
   18.1145   18.3993   22.0114 H   0  0  0  0  0  0  0  0  0  0  0  0
   18.1267   19.3016   20.5004 H   0  0  0  0  0  0  0  0  0  0  0  0
   18.4284   20.5383   22.2507 C   0  0  0  0  0  0  0  0  0  0  0  0
   18.8074   20.4615   23.2775 H   0  0  0  0  0  0  0  0  0  0  0  0
   17.3633   20.7974   22.3084 H   0  0  0  0  0  0  0  0  0  0  0  0
   18.9506   21.3647   21.7511 H   0  0  0  0  0  0  0  0  0  0  0  0
  1  2  1  0  0  0  0
  1  3  2  0  0  0  0
  1  4  1  0  0  0  0
  4  5  1  0  0  0  0
  4  6  1  0  0  0  0
  4  7  1  0  0  0  0
  7  8  1  0  0  0  0
  7  9  1  0  0  0  0
  7 10  1  0  0  0  0
 10 11  1  0  0  0  0
 10 12  1  0  0  0  0
 10 13  1  0  0  0  0
 13 14  1  0  0  0  0
 13 15  1  0  0  0  0
 13 16  1  0  0  0  0
M  END
> <VConfSearch Rank>
394

> <Conf_Id>
17

> <Delta U+W>
-0.432

> <U+W>
-57.336

> <U>
7.263

> <W>
-64.599

> <W(PB)>
-66.503

> <W(SA)>
1.904

> <Valence>
6.734

> <Coulomb>
-0.068

> <VdW>
0.598

> <VdW6>
-4.819

> <VdW12>
5.417

> <Bond>
0.107

> <Angle>
2.469

> <Pdih>
4.157

> <Idih>
0.001

> <Tether>
0.000

$$$$
VeraChem MOL file


 16 15  0  0  0  0  0  0  0  0999 V2000     
   19.9939   20.5950   20.2315 C   0  0  0  0  0  0  0  0  0  0  0  0
   19.2355   20.2066   19.3652 O   0  5  0  0  0  0  0  0  0  0  0  0
   19.9778   21.7237   20.6809 O   0  0  0  0  0  0  0  0  0  0  0  0
   21.0378   19.6178   20.7653 C   0  0  0  0  0  0  0  0  0  0  0  0
   21.8361   20.1899   21.2537 H   0  0  0  0  0  0  0  0  0  0  0  0
   21.4901   19.1165   19.9014 H   0  0  0  0  0  0  0  0  0  0  0  0
   20.4683   18.5547   21.7402 C   0  0  0  0  0  0  0  0  0  0  0  0
   19.6513   18.0094   21.2476 H   0  0  0  0  0  0  0  0  0  0  0  0
   21.2522   17.8177   21.9613 H   0  0  0  0  0  0  0  0  0  0  0  0
   19.9628   19.1717   23.0623 C   0  0  0  0  0  0  0  0  0  0  0  0
   19.1632   19.8965   22.8549 H   0  0  0  0  0  0  0  0  0  0  0  0
   20.7774   19.7270   23.5475 H   0  0  0  0  0  0  0  0  0  0  0  0
   19.4337   18.0908   24.0258 C   0  0  0  0  0  0  0  0  0  0  0  0
   18.5969   17.5402   23.5764 H   0  0  0  0  0  0  0  0  0  0  0  0
   19.0779   18.5458   24.9593 H   0  0  0  0  0  0  0  0  0  0  0  0
   20.2222   17.3700   24.2790 H   0  0  0  0  0  0  0  0  0  0  0  0
  1  2  1  0  0  0  0
  1  3  2  0  0  0  0
  1  4  1  0  0  0  0
  4  5  1  0  0  0  0
  4  6  1  0  0  0  0
  4  7  1  0  0  0  0
  7  8  1  0  0  0  0
  7  9  1  0  0  0  0
  7 10  1  0  0  0  0
 10 11  1  0  0  0  0
 10 12  1  0  0  0  0
 10 13  1  0  0  0  0
 13 14  1  0  0  0  0
 13 15  1  0  0  0  0
 13 16  1  0  0  0  0
M  END
> <VConfSearch Rank>
395

> <Conf_Id>
19

> <Delta U+W>
0.048

> <U+W>
-56.856

> <U>
8.276

> <W>
-65.132

> <W(PB)>
-67.031

> <W(SA)>
1.899

> <Valence>
6.513

> <Coulomb>
1.428

> <VdW>
0.335

> <VdW6>
-5.021

> <VdW12>
5.356

> <Bond>
0.092

> <Angle>
2.417

> <Pdih>
4.003

> <Idih>
0.001

> <Tether>
0.000

$$$$
VeraChem MOL file


 16 15  0  0  0  0  0  0  0  0999 V2000     
   21.8082   19.8499   20.9263 C   0  0  0  0  0  0  0  0  0  0  0  0
   22.2295   20.9329   21.2813 O   0  5  0  0  0  0  0  0  0  0  0  0
   21.6380   19.5446   19.7627 O   0  0  0  0  0  0  0  0  0  0  0  0
   21.4991   18.8106   22.0005 C   0  0  0  0  0  0  0  0  0  0  0  0
   22.3393   18.8068   22.7049 H   0  0  0  0  0  0  0  0  0  0  0  0
   21.4737   17.8191   21.5320 H   0  0  0  0  0  0  0  0  0  0  0  0
   20.1792   19.0718   22.7715 C   0  0  0  0  0  0  0  0  0  0  0  0
   20.1089   18.3634   23.6081 H   0  0  0  0  0  0  0  0  0  0  0  0
   20.2073   20.0785   23.2111 H   0  0  0  0  0  0  0  0  0  0  0  0
   18.9296   18.9268   21.8761 C   0  0  0  0  0  0  0  0  0  0  0  0
   18.9094   17.9240   21.4275 H   0  0  0  0  0  0  0  0  0  0  0  0
   18.9791   19.6456   21.0462 H   0  0  0  0  0  0  0  0  0  0  0  0
   17.6312   19.1582   22.6741 C   0  0  0  0  0  0  0  0  0  0  0  0
   17.5370   18.4308   23.4911 H   0  0  0  0  0  0  0  0  0  0  0  0
   16.7534   19.0525   22.0233 H   0  0  0  0  0  0  0  0  0  0  0  0
   17.6118   20.1664   23.1084 H   0  0  0  0  0  0  0  0  0  0  0  0
  1  2  1  0  0  0  0
  1  3  2  0  0  0  0
  1  4  1  0  0  0  0
  4  5  1  0  0  0  0
  4  6  1  0  0  0  0
  4  7  1  0  0  0  0
  7  8  1  0  0  0  0
  7  9  1  0  0  0  0
  7 10  1  0  0  0  0
 10 11  1  0  0  0  0
 10 12  1  0  0  0  0
 10 13  1  0  0  0  0
 13 14  1  0  0  0  0
 13 15  1  0  0  0  0
 13 16  1  0  0  0  0
M  END
> <VConfSearch Rank>
396

> <Conf_Id>
20

> <Delta U+W>
-0.010

> <U+W>
-56.914

> <U>
8.277

> <W>
-65.191

> <W(PB)>
-67.081

> <W(SA)>
1.890

> <Valence>
6.513

> <Coulomb>
1.429

> <VdW>
0.335

> <VdW6>
-5.021

> <VdW12>
5.356

> <Bond>
0.092

> <Angle>
2.417

> <Pdih>
4.002

> <Idih>
0.001

> <Tether>
0.000

$$$$
VeraChem MOL file


 16 15  0  0  0  0  0  0  0  0999 V2000     
   17.9199   19.1968   21.2560 C   0  0  0  0  0  0  0  0  0  0  0  0
   17.1118   18.2972   21.3759 O   0  5  0  0  0  0  0  0  0  0  0  0
   18.1860   19.7214   20.1928 O   0  0  0  0  0  0  0  0  0  0  0  0
   18.6105   19.7164   22.5141 C   0  0  0  0  0  0  0  0  0  0  0  0
   17.8277   19.9235   23.2531 H   0  0  0  0  0  0  0  0  0  0  0  0
   19.0825   20.6786   22.2846 H   0  0  0  0  0  0  0  0  0  0  0  0
   19.6444   18.7312   23.1250 C   0  0  0  0  0  0  0  0  0  0  0  0
   20.0296   19.1502   24.0644 H   0  0  0  0  0  0  0  0  0  0  0  0
   19.1280   17.7990   23.3925 H   0  0  0  0  0  0  0  0  0  0  0  0
   20.8326   18.3946   22.1928 C   0  0  0  0  0  0  0  0  0  0  0  0
   20.4621   17.9420   21.2625 H   0  0  0  0  0  0  0  0  0  0  0  0
   21.4576   17.6332   22.6795 H   0  0  0  0  0  0  0  0  0  0  0  0
   21.7100   19.6197   21.8585 C   0  0  0  0  0  0  0  0  0  0  0  0
   21.1557   20.3552   21.2617 H   0  0  0  0  0  0  0  0  0  0  0  0
   22.5888   19.3145   21.2759 H   0  0  0  0  0  0  0  0  0  0  0  0
   22.0644   20.1121   22.7734 H   0  0  0  0  0  0  0  0  0  0  0  0
  1  2  1  0  0  0  0
  1  3  2  0  0  0  0
  1  4  1  0  0  0  0
  4  5  1  0  0  0  0
  4  6  1  0  0  0  0
  4  7  1  0  0  0  0
  7  8  1  0  0  0  0
  7  9  1  0  0  0  0
  7 10  1  0  0  0  0
 10 11  1  0  0  0  0
 10 12  1  0  0  0  0
 10 13  1  0  0  0  0
 13 14  1  0  0  0  0
 13 15  1  0  0  0  0
 13 16  1  0  0  0  0
M  END
> <VConfSearch Rank>
397

> <Conf_Id>
37

> <Delta U+W>
1.063

> <U+W>
-55.841

> <U>
9.719

> <W>
-65.560

> <W(PB)>
-67.414

> <W(SA)>
1.854

> <Valence>
7.002

> <Coulomb>
2.402

> <VdW>
0.314

> <VdW6>
-5.861

> <VdW12>
6.175

> <Bond>
0.134

> <Angle>
2.733

> <Pdih>
4.133

> <Idih>
0.002

> <Tether>
0.000

$$$$
VeraChem MOL file


 16 15  0  0  0  0  0  0  0  0999 V2000     
   21.5499   20.5423   21.3705 C   0  0  0  0  0  0  0  0  0  0  0  0
   21.5249   21.7298   21.6272 O   0  5  0  0  0  0  0  0  0  0  0  0
   22.5641   19.8736   21.3901 O   0  0  0  0  0  0  0  0  0  0  0  0
   20.2423   19.8652   20.9687 C   0  0  0  0  0  0  0  0  0  0  0  0
   20.4735   18.8950   20.5142 H   0  0  0  0  0  0  0  0  0  0  0  0
   19.7880   20.4766   20.1802 H   0  0  0  0  0  0  0  0  0  0  0  0
   19.2293   19.6963   22.1340 C   0  0  0  0  0  0  0  0  0  0  0  0
   18.9786   20.6900   22.5303 H   0  0  0  0  0  0  0  0  0  0  0  0
   18.2937   19.2771   21.7399 H   0  0  0  0  0  0  0  0  0  0  0  0
   19.7355   18.8082   23.2955 C   0  0  0  0  0  0  0  0  0  0  0  0
   18.9869   18.8192   24.0996 H   0  0  0  0  0  0  0  0  0  0  0  0
   20.6533   19.2365   23.7217 H   0  0  0  0  0  0  0  0  0  0  0  0
   19.9937   17.3456   22.8754 C   0  0  0  0  0  0  0  0  0  0  0  0
   19.1009   16.9048   22.4132 H   0  0  0  0  0  0  0  0  0  0  0  0
   20.2584   16.7366   23.7494 H   0  0  0  0  0  0  0  0  0  0  0  0
   20.8235   17.2774   22.1604 H   0  0  0  0  0  0  0  0  0  0  0  0
  1  2  1  0  0  0  0
  1  3  2  0  0  0  0
  1  4  1  0  0  0  0
  4  5  1  0  0  0  0
  4  6  1  0  0  0  0
  4  7  1  0  0  0  0
  7  8  1  0  0  0  0
  7  9  1  0  0  0  0
  7 10  1  0  0  0  0
 10 11  1  0  0  0  0
 10 12  1  0  0  0  0
 10 13  1  0  0  0  0
 13 14  1  0  0  0  0
 13 15  1  0  0  0  0
 13 16  1  0  0  0  0
M  END
> <VConfSearch Rank>
398

> <Conf_Id>
39

> <Delta U+W>
1.129

> <U+W>
-55.775

> <U>
9.718

> <W>
-65.493

> <W(PB)>
-67.361

> <W(SA)>
1.869

> <Valence>
7.002

> <Coulomb>
2.402

> <VdW>
0.314

> <VdW6>
-5.861

> <VdW12>
6.175

> <Bond>
0.134

> <Angle>
2.734

> <Pdih>
4.133

> <Idih>
0.002

> <Tether>
0.000

$$$$
VeraChem MOL file


 16 15  0  0  0  0  0  0  0  0999 V2000     
   17.9923   19.1138   21.6816 C   0  0  0  0  0  0  0  0  0  0  0  0
   17.6908   20.2002   21.2282 O   0  5  0  0  0  0  0  0  0  0  0  0
   17.3213   18.5235   22.5054 O   0  0  0  0  0  0  0  0  0  0  0  0
   19.2300   18.4163   21.1200 C   0  0  0  0  0  0  0  0  0  0  0  0
   19.6697   19.0458   20.3369 H   0  0  0  0  0  0  0  0  0  0  0  0
   18.8734   17.5050   20.6259 H   0  0  0  0  0  0  0  0  0  0  0  0
   20.3097   18.0314   22.1702 C   0  0  0  0  0  0  0  0  0  0  0  0
   19.8316   17.5802   23.0508 H   0  0  0  0  0  0  0  0  0  0  0  0
   20.9424   17.2467   21.7339 H   0  0  0  0  0  0  0  0  0  0  0  0
   21.2333   19.1949   22.6048 C   0  0  0  0  0  0  0  0  0  0  0  0
   21.7078   19.6445   21.7216 H   0  0  0  0  0  0  0  0  0  0  0  0
   22.0479   18.7820   23.2158 H   0  0  0  0  0  0  0  0  0  0  0  0
   20.5158   20.2892   23.4221 C   0  0  0  0  0  0  0  0  0  0  0  0
   19.8022   20.8466   22.8032 H   0  0  0  0  0  0  0  0  0  0  0  0
   21.2420   21.0104   23.8188 H   0  0  0  0  0  0  0  0  0  0  0  0
   19.9712   19.8543   24.2704 H   0  0  0  0  0  0  0  0  0  0  0  0
  1  2  1  0  0  0  0
  1  3  2  0  0  0  0
  1  4  1  0  0  0  0
  4  5  1  0  0  0  0
  4  6  1  0  0  0  0
  4  7  1  0  0  0  0
  7  8  1  0  0  0  0
  7  9  1  0  0  0  0
  7 10  1  0  0  0  0
 10 11  1  0  0  0  0
 10 12  1  0  0  0  0
 10 13  1  0  0  0  0
 13 14  1  0  0  0  0
 13 15  1  0  0  0  0
 13 16  1  0  0  0  0
M  END
> <VConfSearch Rank>
399

> <Conf_Id>
47

> <Delta U+W>
2.301

> <U+W>
-54.603

> <U>
11.258

> <W>
-65.861

> <W(PB)>
-67.702

> <W(SA)>
1.841

> <Valence>
8.169

> <Coulomb>
2.735

> <VdW>
0.355

> <VdW6>
-6.245

> <VdW12>
6.600

> <Bond>
0.149

> <Angle>
3.168

> <Pdih>
4.840

> <Idih>
0.011

> <Tether>
0.000

$$$$
VeraChem MOL file


 16 15  0  0  0  0  0  0  0  0999 V2000     
   19.8137   17.2617   23.0073 C   0  0  0  0  0  0  0  0  0  0  0  0
   20.5578   17.2023   23.9665 O   0  5  0  0  0  0  0  0  0  0  0  0
   19.8002   16.4321   22.1194 O   0  0  0  0  0  0  0  0  0  0  0  0
   18.7809   18.3862   22.9593 C   0  0  0  0  0  0  0  0  0  0  0  0
   18.1370   18.2518   23.8362 H   0  0  0  0  0  0  0  0  0  0  0  0
   18.1430   18.2475   22.0779 H   0  0  0  0  0  0  0  0  0  0  0  0
   19.3656   19.8266   22.9786 C   0  0  0  0  0  0  0  0  0  0  0  0
   18.5703   20.5109   23.3037 H   0  0  0  0  0  0  0  0  0  0  0  0
   20.1567   19.8995   23.7378 H   0  0  0  0  0  0  0  0  0  0  0  0
   19.8918   20.3297   21.6128 C   0  0  0  0  0  0  0  0  0  0  0  0
   20.1290   21.3987   21.7044 H   0  0  0  0  0  0  0  0  0  0  0  0
   19.0986   20.2535   20.8563 H   0  0  0  0  0  0  0  0  0  0  0  0
   21.1526   19.5900   21.1192 C   0  0  0  0  0  0  0  0  0  0  0  0
   21.5583   20.0783   20.2238 H   0  0  0  0  0  0  0  0  0  0  0  0
   20.9273   18.5499   20.8539 H   0  0  0  0  0  0  0  0  0  0  0  0
   21.9353   19.5882   21.8890 H   0  0  0  0  0  0  0  0  0  0  0  0
  1  2  1  0  0  0  0
  1  3  2  0  0  0  0
  1  4  1  0  0  0  0
  4  5  1  0  0  0  0
  4  6  1  0  0  0  0
  4  7  1  0  0  0  0
  7  8  1  0  0  0  0
  7  9  1  0  0  0  0
  7 10  1  0  0  0  0
 10 11  1  0  0  0  0
 10 12  1  0  0  0  0
 10 13  1  0  0  0  0
 13 14  1  0  0  0  0
 13 15  1  0  0  0  0
 13 16  1  0  0  0  0
M  END
> <VConfSearch Rank>
400

> <Conf_Id>
45

> <Delta U+W>
2.303

> <U+W>
-54.601

> <U>
11.258

> <W>
-65.860

> <W(PB)>
-67.709

> <W(SA)>
1.849

> <Valence>
8.169

> <Coulomb>
2.735

> <VdW>
0.355

> <VdW6>
-6.245

> <VdW12>
6.600

> <Bond>
0.149

> <Angle>
3.168

> <Pdih>
4.840

> <Idih>
0.011

> <Tether>
0.000

$$$$
VeraChem MOL file


 16 15  0  0  0  0  0  0  0  0999 V2000     
   19.0767   16.5202   21.9495 C   0  0  0  0  0  0  0  0  0  0  0  0
   20.1780   16.0299   22.1059 O   0  5  0  0  0  0  0  0  0  0  0  0
   18.0630   15.8570   21.8612 O   0  0  0  0  0  0  0  0  0  0  0  0
   18.9274   18.0397   21.8553 C   0  0  0  0  0  0  0  0  0  0  0  0
   18.2338   18.3500   22.6458 H   0  0  0  0  0  0  0  0  0  0  0  0
   18.4424   18.2622   20.8975 H   0  0  0  0  0  0  0  0  0  0  0  0
   20.2489   18.8450   21.9725 C   0  0  0  0  0  0  0  0  0  0  0  0
   20.7329   18.6139   22.9316 H   0  0  0  0  0  0  0  0  0  0  0  0
   20.9417   18.5260   21.1815 H   0  0  0  0  0  0  0  0  0  0  0  0
   20.0053   20.3651   21.8671 C   0  0  0  0  0  0  0  0  0  0  0  0
   19.3139   20.6858   22.6587 H   0  0  0  0  0  0  0  0  0  0  0  0
   19.5228   20.5978   20.9077 H   0  0  0  0  0  0  0  0  0  0  0  0
   21.3212   21.1594   21.9842 C   0  0  0  0  0  0  0  0  0  0  0  0
   21.8100   20.9695   22.9488 H   0  0  0  0  0  0  0  0  0  0  0  0
   21.1304   22.2377   21.9073 H   0  0  0  0  0  0  0  0  0  0  0  0
   22.0205   20.8809   21.1848 H   0  0  0  0  0  0  0  0  0  0  0  0
  1  2  1  0  0  0  0
  1  3  2  0  0  0  0
  1  4  1  0  0  0  0
  4  5  1  0  0  0  0
  4  6  1  0  0  0  0
  4  7  1  0  0  0  0
  7  8  1  0  0  0  0
  7  9  1  0  0  0  0
  7 10  1  0  0  0  0
 10 11  1  0  0  0  0
 10 12  1  0  0  0  0
 10 13  1  0  0  0  0
 13 14  1  0  0  0  0
 13 15  1  0  0  0  0
 13 16  1  0  0  0  0
M  END
> <VConfSearch Rank>
401

> <Conf_Id>
0

> <Delta U+W>
0.000

> <U+W>
-56.904

> <U>
7.329

> <W>
-64.233

> <W(PB)>
-66.148

> <W(SA)>
1.915

> <Valence>
6.755

> <Coulomb>
-0.421

> <VdW>
0.995

> <VdW6>
-4.495

> <VdW12>
5.490

> <Bond>
0.106

> <Angle>
2.715

> <Pdih>
3.934

> <Idih>
0.000

> <Tether>
0.000

$$$$
VeraChem MOL file


 16 15  0  0  0  0  0  0  0  0999 V2000     
   18.9755   21.0332   23.5818 C   0  0  0  0  0  0  0  0  0  0  0  0
   19.7667   21.8713   23.9658 O   0  5  0  0  0  0  0  0  0  0  0  0
   17.7939   21.2549   23.4067 O   0  0  0  0  0  0  0  0  0  0  0  0
   19.4973   19.6315   23.2860 C   0  0  0  0  0  0  0  0  0  0  0  0
   18.6986   18.9152   23.5138 H   0  0  0  0  0  0  0  0  0  0  0  0
   20.3251   19.4234   23.9746 H   0  0  0  0  0  0  0  0  0  0  0  0
   19.9663   19.4598   21.8202 C   0  0  0  0  0  0  0  0  0  0  0  0
   19.1303   19.6835   21.1430 H   0  0  0  0  0  0  0  0  0  0  0  0
   20.7568   20.1918   21.6038 H   0  0  0  0  0  0  0  0  0  0  0  0
   20.4890   18.0339   21.5478 C   0  0  0  0  0  0  0  0  0  0  0  0
   19.6985   17.3017   21.7634 H   0  0  0  0  0  0  0  0  0  0  0  0
   21.3255   17.8101   22.2244 H   0  0  0  0  0  0  0  0  0  0  0  0
   20.9540   17.8704   20.0873 C   0  0  0  0  0  0  0  0  0  0  0  0
   21.7669   18.5703   19.8532 H   0  0  0  0  0  0  0  0  0  0  0  0
   20.1280   18.0581   19.3888 H   0  0  0  0  0  0  0  0  0  0  0  0
   21.3225   16.8515   19.9105 H   0  0  0  0  0  0  0  0  0  0  0  0
  1  2  1  0  0  0  0
  1  3  2  0  0  0  0
  1  4  1  0  0  0  0
  4  5  1  0  0  0  0
  4  6  1  0  0  0  0
  4  7  1  0  0  0  0
  7  8  1  0  0  0  0
  7  9  1  0  0  0  0
  7 10  1  0  0  0  0
 10 11  1  0  0  0  0
 10 12  1  0  0  0  0
 10 13  1  0  0  0  0
 13 14  1  0  0  0  0
 13 15  1  0  0  0  0
 13 16  1  0  0  0  0
M  END
> <VConfSearch Rank>
402

> <Conf_Id>
22

> <Delta U+W>
-1.185

> <U+W>
-58.089

> <U>
6.298

> <W>
-64.387

> <W(PB)>
-66.329

> <W(SA)>
1.942

> <Valence>
6.246

> <Coulomb>
-0.408

> <VdW>
0.460

> <VdW6>
-4.207

> <VdW12>
4.667

> <Bond>
0.072

> <Angle>
2.246

> <Pdih>
3.928

> <Idih>
0.001

> <Tether>
0.000

$$$$
VeraChem MOL file


 16 15  0  0  0  0  0  0  0  0999 V2000     
   21.6991   20.6189   20.7562 C   0  0  0  0  0  0  0  0  0  0  0  0
   22.5907   20.1458   20.0800 O   0  5  0  0  0  0  0  0  0  0  0  0
   21.7321   21.7408   21.2211 O   0  0  0  0  0  0  0  0  0  0  0  0
   20.4822   19.7501   21.0541 C   0  0  0  0  0  0  0  0  0  0  0  0
   20.3177   19.0885   20.1951 H   0  0  0  0  0  0  0  0  0  0  0  0
   19.6102   20.4099   21.1279 H   0  0  0  0  0  0  0  0  0  0  0  0
   20.6436   18.9133   22.3497 C   0  0  0  0  0  0  0  0  0  0  0  0
   21.5717   18.3292   22.2796 H   0  0  0  0  0  0  0  0  0  0  0  0
   20.7650   19.5875   23.2088 H   0  0  0  0  0  0  0  0  0  0  0  0
   19.4659   17.9454   22.6079 C   0  0  0  0  0  0  0  0  0  0  0  0
   19.7085   17.3178   23.4766 H   0  0  0  0  0  0  0  0  0  0  0  0
   19.3518   17.2633   21.7540 H   0  0  0  0  0  0  0  0  0  0  0  0
   18.1296   18.6704   22.8754 C   0  0  0  0  0  0  0  0  0  0  0  0
   17.7886   19.2219   21.9903 H   0  0  0  0  0  0  0  0  0  0  0  0
   18.2272   19.3798   23.7075 H   0  0  0  0  0  0  0  0  0  0  0  0
   17.3467   17.9472   23.1381 H   0  0  0  0  0  0  0  0  0  0  0  0
  1  2  1  0  0  0  0
  1  3  2  0  0  0  0
  1  4  1  0  0  0  0
  4  5  1  0  0  0  0
  4  6  1  0  0  0  0
  4  7  1  0  0  0  0
  7  8  1  0  0  0  0
  7  9  1  0  0  0  0
  7 10  1  0  0  0  0
 10 11  1  0  0  0  0
 10 12  1  0  0  0  0
 10 13  1  0  0  0  0
 13 14  1  0  0  0  0
 13 15  1  0  0  0  0
 13 16  1  0  0  0  0
M  END
> <VConfSearch Rank>
403

> <Conf_Id>
36

> <Delta U+W>
-0.427

> <U+W>
-57.331

> <U>
7.263

> <W>
-64.594

> <W(PB)>
-66.513

> <W(SA)>
1.920

> <Valence>
6.734

> <Coulomb>
-0.068

> <VdW>
0.598

> <VdW6>
-4.819

> <VdW12>
5.417

> <Bond>
0.107

> <Angle>
2.469

> <Pdih>
4.157

> <Idih>
0.001

> <Tether>
0.000

$$$$
VeraChem MOL file


 16 15  0  0  0  0  0  0  0  0999 V2000     
   21.4145   17.1317   22.7356 C   0  0  0  0  0  0  0  0  0  0  0  0
   22.4857   17.1262   22.1625 O   0  5  0  0  0  0  0  0  0  0  0  0
   20.9413   16.1564   23.2840 O   0  0  0  0  0  0  0  0  0  0  0  0
   20.6110   18.4273   22.7504 C   0  0  0  0  0  0  0  0  0  0  0  0
   21.3216   19.2614   22.7695 H   0  0  0  0  0  0  0  0  0  0  0  0
   20.0411   18.4639   23.6866 H   0  0  0  0  0  0  0  0  0  0  0  0
   19.6537   18.5548   21.5370 C   0  0  0  0  0  0  0  0  0  0  0  0
   20.2391   18.5599   20.6072 H   0  0  0  0  0  0  0  0  0  0  0  0
   19.0140   17.6623   21.4965 H   0  0  0  0  0  0  0  0  0  0  0  0
   18.7523   19.8098   21.5934 C   0  0  0  0  0  0  0  0  0  0  0  0
   18.1582   19.7989   22.5177 H   0  0  0  0  0  0  0  0  0  0  0  0
   18.0349   19.7670   20.7623 H   0  0  0  0  0  0  0  0  0  0  0  0
   19.5434   21.1320   21.5004 C   0  0  0  0  0  0  0  0  0  0  0  0
   20.1938   21.2724   22.3729 H   0  0  0  0  0  0  0  0  0  0  0  0
   18.8569   21.9875   21.4569 H   0  0  0  0  0  0  0  0  0  0  0  0
   20.1678   21.1536   20.5977 H   0  0  0  0  0  0  0  0  0  0  0  0
  1  2  1  0  0  0  0
  1  3  2  0  0  0  0
  1  4  1  0  0  0  0
  4  5  1  0  0  0  0
  4  6  1  0  0  0  0
  4  7  1  0  0  0  0
  7  8  1  0  0  0  0
  7  9  1  0  0  0  0
  7 10  1  0  0  0  0
 10 11  1  0  0  0  0
 10 12  1  0  0  0  0
 10 13  1  0  0  0  0
 13 14  1  0  0  0  0
 13 15  1  0  0  0  0
 13 16  1  0  0  0  0
M  END
> <VConfSearch Rank>
404

> <Conf_Id>
17

> <Delta U+W>
-0.432

> <U+W>
-57.336

> <U>
7.263

> <W>
-64.599

> <W(PB)>
-66.503

> <W(SA)>
1.904

> <Valence>
6.734

> <Coulomb>
-0.068

> <VdW>
0.598

> <VdW6>
-4.819

> <VdW12>
5.417

> <Bond>
0.107

> <Angle>
2.469

> <Pdih>
4.157

> <Idih>
0.001

> <Tether>
0.000

$$$$
VeraChem MOL file


 16 15  0  0  0  0  0  0  0  0999 V2000     
   21.1883   19.5399   20.0085 C   0  0  0  0  0  0  0  0  0  0  0  0
   21.7810   20.5995   19.9605 O   0  5  0  0  0  0  0  0  0  0  0  0
   21.6741   18.4827   19.6581 O   0  0  0  0  0  0  0  0  0  0  0  0
   19.7482   19.5429   20.5140 C   0  0  0  0  0  0  0  0  0  0  0  0
   19.2562   18.6225   20.1765 H   0  0  0  0  0  0  0  0  0  0  0  0
   19.2304   20.3766   20.0249 H   0  0  0  0  0  0  0  0  0  0  0  0
   19.6187   19.6853   22.0528 C   0  0  0  0  0  0  0  0  0  0  0  0
   20.1401   20.5958   22.3795 H   0  0  0  0  0  0  0  0  0  0  0  0
   18.5592   19.8179   22.3106 H   0  0  0  0  0  0  0  0  0  0  0  0
   20.1775   18.4620   22.8115 C   0  0  0  0  0  0  0  0  0  0  0  0
   21.2432   18.3315   22.5770 H   0  0  0  0  0  0  0  0  0  0  0  0
   19.6638   17.5508   22.4749 H   0  0  0  0  0  0  0  0  0  0  0  0
   20.0058   18.6142   24.3359 C   0  0  0  0  0  0  0  0  0  0  0  0
   20.5364   19.5022   24.7038 H   0  0  0  0  0  0  0  0  0  0  0  0
   20.4085   17.7375   24.8597 H   0  0  0  0  0  0  0  0  0  0  0  0
   18.9457   18.7121   24.6043 H   0  0  0  0  0  0  0  0  0  0  0  0
  1  2  1  0  0  0  0
  1  3  2  0  0  0  0
  1  4  1  0  0  0  0
  4  5  1  0  0  0  0
  4  6  1  0  0  0  0
  4  7  1  0  0  0  0
  7  8  1  0  0  0  0
  7  9  1  0  0  0  0
  7 10  1  0  0  0  0
 10 11  1  0  0  0  0
 10 12  1  0  0  0  0
 10 13  1  0  0  0  0
 13 14  1  0  0  0  0
 13 15  1  0  0  0  0
 13 16  1  0  0  0  0
M  END
> <VConfSearch Rank>
405

> <Conf_Id>
19

> <Delta U+W>
0.048

> <U+W>
-56.856

> <U>
8.276

> <W>
-65.132

> <W(PB)>
-67.031

> <W(SA)>
1.899

> <Valence>
6.513

> <Coulomb>
1.428

> <VdW>
0.335

> <VdW6>
-5.021

> <VdW12>
5.356

> <Bond>
0.092

> <Angle>
2.417

> <Pdih>
4.003

> <Idih>
0.001

> <Tether>
0.000

$$$$
VeraChem MOL file


 16 15  0  0  0  0  0  0  0  0999 V2000     
   18.3666   17.3863   21.6308 C   0  0  0  0  0  0  0  0  0  0  0  0
   18.7078   16.3248   22.1135 O   0  5  0  0  0  0  0  0  0  0  0  0
   18.0235   17.5175   20.4726 O   0  0  0  0  0  0  0  0  0  0  0  0
   18.3462   18.6152   22.5357 C   0  0  0  0  0  0  0  0  0  0  0  0
   17.8636   18.3225   23.4758 H   0  0  0  0  0  0  0  0  0  0  0  0
   17.7072   19.3788   22.0757 H   0  0  0  0  0  0  0  0  0  0  0  0
   19.7498   19.2024   22.8360 C   0  0  0  0  0  0  0  0  0  0  0  0
   19.6520   19.9880   23.5974 H   0  0  0  0  0  0  0  0  0  0  0  0
   20.3870   18.4191   23.2698 H   0  0  0  0  0  0  0  0  0  0  0  0
   20.4277   19.7924   21.5805 C   0  0  0  0  0  0  0  0  0  0  0  0
   19.7838   20.5667   21.1409 H   0  0  0  0  0  0  0  0  0  0  0  0
   20.5495   19.0097   20.8187 H   0  0  0  0  0  0  0  0  0  0  0  0
   21.8054   20.3989   21.9130 C   0  0  0  0  0  0  0  0  0  0  0  0
   21.7112   21.2092   22.6479 H   0  0  0  0  0  0  0  0  0  0  0  0
   22.2737   20.8127   21.0104 H   0  0  0  0  0  0  0  0  0  0  0  0
   22.4799   19.6375   22.3262 H   0  0  0  0  0  0  0  0  0  0  0  0
  1  2  1  0  0  0  0
  1  3  2  0  0  0  0
  1  4  1  0  0  0  0
  4  5  1  0  0  0  0
  4  6  1  0  0  0  0
  4  7  1  0  0  0  0
  7  8  1  0  0  0  0
  7  9  1  0  0  0  0
  7 10  1  0  0  0  0
 10 11  1  0  0  0  0
 10 12  1  0  0  0  0
 10 13  1  0  0  0  0
 13 14  1  0  0  0  0
 13 15  1  0  0  0  0
 13 16  1  0  0  0  0
M  END
> <VConfSearch Rank>
406

> <Conf_Id>
20

> <Delta U+W>
-0.010

> <U+W>
-56.914

> <U>
8.277

> <W>
-65.191

> <W(PB)>
-67.081

> <W(SA)>
1.890

> <Valence>
6.513

> <Coulomb>
1.429

> <VdW>
0.335

> <VdW6>
-5.021

> <VdW12>
5.356

> <Bond>
0.092

> <Angle>
2.417

> <Pdih>
4.002

> <Idih>
0.001

> <Tether>
0.000

$$$$
VeraChem MOL file


 16 15  0  0  0  0  0  0  0  0999 V2000     
   19.9255   20.8168   23.5418 C   0  0  0  0  0  0  0  0  0  0  0  0
   18.9631   21.5199   23.7790 O   0  5  0  0  0  0  0  0  0  0  0  0
   21.0346   21.2550   23.3093 O   0  0  0  0  0  0  0  0  0  0  0  0
   19.7353   19.3026   23.5717 C   0  0  0  0  0  0  0  0  0  0  0  0
   19.2318   19.0564   24.5139 H   0  0  0  0  0  0  0  0  0  0  0  0
   20.7209   18.8249   23.6129 H   0  0  0  0  0  0  0  0  0  0  0  0
   18.9045   18.7424   22.3849 C   0  0  0  0  0  0  0  0  0  0  0  0
   18.7508   17.6646   22.5300 H   0  0  0  0  0  0  0  0  0  0  0  0
   17.9063   19.2013   22.4054 H   0  0  0  0  0  0  0  0  0  0  0  0
   19.5369   18.9836   20.9936 C   0  0  0  0  0  0  0  0  0  0  0  0
   19.6640   20.0615   20.8217 H   0  0  0  0  0  0  0  0  0  0  0  0
   18.8394   18.6278   20.2229 H   0  0  0  0  0  0  0  0  0  0  0  0
   20.8914   18.2671   20.8082 C   0  0  0  0  0  0  0  0  0  0  0  0
   21.6555   18.6807   21.4787 H   0  0  0  0  0  0  0  0  0  0  0  0
   21.2524   18.3894   19.7789 H   0  0  0  0  0  0  0  0  0  0  0  0
   20.7993   17.1918   21.0093 H   0  0  0  0  0  0  0  0  0  0  0  0
  1  2  1  0  0  0  0
  1  3  2  0  0  0  0
  1  4  1  0  0  0  0
  4  5  1  0  0  0  0
  4  6  1  0  0  0  0
  4  7  1  0  0  0  0
  7  8  1  0  0  0  0
  7  9  1  0  0  0  0
  7 10  1  0  0  0  0
 10 11  1  0  0  0  0
 10 12  1  0  0  0  0
 10 13  1  0  0  0  0
 13 14  1  0  0  0  0
 13 15  1  0  0  0  0
 13 16  1  0  0  0  0
M  END
> <VConfSearch Rank>
407

> <Conf_Id>
37

> <Delta U+W>
1.063

> <U+W>
-55.841

> <U>
9.719

> <W>
-65.560

> <W(PB)>
-67.414

> <W(SA)>
1.854

> <Valence>
7.002

> <Coulomb>
2.402

> <VdW>
0.314

> <VdW6>
-5.861

> <VdW12>
6.175

> <Bond>
0.134

> <Angle>
2.733

> <Pdih>
4.133

> <Idih>
0.002

> <Tether>
0.000

$$$$
VeraChem MOL file


 16 15  0  0  0  0  0  0  0  0999 V2000     
   18.9956   18.3635   23.8217 C   0  0  0  0  0  0  0  0  0  0  0  0
   18.0272   17.6430   23.6802 O   0  5  0  0  0  0  0  0  0  0  0  0
   19.8827   18.1443   24.6224 O   0  0  0  0  0  0  0  0  0  0  0  0
   19.0819   19.6283   22.9716 C   0  0  0  0  0  0  0  0  0  0  0  0
   19.8436   20.2893   23.4006 H   0  0  0  0  0  0  0  0  0  0  0  0
   18.1245   20.1531   23.0707 H   0  0  0  0  0  0  0  0  0  0  0  0
   19.3692   19.3655   21.4679 C   0  0  0  0  0  0  0  0  0  0  0  0
   18.5599   18.7459   21.0572 H   0  0  0  0  0  0  0  0  0  0  0  0
   19.3343   20.3183   20.9227 H   0  0  0  0  0  0  0  0  0  0  0  0
   20.7224   18.6689   21.1893 C   0  0  0  0  0  0  0  0  0  0  0  0
   20.7934   18.4540   20.1142 H   0  0  0  0  0  0  0  0  0  0  0  0
   20.7559   17.6973   21.7016 H   0  0  0  0  0  0  0  0  0  0  0  0
   21.9415   19.5174   21.6091 C   0  0  0  0  0  0  0  0  0  0  0  0
   21.9132   20.5083   21.1377 H   0  0  0  0  0  0  0  0  0  0  0  0
   22.8744   19.0246   21.3060 H   0  0  0  0  0  0  0  0  0  0  0  0
   21.9766   19.6524   22.6977 H   0  0  0  0  0  0  0  0  0  0  0  0
  1  2  1  0  0  0  0
  1  3  2  0  0  0  0
  1  4  1  0  0  0  0
  4  5  1  0  0  0  0
  4  6  1  0  0  0  0
  4  7  1  0  0  0  0
  7  8  1  0  0  0  0
  7  9  1  0  0  0  0
  7 10  1  0  0  0  0
 10 11  1  0  0  0  0
 10 12  1  0  0  0  0
 10 13  1  0  0  0  0
 13 14  1  0  0  0  0
 13 15  1  0  0  0  0
 13 16  1  0  0  0  0
M  END
> <VConfSearch Rank>
408

> <Conf_Id>
39

> <Delta U+W>
1.129

> <U+W>
-55.775

> <U>
9.718

> <W>
-65.493

> <W(PB)>
-67.361

> <W(SA)>
1.869

> <Valence>
7.002

> <Coulomb>
2.402

> <VdW>
0.314

> <VdW6>
-5.861

> <VdW12>
6.175

> <Bond>
0.134

> <Angle>
2.734

> <Pdih>
4.133

> <Idih>
0.002

> <Tether>
0.000

$$$$
VeraChem MOL file


 16 15  0  0  0  0  0  0  0  0999 V2000     
   19.0147   19.9475   23.8339 C   0  0  0  0  0  0  0  0  0  0  0  0
   18.6997   21.0938   23.5814 O   0  5  0  0  0  0  0  0  0  0  0  0
   19.6081   19.6242   24.8440 O   0  0  0  0  0  0  0  0  0  0  0  0
   18.5617   18.8476   22.8754 C   0  0  0  0  0  0  0  0  0  0  0  0
   17.9756   19.2990   22.0656 H   0  0  0  0  0  0  0  0  0  0  0  0
   17.8738   18.2088   23.4414 H   0  0  0  0  0  0  0  0  0  0  0  0
   19.7007   17.9671   22.2885 C   0  0  0  0  0  0  0  0  0  0  0  0
   20.4041   17.6854   23.0844 H   0  0  0  0  0  0  0  0  0  0  0  0
   19.2546   17.0286   21.9328 H   0  0  0  0  0  0  0  0  0  0  0  0
   20.4663   18.6045   21.1039 C   0  0  0  0  0  0  0  0  0  0  0  0
   19.7594   18.8865   20.3114 H   0  0  0  0  0  0  0  0  0  0  0  0
   21.1293   17.8437   20.6694 H   0  0  0  0  0  0  0  0  0  0  0  0
   21.3190   19.8282   21.4983 C   0  0  0  0  0  0  0  0  0  0  0  0
   20.6886   20.6789   21.7846 H   0  0  0  0  0  0  0  0  0  0  0  0
   21.9430   20.1495   20.6544 H   0  0  0  0  0  0  0  0  0  0  0  0
   21.9826   19.5915   22.3403 H   0  0  0  0  0  0  0  0  0  0  0  0
  1  2  1  0  0  0  0
  1  3  2  0  0  0  0
  1  4  1  0  0  0  0
  4  5  1  0  0  0  0
  4  6  1  0  0  0  0
  4  7  1  0  0  0  0
  7  8  1  0  0  0  0
  7  9  1  0  0  0  0
  7 10  1  0  0  0  0
 10 11  1  0  0  0  0
 10 12  1  0  0  0  0
 10 13  1  0  0  0  0
 13 14  1  0  0  0  0
 13 15  1  0  0  0  0
 13 16  1  0  0  0  0
M  END
> <VConfSearch Rank>
409

> <Conf_Id>
47

> <Delta U+W>
2.301

> <U+W>
-54.603

> <U>
11.258

> <W>
-65.861

> <W(PB)>
-67.702

> <W(SA)>
1.841

> <Valence>
8.169

> <Coulomb>
2.735

> <VdW>
0.355

> <VdW6>
-6.245

> <VdW12>
6.600

> <Bond>
0.149

> <Angle>
3.168

> <Pdih>
4.840

> <Idih>
0.011

> <Tether>
0.000

$$$$
VeraChem MOL file


 16 15  0  0  0  0  0  0  0  0999 V2000     
   19.6539   17.9610   23.8794 C   0  0  0  0  0  0  0  0  0  0  0  0
   18.5081   17.5571   23.9135 O   0  5  0  0  0  0  0  0  0  0  0  0
   20.2239   18.4368   24.8414 O   0  0  0  0  0  0  0  0  0  0  0  0
   20.4485   17.7796   22.5874 C   0  0  0  0  0  0  0  0  0  0  0  0
   20.5008   16.6997   22.4061 H   0  0  0  0  0  0  0  0  0  0  0  0
   21.4782   18.1201   22.7509 H   0  0  0  0  0  0  0  0  0  0  0  0
   19.8454   18.4731   21.3335 C   0  0  0  0  0  0  0  0  0  0  0  0
   20.2688   17.9902   20.4424 H   0  0  0  0  0  0  0  0  0  0  0  0
   18.7624   18.2922   21.2900 H   0  0  0  0  0  0  0  0  0  0  0  0
   20.1352   19.9900   21.2308 C   0  0  0  0  0  0  0  0  0  0  0  0
   19.8071   20.3402   20.2424 H   0  0  0  0  0  0  0  0  0  0  0  0
   21.2187   20.1667   21.2765 H   0  0  0  0  0  0  0  0  0  0  0  0
   19.4256   20.8351   22.3090 C   0  0  0  0  0  0  0  0  0  0  0  0
   19.5535   21.9057   22.1034 H   0  0  0  0  0  0  0  0  0  0  0  0
   19.8389   20.6393   23.3060 H   0  0  0  0  0  0  0  0  0  0  0  0
   18.3493   20.6202   22.3331 H   0  0  0  0  0  0  0  0  0  0  0  0
  1  2  1  0  0  0  0
  1  3  2  0  0  0  0
  1  4  1  0  0  0  0
  4  5  1  0  0  0  0
  4  6  1  0  0  0  0
  4  7  1  0  0  0  0
  7  8  1  0  0  0  0
  7  9  1  0  0  0  0
  7 10  1  0  0  0  0
 10 11  1  0  0  0  0
 10 12  1  0  0  0  0
 10 13  1  0  0  0  0
 13 14  1  0  0  0  0
 13 15  1  0  0  0  0
 13 16  1  0  0  0  0
M  END
> <VConfSearch Rank>
410

> <Conf_Id>
45

> <Delta U+W>
2.303

> <U+W>
-54.601

> <U>
11.258

> <W>
-65.860

> <W(PB)>
-67.709

> <W(SA)>
1.849

> <Valence>
8.169

> <Coulomb>
2.735

> <VdW>
0.355

> <VdW6>
-6.245

> <VdW12>
6.600

> <Bond>
0.149

> <Angle>
3.168

> <Pdih>
4.840

> <Idih>
0.011

> <Tether>
0.000

$$$$
VeraChem MOL file


 16 15  0  0  0  0  0  0  0  0999 V2000     
   21.3668   16.9088   22.8487 C   0  0  0  0  0  0  0  0  0  0  0  0
   20.3620   16.2751   23.1065 O   0  5  0  0  0  0  0  0  0  0  0  0
   22.4872   16.4772   23.0322 O   0  0  0  0  0  0  0  0  0  0  0  0
   21.2481   18.3180   22.2656 C   0  0  0  0  0  0  0  0  0  0  0  0
   21.7883   18.3239   21.3115 H   0  0  0  0  0  0  0  0  0  0  0  0
   21.7820   18.9975   22.9406 H   0  0  0  0  0  0  0  0  0  0  0  0
   19.7981   18.8270   22.0496 C   0  0  0  0  0  0  0  0  0  0  0  0
   19.2667   18.1395   21.3770 H   0  0  0  0  0  0  0  0  0  0  0  0
   19.2604   18.8137   23.0078 H   0  0  0  0  0  0  0  0  0  0  0  0
   19.7727   20.2529   21.4600 C   0  0  0  0  0  0  0  0  0  0  0  0
   20.3087   20.2672   20.5008 H   0  0  0  0  0  0  0  0  0  0  0  0
   20.3023   20.9418   22.1325 H   0  0  0  0  0  0  0  0  0  0  0  0
   18.3301   20.7528   21.2477 C   0  0  0  0  0  0  0  0  0  0  0  0
   17.7860   20.0988   20.5536 H   0  0  0  0  0  0  0  0  0  0  0  0
   18.3300   21.7673   20.8282 H   0  0  0  0  0  0  0  0  0  0  0  0
   17.7796   20.7784   22.1973 H   0  0  0  0  0  0  0  0  0  0  0  0
  1  2  1  0  0  0  0
  1  3  2  0  0  0  0
  1  4  1  0  0  0  0
  4  5  1  0  0  0  0
  4  6  1  0  0  0  0
  4  7  1  0  0  0  0
  7  8  1  0  0  0  0
  7  9  1  0  0  0  0
  7 10  1  0  0  0  0
 10 11  1  0  0  0  0
 10 12  1  0  0  0  0
 10 13  1  0  0  0  0
 13 14  1  0  0  0  0
 13 15  1  0  0  0  0
 13 16  1  0  0  0  0
M  END
> <VConfSearch Rank>
411

> <Conf_Id>
0

> <Delta U+W>
0.000

> <U+W>
-56.904

> <U>
7.329

> <W>
-64.233

> <W(PB)>
-66.148

> <W(SA)>
1.915

> <Valence>
6.755

> <Coulomb>
-0.421

> <VdW>
0.995

> <VdW6>
-4.495

> <VdW12>
5.490

> <Bond>
0.106

> <Angle>
2.715

> <Pdih>
3.934

> <Idih>
0.000

> <Tether>
0.000

$$$$
VeraChem MOL file


 16 15  0  0  0  0  0  0  0  0999 V2000     
   21.7135   20.9832   20.8489 C   0  0  0  0  0  0  0  0  0  0  0  0
   21.8931   20.8666   19.6531 O   0  5  0  0  0  0  0  0  0  0  0  0
   21.7403   22.0489   21.4316 O   0  0  0  0  0  0  0  0  0  0  0  0
   21.4205   19.7257   21.6597 C   0  0  0  0  0  0  0  0  0  0  0  0
   21.8347   19.8643   22.6657 H   0  0  0  0  0  0  0  0  0  0  0  0
   21.9606   18.8895   21.1994 H   0  0  0  0  0  0  0  0  0  0  0  0
   19.9085   19.4023   21.7450 C   0  0  0  0  0  0  0  0  0  0  0  0
   19.3800   20.2534   22.1964 H   0  0  0  0  0  0  0  0  0  0  0  0
   19.5058   19.2787   20.7300 H   0  0  0  0  0  0  0  0  0  0  0  0
   19.6398   18.1264   22.5700 C   0  0  0  0  0  0  0  0  0  0  0  0
   20.0417   18.2499   23.5853 H   0  0  0  0  0  0  0  0  0  0  0  0
   20.1676   17.2749   22.1185 H   0  0  0  0  0  0  0  0  0  0  0  0
   18.1332   17.8107   22.6505 C   0  0  0  0  0  0  0  0  0  0  0  0
   17.7112   17.6514   21.6495 H   0  0  0  0  0  0  0  0  0  0  0  0
   17.5844   18.6336   23.1271 H   0  0  0  0  0  0  0  0  0  0  0  0
   17.9596   16.9011   23.2402 H   0  0  0  0  0  0  0  0  0  0  0  0
  1  2  1  0  0  0  0
  1  3  2  0  0  0  0
  1  4  1  0  0  0  0
  4  5  1  0  0  0  0
  4  6  1  0  0  0  0
  4  7  1  0  0  0  0
  7  8  1  0  0  0  0
  7  9  1  0  0  0  0
  7 10  1  0  0  0  0
 10 11  1  0  0  0  0
 10 12  1  0  0  0  0
 10 13  1  0  0  0  0
 13 14  1  0  0  0  0
 13 15  1  0  0  0  0
 13 16  1  0  0  0  0
M  END
> <VConfSearch Rank>
412

> <Conf_Id>
22

> <Delta U+W>
-1.185

> <U+W>
-58.089

> <U>
6.298

> <W>
-64.387

> <W(PB)>
-66.329

> <W(SA)>
1.942

> <Valence>
6.246

> <Coulomb>
-0.408

> <VdW>
0.460

> <VdW6>
-4.207

> <VdW12>
4.667

> <Bond>
0.072

> <Angle>
2.246

> <Pdih>
3.928

> <Idih>
0.001

> <Tether>
0.000

$$$$
VeraChem MOL file


 16 15  0  0  0  0  0  0  0  0999 V2000     
   22.0528   19.2318   23.5156 C   0  0  0  0  0  0  0  0  0  0  0  0
   22.1474   18.5642   24.5262 O   0  5  0  0  0  0  0  0  0  0  0  0
   22.7062   20.2351   23.3099 O   0  0  0  0  0  0  0  0  0  0  0  0
   21.0447   18.7978   22.4572 C   0  0  0  0  0  0  0  0  0  0  0  0
   20.9768   17.7035   22.4801 H   0  0  0  0  0  0  0  0  0  0  0  0
   21.4472   19.0781   21.4772 H   0  0  0  0  0  0  0  0  0  0  0  0
   19.6423   19.4247   22.6699 C   0  0  0  0  0  0  0  0  0  0  0  0
   19.3054   19.1983   23.6911 H   0  0  0  0  0  0  0  0  0  0  0  0
   19.7159   20.5190   22.6025 H   0  0  0  0  0  0  0  0  0  0  0  0
   18.5803   18.9102   21.6710 C   0  0  0  0  0  0  0  0  0  0  0  0
   17.6002   19.3160   21.9574 H   0  0  0  0  0  0  0  0  0  0  0  0
   18.4982   17.8171   21.7467 H   0  0  0  0  0  0  0  0  0  0  0  0
   18.8761   19.3087   20.2093 C   0  0  0  0  0  0  0  0  0  0  0  0
   19.7929   18.8314   19.8413 H   0  0  0  0  0  0  0  0  0  0  0  0
   18.9911   20.3963   20.1141 H   0  0  0  0  0  0  0  0  0  0  0  0
   18.0532   18.9973   19.5528 H   0  0  0  0  0  0  0  0  0  0  0  0
  1  2  1  0  0  0  0
  1  3  2  0  0  0  0
  1  4  1  0  0  0  0
  4  5  1  0  0  0  0
  4  6  1  0  0  0  0
  4  7  1  0  0  0  0
  7  8  1  0  0  0  0
  7  9  1  0  0  0  0
  7 10  1  0  0  0  0
 10 11  1  0  0  0  0
 10 12  1  0  0  0  0
 10 13  1  0  0  0  0
 13 14  1  0  0  0  0
 13 15  1  0  0  0  0
 13 16  1  0  0  0  0
M  END
> <VConfSearch Rank>
413

> <Conf_Id>
36

> <Delta U+W>
-0.427

> <U+W>
-57.331

> <U>
7.263

> <W>
-64.594

> <W(PB)>
-66.513

> <W(SA)>
1.920

> <Valence>
6.734

> <Coulomb>
-0.068

> <VdW>
0.598

> <VdW6>
-4.819

> <VdW12>
5.417

> <Bond>
0.107

> <Angle>
2.469

> <Pdih>
4.157

> <Idih>
0.001

> <Tether>
0.000

$$$$
VeraChem MOL file


 16 15  0  0  0  0  0  0  0  0999 V2000     
   20.0692   19.6297   19.4497 C   0  0  0  0  0  0  0  0  0  0  0  0
   20.9654   20.4072   19.1885 O   0  5  0  0  0  0  0  0  0  0  0  0
   19.1349   19.4074   18.7056 O   0  0  0  0  0  0  0  0  0  0  0  0
   20.1082   18.9088   20.7926 C   0  0  0  0  0  0  0  0  0  0  0  0
   21.1598   18.7431   21.0528 H   0  0  0  0  0  0  0  0  0  0  0  0
   19.6458   17.9228   20.6633 H   0  0  0  0  0  0  0  0  0  0  0  0
   19.3856   19.6942   21.9177 C   0  0  0  0  0  0  0  0  0  0  0  0
   19.8838   20.6621   22.0673 H   0  0  0  0  0  0  0  0  0  0  0  0
   18.3614   19.9194   21.5895 H   0  0  0  0  0  0  0  0  0  0  0  0
   19.3202   18.9278   23.2589 C   0  0  0  0  0  0  0  0  0  0  0  0
   18.8116   17.9650   23.1119 H   0  0  0  0  0  0  0  0  0  0  0  0
   18.7023   19.5013   23.9636 H   0  0  0  0  0  0  0  0  0  0  0  0
   20.7077   18.6906   23.8926 C   0  0  0  0  0  0  0  0  0  0  0  0
   21.3227   18.0255   23.2736 H   0  0  0  0  0  0  0  0  0  0  0  0
   20.6034   18.2227   24.8802 H   0  0  0  0  0  0  0  0  0  0  0  0
   21.2473   19.6377   24.0227 H   0  0  0  0  0  0  0  0  0  0  0  0
  1  2  1  0  0  0  0
  1  3  2  0  0  0  0
  1  4  1  0  0  0  0
  4  5  1  0  0  0  0
  4  6  1  0  0  0  0
  4  7  1  0  0  0  0
  7  8  1  0  0  0  0
  7  9  1  0  0  0  0
  7 10  1  0  0  0  0
 10 11  1  0  0  0  0
 10 12  1  0  0  0  0
 10 13  1  0  0  0  0
 13 14  1  0  0  0  0
 13 15  1  0  0  0  0
 13 16  1  0  0  0  0
M  END
> <VConfSearch Rank>
414

> <Conf_Id>
17

> <Delta U+W>
-0.432

> <U+W>
-57.336

> <U>
7.263

> <W>
-64.599

> <W(PB)>
-66.503

> <W(SA)>
1.904

> <Valence>
6.734

> <Coulomb>
-0.068

> <VdW>
0.598

> <VdW6>
-4.819

> <VdW12>
5.417

> <Bond>
0.107

> <Angle>
2.469

> <Pdih>
4.157

> <Idih>
0.001

> <Tether>
0.000

$$$$
VeraChem MOL file


 16 15  0  0  0  0  0  0  0  0999 V2000     
   21.2668   20.8546   23.2627 C   0  0  0  0  0  0  0  0  0  0  0  0
   21.1416   20.7845   24.4692 O   0  5  0  0  0  0  0  0  0  0  0  0
   22.3369   21.0032   22.7066 O   0  0  0  0  0  0  0  0  0  0  0  0
   20.0085   20.7756   22.4026 C   0  0  0  0  0  0  0  0  0  0  0  0
   20.2330   21.1935   21.4136 H   0  0  0  0  0  0  0  0  0  0  0  0
   19.2568   21.4299   22.8599 H   0  0  0  0  0  0  0  0  0  0  0  0
   19.4295   19.3441   22.2594 C   0  0  0  0  0  0  0  0  0  0  0  0
   19.2365   18.9278   23.2579 H   0  0  0  0  0  0  0  0  0  0  0  0
   18.4592   19.4015   21.7478 H   0  0  0  0  0  0  0  0  0  0  0  0
   20.3648   18.4013   21.4717 C   0  0  0  0  0  0  0  0  0  0  0  0
   21.3328   18.3198   21.9857 H   0  0  0  0  0  0  0  0  0  0  0  0
   20.5669   18.8249   20.4782 H   0  0  0  0  0  0  0  0  0  0  0  0
   19.7510   16.9959   21.3149 C   0  0  0  0  0  0  0  0  0  0  0  0
   19.5673   16.5364   22.2950 H   0  0  0  0  0  0  0  0  0  0  0  0
   20.4282   16.3387   20.7540 H   0  0  0  0  0  0  0  0  0  0  0  0
   18.7972   17.0417   20.7731 H   0  0  0  0  0  0  0  0  0  0  0  0
  1  2  1  0  0  0  0
  1  3  2  0  0  0  0
  1  4  1  0  0  0  0
  4  5  1  0  0  0  0
  4  6  1  0  0  0  0
  4  7  1  0  0  0  0
  7  8  1  0  0  0  0
  7  9  1  0  0  0  0
  7 10  1  0  0  0  0
 10 11  1  0  0  0  0
 10 12  1  0  0  0  0
 10 13  1  0  0  0  0
 13 14  1  0  0  0  0
 13 15  1  0  0  0  0
 13 16  1  0  0  0  0
M  END
> <VConfSearch Rank>
415

> <Conf_Id>
19

> <Delta U+W>
0.048

> <U+W>
-56.856

> <U>
8.276

> <W>
-65.132

> <W(PB)>
-67.031

> <W(SA)>
1.899

> <Valence>
6.513

> <Coulomb>
1.428

> <VdW>
0.335

> <VdW6>
-5.021

> <VdW12>
5.356

> <Bond>
0.092

> <Angle>
2.417

> <Pdih>
4.003

> <Idih>
0.001

> <Tether>
0.000

$$$$
VeraChem MOL file


 16 15  0  0  0  0  0  0  0  0999 V2000     
   20.6941   19.2722   24.3053 C   0  0  0  0  0  0  0  0  0  0  0  0
   21.1391   20.3627   24.6039 O   0  5  0  0  0  0  0  0  0  0  0  0
   21.2849   18.2291   24.5035 O   0  0  0  0  0  0  0  0  0  0  0  0
   19.3084   19.2100   23.6685 C   0  0  0  0  0  0  0  0  0  0  0  0
   18.6513   19.8697   24.2475 H   0  0  0  0  0  0  0  0  0  0  0  0
   18.9157   18.1921   23.7822 H   0  0  0  0  0  0  0  0  0  0  0  0
   19.2790   19.6310   22.1763 C   0  0  0  0  0  0  0  0  0  0  0  0
   18.2340   19.6903   21.8432 H   0  0  0  0  0  0  0  0  0  0  0  0
   19.7012   20.6405   22.0743 H   0  0  0  0  0  0  0  0  0  0  0  0
   20.0478   18.6483   21.2666 C   0  0  0  0  0  0  0  0  0  0  0  0
   19.6326   17.6372   21.3789 H   0  0  0  0  0  0  0  0  0  0  0  0
   21.1005   18.5963   21.5780 H   0  0  0  0  0  0  0  0  0  0  0  0
   19.9744   19.0716   19.7861 C   0  0  0  0  0  0  0  0  0  0  0  0
   18.9341   19.0990   19.4362 H   0  0  0  0  0  0  0  0  0  0  0  0
   20.5261   18.3637   19.1539 H   0  0  0  0  0  0  0  0  0  0  0  0
   20.4117   20.0681   19.6407 H   0  0  0  0  0  0  0  0  0  0  0  0
  1  2  1  0  0  0  0
  1  3  2  0  0  0  0
  1  4  1  0  0  0  0
  4  5  1  0  0  0  0
  4  6  1  0  0  0  0
  4  7  1  0  0  0  0
  7  8  1  0  0  0  0
  7  9  1  0  0  0  0
  7 10  1  0  0  0  0
 10 11  1  0  0  0  0
 10 12  1  0  0  0  0
 10 13  1  0  0  0  0
 13 14  1  0  0  0  0
 13 15  1  0  0  0  0
 13 16  1  0  0  0  0
M  END
> <VConfSearch Rank>
416

> <Conf_Id>
20

> <Delta U+W>
-0.010

> <U+W>
-56.914

> <U>
8.277

> <W>
-65.191

> <W(PB)>
-67.081

> <W(SA)>
1.890

> <Valence>
6.513

> <Coulomb>
1.429

> <VdW>
0.335

> <VdW6>
-5.021

> <VdW12>
5.356

> <Bond>
0.092

> <Angle>
2.417

> <Pdih>
4.002

> <Idih>
0.001

> <Tether>
0.000

$$$$
VeraChem MOL file


 16 15  0  0  0  0  0  0  0  0999 V2000     
   19.9005   17.0159   22.2850 C   0  0  0  0  0  0  0  0  0  0  0  0
   19.0270   16.3629   22.8212 O   0  5  0  0  0  0  0  0  0  0  0  0
   21.0867   16.8241   22.4649 O   0  0  0  0  0  0  0  0  0  0  0  0
   19.4829   18.1119   21.3082 C   0  0  0  0  0  0  0  0  0  0  0  0
   18.7713   17.6660   20.6035 H   0  0  0  0  0  0  0  0  0  0  0  0
   20.3575   18.4099   20.7187 H   0  0  0  0  0  0  0  0  0  0  0  0
   18.8295   19.3494   21.9823 C   0  0  0  0  0  0  0  0  0  0  0  0
   18.4899   20.0461   21.2041 H   0  0  0  0  0  0  0  0  0  0  0  0
   17.9277   19.0237   22.5189 H   0  0  0  0  0  0  0  0  0  0  0  0
   19.7544   20.1006   22.9694 C   0  0  0  0  0  0  0  0  0  0  0  0
   20.0735   19.4227   23.7733 H   0  0  0  0  0  0  0  0  0  0  0  0
   19.1783   20.9023   23.4516 H   0  0  0  0  0  0  0  0  0  0  0  0
   20.9954   20.7183   22.2906 C   0  0  0  0  0  0  0  0  0  0  0  0
   21.6646   19.9405   21.9011 H   0  0  0  0  0  0  0  0  0  0  0  0
   21.5676   21.3179   23.0103 H   0  0  0  0  0  0  0  0  0  0  0  0
   20.7047   21.3735   21.4592 H   0  0  0  0  0  0  0  0  0  0  0  0
  1  2  1  0  0  0  0
  1  3  2  0  0  0  0
  1  4  1  0  0  0  0
  4  5  1  0  0  0  0
  4  6  1  0  0  0  0
  4  7  1  0  0  0  0
  7  8  1  0  0  0  0
  7  9  1  0  0  0  0
  7 10  1  0  0  0  0
 10 11  1  0  0  0  0
 10 12  1  0  0  0  0
 10 13  1  0  0  0  0
 13 14  1  0  0  0  0
 13 15  1  0  0  0  0
 13 16  1  0  0  0  0
M  END
> <VConfSearch Rank>
417

> <Conf_Id>
37

> <Delta U+W>
1.063

> <U+W>
-55.841

> <U>
9.719

> <W>
-65.560

> <W(PB)>
-67.414

> <W(SA)>
1.854

> <Valence>
7.002

> <Coulomb>
2.402

> <VdW>
0.314

> <VdW6>
-5.861

> <VdW12>
6.175

> <Bond>
0.134

> <Angle>
2.733

> <Pdih>
4.133

> <Idih>
0.002

> <Tether>
0.000

$$$$
VeraChem MOL file


 16 15  0  0  0  0  0  0  0  0999 V2000     
   22.2159   19.3679   22.6664 C   0  0  0  0  0  0  0  0  0  0  0  0
   22.9439   20.1710   22.1171 O   0  5  0  0  0  0  0  0  0  0  0  0
   22.1765   19.2132   23.8709 O   0  0  0  0  0  0  0  0  0  0  0  0
   21.3303   18.4839   21.7922 C   0  0  0  0  0  0  0  0  0  0  0  0
   20.9555   17.6517   22.3990 H   0  0  0  0  0  0  0  0  0  0  0  0
   21.9721   18.0412   21.0215 H   0  0  0  0  0  0  0  0  0  0  0  0
   20.1554   19.2370   21.1103 C   0  0  0  0  0  0  0  0  0  0  0  0
   20.5683   20.0280   20.4691 H   0  0  0  0  0  0  0  0  0  0  0  0
   19.6237   18.5457   20.4427 H   0  0  0  0  0  0  0  0  0  0  0  0
   19.1453   19.8698   22.0969 C   0  0  0  0  0  0  0  0  0  0  0  0
   18.4054   20.4448   21.5233 H   0  0  0  0  0  0  0  0  0  0  0  0
   19.6593   20.5903   22.7483 H   0  0  0  0  0  0  0  0  0  0  0  0
   18.4045   18.8276   22.9615 C   0  0  0  0  0  0  0  0  0  0  0  0
   17.9110   18.0741   22.3340 H   0  0  0  0  0  0  0  0  0  0  0  0
   17.6350   19.3148   23.5742 H   0  0  0  0  0  0  0  0  0  0  0  0
   19.0941   18.3132   23.6428 H   0  0  0  0  0  0  0  0  0  0  0  0
  1  2  1  0  0  0  0
  1  3  2  0  0  0  0
  1  4  1  0  0  0  0
  4  5  1  0  0  0  0
  4  6  1  0  0  0  0
  4  7  1  0  0  0  0
  7  8  1  0  0  0  0
  7  9  1  0  0  0  0
  7 10  1  0  0  0  0
 10 11  1  0  0  0  0
 10 12  1  0  0  0  0
 10 13  1  0  0  0  0
 13 14  1  0  0  0  0
 13 15  1  0  0  0  0
 13 16  1  0  0  0  0
M  END
> <VConfSearch Rank>
418

> <Conf_Id>
39

> <Delta U+W>
1.129

> <U+W>
-55.775

> <U>
9.718

> <W>
-65.493

> <W(PB)>
-67.361

> <W(SA)>
1.869

> <Valence>
7.002

> <Coulomb>
2.402

> <VdW>
0.314

> <VdW6>
-5.861

> <VdW12>
6.175

> <Bond>
0.134

> <Angle>
2.734

> <Pdih>
4.133

> <Idih>
0.002

> <Tether>
0.000

$$$$
VeraChem MOL file


 16 15  0  0  0  0  0  0  0  0999 V2000     
   20.2114   20.5417   20.9472 C   0  0  0  0  0  0  0  0  0  0  0  0
   20.2797   20.1038   19.8156 O   0  5  0  0  0  0  0  0  0  0  0  0
   21.0200   21.3205   21.4127 O   0  0  0  0  0  0  0  0  0  0  0  0
   18.9981   20.1631   21.7947 C   0  0  0  0  0  0  0  0  0  0  0  0
   18.3335   19.5237   21.2009 H   0  0  0  0  0  0  0  0  0  0  0  0
   18.4506   21.0940   21.9833 H   0  0  0  0  0  0  0  0  0  0  0  0
   19.3234   19.4844   23.1550 C   0  0  0  0  0  0  0  0  0  0  0  0
   20.1413   20.0215   23.6553 H   0  0  0  0  0  0  0  0  0  0  0  0
   18.4462   19.5939   23.8068 H   0  0  0  0  0  0  0  0  0  0  0  0
   19.6569   17.9759   23.0621 C   0  0  0  0  0  0  0  0  0  0  0  0
   18.8379   17.4430   22.5596 H   0  0  0  0  0  0  0  0  0  0  0  0
   19.7104   17.5687   24.0812 H   0  0  0  0  0  0  0  0  0  0  0  0
   20.9893   17.6746   22.3448 C   0  0  0  0  0  0  0  0  0  0  0  0
   20.9302   17.9127   21.2758 H   0  0  0  0  0  0  0  0  0  0  0  0
   21.2399   16.6095   22.4321 H   0  0  0  0  0  0  0  0  0  0  0  0
   21.8125   18.2541   22.7827 H   0  0  0  0  0  0  0  0  0  0  0  0
  1  2  1  0  0  0  0
  1  3  2  0  0  0  0
  1  4  1  0  0  0  0
  4  5  1  0  0  0  0
  4  6  1  0  0  0  0
  4  7  1  0  0  0  0
  7  8  1  0  0  0  0
  7  9  1  0  0  0  0
  7 10  1  0  0  0  0
 10 11  1  0  0  0  0
 10 12  1  0  0  0  0
 10 13  1  0  0  0  0
 13 14  1  0  0  0  0
 13 15  1  0  0  0  0
 13 16  1  0  0  0  0
M  END
> <VConfSearch Rank>
419

> <Conf_Id>
47

> <Delta U+W>
2.301

> <U+W>
-54.603

> <U>
11.258

> <W>
-65.861

> <W(PB)>
-67.702

> <W(SA)>
1.841

> <Valence>
8.169

> <Coulomb>
2.735

> <VdW>
0.355

> <VdW6>
-6.245

> <VdW12>
6.600

> <Bond>
0.149

> <Angle>
3.168

> <Pdih>
4.840

> <Idih>
0.011

> <Tether>
0.000

$$$$
VeraChem MOL file


 16 15  0  0  0  0  0  0  0  0999 V2000     
   18.2537   20.2698   22.1618 C   0  0  0  0  0  0  0  0  0  0  0  0
   18.2686   20.8659   21.1027 O   0  5  0  0  0  0  0  0  0  0  0  0
   18.0276   20.8071   23.2281 O   0  0  0  0  0  0  0  0  0  0  0  0
   18.4391   18.7536   22.1433 C   0  0  0  0  0  0  0  0  0  0  0  0
   17.6083   18.3481   21.5540 H   0  0  0  0  0  0  0  0  0  0  0  0
   18.3184   18.3669   23.1625 H   0  0  0  0  0  0  0  0  0  0  0  0
   19.7800   18.2556   21.5343 C   0  0  0  0  0  0  0  0  0  0  0  0
   19.6505   17.2043   21.2436 H   0  0  0  0  0  0  0  0  0  0  0  0
   19.9955   18.8022   20.6057 H   0  0  0  0  0  0  0  0  0  0  0  0
   20.9940   18.3344   22.4912 C   0  0  0  0  0  0  0  0  0  0  0  0
   21.8408   17.8153   22.0213 H   0  0  0  0  0  0  0  0  0  0  0  0
   20.7739   17.7884   23.4189 H   0  0  0  0  0  0  0  0  0  0  0  0
   21.4302   19.7755   22.8280 C   0  0  0  0  0  0  0  0  0  0  0  0
   22.3723   19.7696   23.3913 H   0  0  0  0  0  0  0  0  0  0  0  0
   20.6806   20.2858   23.4450 H   0  0  0  0  0  0  0  0  0  0  0  0
   21.5845   20.3644   21.9144 H   0  0  0  0  0  0  0  0  0  0  0  0
  1  2  1  0  0  0  0
  1  3  2  0  0  0  0
  1  4  1  0  0  0  0
  4  5  1  0  0  0  0
  4  6  1  0  0  0  0
  4  7  1  0  0  0  0
  7  8  1  0  0  0  0
  7  9  1  0  0  0  0
  7 10  1  0  0  0  0
 10 11  1  0  0  0  0
 10 12  1  0  0  0  0
 10 13  1  0  0  0  0
 13 14  1  0  0  0  0
 13 15  1  0  0  0  0
 13 16  1  0  0  0  0
M  END
> <VConfSearch Rank>
420

> <Conf_Id>
45

> <Delta U+W>
2.303

> <U+W>
-54.601

> <U>
11.258

> <W>
-65.860

> <W(PB)>
-67.709

> <W(SA)>
1.849

> <Valence>
8.169

> <Coulomb>
2.735

> <VdW>
0.355

> <VdW6>
-6.245

> <VdW12>
6.600

> <Bond>
0.149

> <Angle>
3.168

> <Pdih>
4.840

> <Idih>
0.011

> <Tether>
0.000

$$$$
VeraChem MOL file


 16 15  0  0  0  0  0  0  0  0999 V2000     
   20.9616   17.2883   20.1048 C   0  0  0  0  0  0  0  0  0  0  0  0
   21.2853   16.4751   20.9484 O   0  5  0  0  0  0  0  0  0  0  0  0
   21.1210   17.1069   18.9144 O   0  0  0  0  0  0  0  0  0  0  0  0
   20.3220   18.6112   20.5300 C   0  0  0  0  0  0  0  0  0  0  0  0
   19.3486   18.6796   20.0301 H   0  0  0  0  0  0  0  0  0  0  0  0
   20.9454   19.4196   20.1301 H   0  0  0  0  0  0  0  0  0  0  0  0
   20.1393   18.7987   22.0597 C   0  0  0  0  0  0  0  0  0  0  0  0
   19.5185   17.9830   22.4555 H   0  0  0  0  0  0  0  0  0  0  0  0
   21.1170   18.7237   22.5556 H   0  0  0  0  0  0  0  0  0  0  0  0
   19.4889   20.1567   22.3974 C   0  0  0  0  0  0  0  0  0  0  0  0
   18.5102   20.2322   21.9034 H   0  0  0  0  0  0  0  0  0  0  0  0
   20.1096   20.9734   22.0036 H   0  0  0  0  0  0  0  0  0  0  0  0
   19.3101   20.3370   23.9178 C   0  0  0  0  0  0  0  0  0  0  0  0
   18.6668   19.5504   24.3336 H   0  0  0  0  0  0  0  0  0  0  0  0
   18.8466   21.3069   24.1405 H   0  0  0  0  0  0  0  0  0  0  0  0
   20.2780   20.2971   24.4345 H   0  0  0  0  0  0  0  0  0  0  0  0
  1  2  1  0  0  0  0
  1  3  2  0  0  0  0
  1  4  1  0  0  0  0
  4  5  1  0  0  0  0
  4  6  1  0  0  0  0
  4  7  1  0  0  0  0
  7  8  1  0  0  0  0
  7  9  1  0  0  0  0
  7 10  1  0  0  0  0
 10 11  1  0  0  0  0
 10 12  1  0  0  0  0
 10 13  1  0  0  0  0
 13 14  1  0  0  0  0
 13 15  1  0  0  0  0
 13 16  1  0  0  0  0
M  END
> <VConfSearch Rank>
421

> <Conf_Id>
0

> <Delta U+W>
0.000

> <U+W>
-56.904

> <U>
7.329

> <W>
-64.233

> <W(PB)>
-66.148

> <W(SA)>
1.915

> <Valence>
6.755

> <Coulomb>
-0.421

> <VdW>
0.995

> <VdW6>
-4.495

> <VdW12>
5.490

> <Bond>
0.106

> <Angle>
2.715

> <Pdih>
3.934

> <Idih>
0.000

> <Tether>
0.000

$$$$
VeraChem MOL file


 16 15  0  0  0  0  0  0  0  0999 V2000     
   18.1425   17.4240   20.9459 C   0  0  0  0  0  0  0  0  0  0  0  0
   17.8529   16.4988   21.6779 O   0  5  0  0  0  0  0  0  0  0  0  0
   17.3630   17.9325   20.1651 O   0  0  0  0  0  0  0  0  0  0  0  0
   19.5562   17.9897   21.0242 C   0  0  0  0  0  0  0  0  0  0  0  0
   19.8349   18.3505   20.0267 H   0  0  0  0  0  0  0  0  0  0  0  0
   20.2388   17.1684   21.2740 H   0  0  0  0  0  0  0  0  0  0  0  0
   19.6920   19.1311   22.0618 C   0  0  0  0  0  0  0  0  0  0  0  0
   18.9938   19.9400   21.8052 H   0  0  0  0  0  0  0  0  0  0  0  0
   19.3977   18.7580   23.0526 H   0  0  0  0  0  0  0  0  0  0  0  0
   21.1308   19.6852   22.1210 C   0  0  0  0  0  0  0  0  0  0  0  0
   21.4252   20.0590   21.1305 H   0  0  0  0  0  0  0  0  0  0  0  0
   21.8292   18.8767   22.3782 H   0  0  0  0  0  0  0  0  0  0  0  0
   21.2585   20.8206   23.1557 C   0  0  0  0  0  0  0  0  0  0  0  0
   20.9997   20.4659   24.1620 H   0  0  0  0  0  0  0  0  0  0  0  0
   20.5928   21.6570   22.9051 H   0  0  0  0  0  0  0  0  0  0  0  0
   22.2870   21.2031   23.1851 H   0  0  0  0  0  0  0  0  0  0  0  0
  1  2  1  0  0  0  0
  1  3  2  0  0  0  0
  1  4  1  0  0  0  0
  4  5  1  0  0  0  0
  4  6  1  0  0  0  0
  4  7  1  0  0  0  0
  7  8  1  0  0  0  0
  7  9  1  0  0  0  0
  7 10  1  0  0  0  0
 10 11  1  0  0  0  0
 10 12  1  0  0  0  0
 10 13  1  0  0  0  0
 13 14  1  0  0  0  0
 13 15  1  0  0  0  0
 13 16  1  0  0  0  0
M  END
> <VConfSearch Rank>
422

> <Conf_Id>
22

> <Delta U+W>
-1.185

> <U+W>
-58.089

> <U>
6.298

> <W>
-64.387

> <W(PB)>
-66.329

> <W(SA)>
1.942

> <Valence>
6.246

> <Coulomb>
-0.408

> <VdW>
0.460

> <VdW6>
-4.207

> <VdW12>
4.667

> <Bond>
0.072

> <Angle>
2.246

> <Pdih>
3.928

> <Idih>
0.001

> <Tether>
0.000

$$$$
VeraChem MOL file


 16 15  0  0  0  0  0  0  0  0999 V2000     
   21.6376   18.7238   20.0597 C   0  0  0  0  0  0  0  0  0  0  0  0
   21.4033   19.0495   18.9129 O   0  5  0  0  0  0  0  0  0  0  0  0
   22.4547   17.8778   20.3639 O   0  0  0  0  0  0  0  0  0  0  0  0
   20.8488   19.3993   21.1759 C   0  0  0  0  0  0  0  0  0  0  0  0
   20.6248   20.4258   20.8616 H   0  0  0  0  0  0  0  0  0  0  0  0
   21.5006   19.4632   22.0546 H   0  0  0  0  0  0  0  0  0  0  0  0
   19.5370   18.6490   21.5240 C   0  0  0  0  0  0  0  0  0  0  0  0
   18.9464   18.5253   20.6056 H   0  0  0  0  0  0  0  0  0  0  0  0
   19.7765   17.6367   21.8780 H   0  0  0  0  0  0  0  0  0  0  0  0
   18.6713   19.3789   22.5767 C   0  0  0  0  0  0  0  0  0  0  0  0
   17.7183   18.8425   22.6837 H   0  0  0  0  0  0  0  0  0  0  0  0
   18.4217   20.3870   22.2178 H   0  0  0  0  0  0  0  0  0  0  0  0
   19.3474   19.4734   23.9612 C   0  0  0  0  0  0  0  0  0  0  0  0
   20.2481   20.0989   23.9256 H   0  0  0  0  0  0  0  0  0  0  0  0
   19.6324   18.4787   24.3280 H   0  0  0  0  0  0  0  0  0  0  0  0
   18.6618   19.9198   24.6932 H   0  0  0  0  0  0  0  0  0  0  0  0
  1  2  1  0  0  0  0
  1  3  2  0  0  0  0
  1  4  1  0  0  0  0
  4  5  1  0  0  0  0
  4  6  1  0  0  0  0
  4  7  1  0  0  0  0
  7  8  1  0  0  0  0
  7  9  1  0  0  0  0
  7 10  1  0  0  0  0
 10 11  1  0  0  0  0
 10 12  1  0  0  0  0
 10 13  1  0  0  0  0
 13 14  1  0  0  0  0
 13 15  1  0  0  0  0
 13 16  1  0  0  0  0
M  END
> <VConfSearch Rank>
423

> <Conf_Id>
36

> <Delta U+W>
-0.427

> <U+W>
-57.331

> <U>
7.263

> <W>
-64.594

> <W(PB)>
-66.513

> <W(SA)>
1.920

> <Valence>
6.734

> <Coulomb>
-0.068

> <VdW>
0.598

> <VdW6>
-4.819

> <VdW12>
5.417

> <Bond>
0.107

> <Angle>
2.469

> <Pdih>
4.157

> <Idih>
0.001

> <Tether>
0.000

$$$$
VeraChem MOL file


 16 15  0  0  0  0  0  0  0  0999 V2000     
   19.4094   17.1692   20.4078 C   0  0  0  0  0  0  0  0  0  0  0  0
   18.2461   16.8355   20.5133 O   0  5  0  0  0  0  0  0  0  0  0  0
   20.2702   16.4606   19.9253 O   0  0  0  0  0  0  0  0  0  0  0  0
   19.8155   18.5439   20.9273 C   0  0  0  0  0  0  0  0  0  0  0  0
   18.9668   19.2214   20.7795 H   0  0  0  0  0  0  0  0  0  0  0  0
   20.6391   18.9136   20.3047 H   0  0  0  0  0  0  0  0  0  0  0  0
   20.2415   18.5214   22.4183 C   0  0  0  0  0  0  0  0  0  0  0  0
   19.3955   18.1904   23.0363 H   0  0  0  0  0  0  0  0  0  0  0  0
   21.0334   17.7707   22.5480 H   0  0  0  0  0  0  0  0  0  0  0  0
   20.7606   19.8846   22.9307 C   0  0  0  0  0  0  0  0  0  0  0  0
   21.6142   20.2102   22.3201 H   0  0  0  0  0  0  0  0  0  0  0  0
   21.1413   19.7558   23.9533 H   0  0  0  0  0  0  0  0  0  0  0  0
   19.6777   20.9847   22.9376 C   0  0  0  0  0  0  0  0  0  0  0  0
   19.3472   21.2283   21.9201 H   0  0  0  0  0  0  0  0  0  0  0  0
   20.0693   21.9055   23.3890 H   0  0  0  0  0  0  0  0  0  0  0  0
   18.8013   20.6696   23.5189 H   0  0  0  0  0  0  0  0  0  0  0  0
  1  2  1  0  0  0  0
  1  3  2  0  0  0  0
  1  4  1  0  0  0  0
  4  5  1  0  0  0  0
  4  6  1  0  0  0  0
  4  7  1  0  0  0  0
  7  8  1  0  0  0  0
  7  9  1  0  0  0  0
  7 10  1  0  0  0  0
 10 11  1  0  0  0  0
 10 12  1  0  0  0  0
 10 13  1  0  0  0  0
 13 14  1  0  0  0  0
 13 15  1  0  0  0  0
 13 16  1  0  0  0  0
M  END
> <VConfSearch Rank>
424

> <Conf_Id>
17

> <Delta U+W>
-0.432

> <U+W>
-57.336

> <U>
7.263

> <W>
-64.599

> <W(PB)>
-66.503

> <W(SA)>
1.904

> <Valence>
6.734

> <Coulomb>
-0.068

> <VdW>
0.598

> <VdW6>
-4.819

> <VdW12>
5.417

> <Bond>
0.107

> <Angle>
2.469

> <Pdih>
4.157

> <Idih>
0.001

> <Tether>
0.000

$$$$
VeraChem MOL file


 16 15  0  0  0  0  0  0  0  0999 V2000     
   20.5171   17.2357   20.7304 C   0  0  0  0  0  0  0  0  0  0  0  0
   19.7843   17.1752   19.7630 O   0  5  0  0  0  0  0  0  0  0  0  0
   21.7221   17.0927   20.6695 O   0  0  0  0  0  0  0  0  0  0  0  0
   19.8851   17.4807   22.0979 C   0  0  0  0  0  0  0  0  0  0  0  0
   20.5942   17.1661   22.8733 H   0  0  0  0  0  0  0  0  0  0  0  0
   19.0131   16.8210   22.1794 H   0  0  0  0  0  0  0  0  0  0  0  0
   19.4469   18.9489   22.3378 C   0  0  0  0  0  0  0  0  0  0  0  0
   18.7597   19.2591   21.5383 H   0  0  0  0  0  0  0  0  0  0  0  0
   18.8824   19.0032   23.2786 H   0  0  0  0  0  0  0  0  0  0  0  0
   20.6436   19.9223   22.4057 C   0  0  0  0  0  0  0  0  0  0  0  0
   21.2044   19.8916   21.4611 H   0  0  0  0  0  0  0  0  0  0  0  0
   21.3359   19.6037   23.1973 H   0  0  0  0  0  0  0  0  0  0  0  0
   20.1829   21.3679   22.6784 C   0  0  0  0  0  0  0  0  0  0  0  0
   19.5128   21.7225   21.8843 H   0  0  0  0  0  0  0  0  0  0  0  0
   21.0448   22.0464   22.7227 H   0  0  0  0  0  0  0  0  0  0  0  0
   19.6481   21.4363   23.6348 H   0  0  0  0  0  0  0  0  0  0  0  0
  1  2  1  0  0  0  0
  1  3  2  0  0  0  0
  1  4  1  0  0  0  0
  4  5  1  0  0  0  0
  4  6  1  0  0  0  0
  4  7  1  0  0  0  0
  7  8  1  0  0  0  0
  7  9  1  0  0  0  0
  7 10  1  0  0  0  0
 10 11  1  0  0  0  0
 10 12  1  0  0  0  0
 10 13  1  0  0  0  0
 13 14  1  0  0  0  0
 13 15  1  0  0  0  0
 13 16  1  0  0  0  0
M  END
> <VConfSearch Rank>
425

> <Conf_Id>
19

> <Delta U+W>
0.048

> <U+W>
-56.856

> <U>
8.276

> <W>
-65.132

> <W(PB)>
-67.031

> <W(SA)>
1.899

> <Valence>
6.513

> <Coulomb>
1.428

> <VdW>
0.335

> <VdW6>
-5.021

> <VdW12>
5.356

> <Bond>
0.092

> <Angle>
2.417

> <Pdih>
4.003

> <Idih>
0.001

> <Tether>
0.000

$$$$
VeraChem MOL file


 16 15  0  0  0  0  0  0  0  0999 V2000     
   17.6937   20.0415   22.4343 C   0  0  0  0  0  0  0  0  0  0  0  0
   17.1271   20.3539   21.4058 O   0  5  0  0  0  0  0  0  0  0  0  0
   17.7669   20.7661   23.4069 O   0  0  0  0  0  0  0  0  0  0  0  0
   18.3265   18.6550   22.5149 C   0  0  0  0  0  0  0  0  0  0  0  0
   17.5994   17.9386   22.1147 H   0  0  0  0  0  0  0  0  0  0  0  0
   18.4760   18.3987   23.5709 H   0  0  0  0  0  0  0  0  0  0  0  0
   19.6626   18.5239   21.7385 C   0  0  0  0  0  0  0  0  0  0  0  0
   19.9705   17.4695   21.7346 H   0  0  0  0  0  0  0  0  0  0  0  0
   19.5039   18.8109   20.6897 H   0  0  0  0  0  0  0  0  0  0  0  0
   20.7916   19.3813   22.3503 C   0  0  0  0  0  0  0  0  0  0  0  0
   20.9407   19.1017   23.4024 H   0  0  0  0  0  0  0  0  0  0  0  0
   20.5028   20.4416   22.3407 H   0  0  0  0  0  0  0  0  0  0  0  0
   22.1158   19.2066   21.5805 C   0  0  0  0  0  0  0  0  0  0  0  0
   22.4481   18.1605   21.6024 H   0  0  0  0  0  0  0  0  0  0  0  0
   22.9068   19.8229   22.0273 H   0  0  0  0  0  0  0  0  0  0  0  0
   22.0025   19.5089   20.5311 H   0  0  0  0  0  0  0  0  0  0  0  0
  1  2  1  0  0  0  0
  1  3  2  0  0  0  0
  1  4  1  0  0  0  0
  4  5  1  0  0  0  0
  4  6  1  0  0  0  0
  4  7  1  0  0  0  0
  7  8  1  0  0  0  0
  7  9  1  0  0  0  0
  7 10  1  0  0  0  0
 10 11  1  0  0  0  0
 10 12  1  0  0  0  0
 10 13  1  0  0  0  0
 13 14  1  0  0  0  0
 13 15  1  0  0  0  0
 13 16  1  0  0  0  0
M  END
> <VConfSearch Rank>
426

> <Conf_Id>
20

> <Delta U+W>
-0.010

> <U+W>
-56.914

> <U>
8.277

> <W>
-65.191

> <W(PB)>
-67.081

> <W(SA)>
1.890

> <Valence>
6.513

> <Coulomb>
1.429

> <VdW>
0.335

> <VdW6>
-5.021

> <VdW12>
5.356

> <Bond>
0.092

> <Angle>
2.417

> <Pdih>
4.002

> <Idih>
0.001

> <Tether>
0.000

$$$$
VeraChem MOL file


 16 15  0  0  0  0  0  0  0  0999 V2000     
   18.1797   19.9579   21.1004 C   0  0  0  0  0  0  0  0  0  0  0  0
   17.9976   19.7693   19.9138 O   0  5  0  0  0  0  0  0  0  0  0  0
   18.0746   21.0464   21.6299 O   0  0  0  0  0  0  0  0  0  0  0  0
   18.5252   18.7560   21.9754 C   0  0  0  0  0  0  0  0  0  0  0  0
   17.7861   17.9749   21.7622 H   0  0  0  0  0  0  0  0  0  0  0  0
   18.3874   19.0346   23.0264 H   0  0  0  0  0  0  0  0  0  0  0  0
   19.9522   18.1886   21.7421 C   0  0  0  0  0  0  0  0  0  0  0  0
   20.0840   17.2839   22.3507 H   0  0  0  0  0  0  0  0  0  0  0  0
   20.0381   17.8700   20.6940 H   0  0  0  0  0  0  0  0  0  0  0  0
   21.0938   19.1845   22.0568 C   0  0  0  0  0  0  0  0  0  0  0  0
   20.9931   20.0804   21.4285 H   0  0  0  0  0  0  0  0  0  0  0  0
   22.0515   18.7208   21.7827 H   0  0  0  0  0  0  0  0  0  0  0  0
   21.1482   19.5982   23.5428 C   0  0  0  0  0  0  0  0  0  0  0  0
   20.2595   20.1756   23.8279 H   0  0  0  0  0  0  0  0  0  0  0  0
   22.0274   20.2270   23.7339 H   0  0  0  0  0  0  0  0  0  0  0  0
   21.2132   18.7176   24.1950 H   0  0  0  0  0  0  0  0  0  0  0  0
  1  2  1  0  0  0  0
  1  3  2  0  0  0  0
  1  4  1  0  0  0  0
  4  5  1  0  0  0  0
  4  6  1  0  0  0  0
  4  7  1  0  0  0  0
  7  8  1  0  0  0  0
  7  9  1  0  0  0  0
  7 10  1  0  0  0  0
 10 11  1  0  0  0  0
 10 12  1  0  0  0  0
 10 13  1  0  0  0  0
 13 14  1  0  0  0  0
 13 15  1  0  0  0  0
 13 16  1  0  0  0  0
M  END
> <VConfSearch Rank>
427

> <Conf_Id>
37

> <Delta U+W>
1.063

> <U+W>
-55.841

> <U>
9.719

> <W>
-65.560

> <W(PB)>
-67.414

> <W(SA)>
1.854

> <Valence>
7.002

> <Coulomb>
2.402

> <VdW>
0.314

> <VdW6>
-5.861

> <VdW12>
6.175

> <Bond>
0.134

> <Angle>
2.733

> <Pdih>
4.133

> <Idih>
0.002

> <Tether>
0.000

$$$$
VeraChem MOL file


 16 15  0  0  0  0  0  0  0  0999 V2000     
   20.2383   20.4176   20.4513 C   0  0  0  0  0  0  0  0  0  0  0  0
   19.9050   20.0628   19.3379 O   0  5  0  0  0  0  0  0  0  0  0  0
   19.9070   21.4776   20.9442 O   0  0  0  0  0  0  0  0  0  0  0  0
   21.1499   19.4962   21.2575 C   0  0  0  0  0  0  0  0  0  0  0  0
   21.5715   20.0634   22.0953 H   0  0  0  0  0  0  0  0  0  0  0  0
   21.9928   19.2253   20.6110 H   0  0  0  0  0  0  0  0  0  0  0  0
   20.4572   18.2022   21.7658 C   0  0  0  0  0  0  0  0  0  0  0  0
   20.0945   17.6325   20.8991 H   0  0  0  0  0  0  0  0  0  0  0  0
   21.2024   17.5661   22.2624 H   0  0  0  0  0  0  0  0  0  0  0  0
   19.2742   18.4494   22.7319 C   0  0  0  0  0  0  0  0  0  0  0  0
   18.8032   17.4848   22.9663 H   0  0  0  0  0  0  0  0  0  0  0  0
   18.5049   19.0562   22.2344 H   0  0  0  0  0  0  0  0  0  0  0  0
   19.6975   19.1304   24.0508 C   0  0  0  0  0  0  0  0  0  0  0  0
   20.4919   18.5614   24.5509 H   0  0  0  0  0  0  0  0  0  0  0  0
   18.8447   19.1977   24.7386 H   0  0  0  0  0  0  0  0  0  0  0  0
   20.0613   20.1505   23.8731 H   0  0  0  0  0  0  0  0  0  0  0  0
  1  2  1  0  0  0  0
  1  3  2  0  0  0  0
  1  4  1  0  0  0  0
  4  5  1  0  0  0  0
  4  6  1  0  0  0  0
  4  7  1  0  0  0  0
  7  8  1  0  0  0  0
  7  9  1  0  0  0  0
  7 10  1  0  0  0  0
 10 11  1  0  0  0  0
 10 12  1  0  0  0  0
 10 13  1  0  0  0  0
 13 14  1  0  0  0  0
 13 15  1  0  0  0  0
 13 16  1  0  0  0  0
M  END
> <VConfSearch Rank>
428

> <Conf_Id>
39

> <Delta U+W>
1.129

> <U+W>
-55.775

> <U>
9.718

> <W>
-65.493

> <W(PB)>
-67.361

> <W(SA)>
1.869

> <Valence>
7.002

> <Coulomb>
2.402

> <VdW>
0.314

> <VdW6>
-5.861

> <VdW12>
6.175

> <Bond>
0.134

> <Angle>
2.734

> <Pdih>
4.133

> <Idih>
0.002

> <Tether>
0.000

$$$$
VeraChem MOL file


 16 15  0  0  0  0  0  0  0  0999 V2000     
   19.0634   20.2098   20.8523 C   0  0  0  0  0  0  0  0  0  0  0  0
   19.1320   19.6726   19.7644 O   0  5  0  0  0  0  0  0  0  0  0  0
   19.3733   21.3689   21.0464 O   0  0  0  0  0  0  0  0  0  0  0  0
   18.4728   19.4127   22.0140 C   0  0  0  0  0  0  0  0  0  0  0  0
   18.1748   18.4213   21.6515 H   0  0  0  0  0  0  0  0  0  0  0  0
   17.5511   19.9294   22.3060 H   0  0  0  0  0  0  0  0  0  0  0  0
   19.3913   19.2757   23.2608 C   0  0  0  0  0  0  0  0  0  0  0  0
   19.8507   20.2459   23.4959 H   0  0  0  0  0  0  0  0  0  0  0  0
   18.7581   19.0240   24.1223 H   0  0  0  0  0  0  0  0  0  0  0  0
   20.4834   18.1853   23.1433 C   0  0  0  0  0  0  0  0  0  0  0  0
   20.0203   17.2175   22.9063 H   0  0  0  0  0  0  0  0  0  0  0  0
   20.9620   18.0659   24.1251 H   0  0  0  0  0  0  0  0  0  0  0  0
   21.5762   18.5064   22.1027 C   0  0  0  0  0  0  0  0  0  0  0  0
   21.1774   18.4734   21.0815 H   0  0  0  0  0  0  0  0  0  0  0  0
   22.3907   17.7730   22.1625 H   0  0  0  0  0  0  0  0  0  0  0  0
   22.0035   19.5030   22.2745 H   0  0  0  0  0  0  0  0  0  0  0  0
  1  2  1  0  0  0  0
  1  3  2  0  0  0  0
  1  4  1  0  0  0  0
  4  5  1  0  0  0  0
  4  6  1  0  0  0  0
  4  7  1  0  0  0  0
  7  8  1  0  0  0  0
  7  9  1  0  0  0  0
  7 10  1  0  0  0  0
 10 11  1  0  0  0  0
 10 12  1  0  0  0  0
 10 13  1  0  0  0  0
 13 14  1  0  0  0  0
 13 15  1  0  0  0  0
 13 16  1  0  0  0  0
M  END
> <VConfSearch Rank>
429

> <Conf_Id>
47

> <Delta U+W>
2.301

> <U+W>
-54.603

> <U>
11.258

> <W>
-65.861

> <W(PB)>
-67.702

> <W(SA)>
1.841

> <Valence>
8.169

> <Coulomb>
2.735

> <VdW>
0.355

> <VdW6>
-6.245

> <VdW12>
6.600

> <Bond>
0.149

> <Angle>
3.168

> <Pdih>
4.840

> <Idih>
0.011

> <Tether>
0.000

$$$$
VeraChem MOL file


 16 15  0  0  0  0  0  0  0  0999 V2000     
   21.6689   18.5435   22.9312 C   0  0  0  0  0  0  0  0  0  0  0  0
   21.9191   17.4429   22.4803 O   0  5  0  0  0  0  0  0  0  0  0  0
   21.8169   18.8361   24.1014 O   0  0  0  0  0  0  0  0  0  0  0  0
   21.2320   19.6415   21.9631 C   0  0  0  0  0  0  0  0  0  0  0  0
   22.0617   19.7818   21.2605 H   0  0  0  0  0  0  0  0  0  0  0  0
   21.1267   20.5832   22.5156 H   0  0  0  0  0  0  0  0  0  0  0  0
   19.9354   19.3415   21.1595 C   0  0  0  0  0  0  0  0  0  0  0  0
   19.9263   19.9930   20.2752 H   0  0  0  0  0  0  0  0  0  0  0  0
   19.9619   18.3118   20.7767 H   0  0  0  0  0  0  0  0  0  0  0  0
   18.6204   19.5851   21.9385 C   0  0  0  0  0  0  0  0  0  0  0  0
   17.7797   19.4991   21.2362 H   0  0  0  0  0  0  0  0  0  0  0  0
   18.5986   20.6148   22.3211 H   0  0  0  0  0  0  0  0  0  0  0  0
   18.3905   18.5952   23.0994 C   0  0  0  0  0  0  0  0  0  0  0  0
   17.3861   18.7260   23.5223 H   0  0  0  0  0  0  0  0  0  0  0  0
   19.1125   18.7550   23.9094 H   0  0  0  0  0  0  0  0  0  0  0  0
   18.4815   17.5565   22.7556 H   0  0  0  0  0  0  0  0  0  0  0  0
  1  2  1  0  0  0  0
  1  3  2  0  0  0  0
  1  4  1  0  0  0  0
  4  5  1  0  0  0  0
  4  6  1  0  0  0  0
  4  7  1  0  0  0  0
  7  8  1  0  0  0  0
  7  9  1  0  0  0  0
  7 10  1  0  0  0  0
 10 11  1  0  0  0  0
 10 12  1  0  0  0  0
 10 13  1  0  0  0  0
 13 14  1  0  0  0  0
 13 15  1  0  0  0  0
 13 16  1  0  0  0  0
M  END
> <VConfSearch Rank>
430

> <Conf_Id>
45

> <Delta U+W>
2.303

> <U+W>
-54.601

> <U>
11.258

> <W>
-65.860

> <W(PB)>
-67.709

> <W(SA)>
1.849

> <Valence>
8.169

> <Coulomb>
2.735

> <VdW>
0.355

> <VdW6>
-6.245

> <VdW12>
6.600

> <Bond>
0.149

> <Angle>
3.168

> <Pdih>
4.840

> <Idih>
0.011

> <Tether>
0.000

$$$$
VeraChem MOL file


 16 15  0  0  0  0  0  0  0  0999 V2000     
   18.7399   17.1440   23.3854 C   0  0  0  0  0  0  0  0  0  0  0  0
   18.7864   17.7545   24.4356 O   0  5  0  0  0  0  0  0  0  0  0  0
   18.2461   16.0390   23.2832 O   0  0  0  0  0  0  0  0  0  0  0  0
   19.3217   17.7689   22.1163 C   0  0  0  0  0  0  0  0  0  0  0  0
   18.5166   17.8105   21.3732 H   0  0  0  0  0  0  0  0  0  0  0  0
   20.0799   17.0780   21.7292 H   0  0  0  0  0  0  0  0  0  0  0  0
   19.9421   19.1801   22.2955 C   0  0  0  0  0  0  0  0  0  0  0  0
   19.1793   19.8665   22.6886 H   0  0  0  0  0  0  0  0  0  0  0  0
   20.7443   19.1332   23.0450 H   0  0  0  0  0  0  0  0  0  0  0  0
   20.5032   19.7327   20.9685 C   0  0  0  0  0  0  0  0  0  0  0  0
   19.7015   19.7817   20.2186 H   0  0  0  0  0  0  0  0  0  0  0  0
   21.2674   19.0480   20.5752 H   0  0  0  0  0  0  0  0  0  0  0  0
   21.1179   21.1342   21.1530 C   0  0  0  0  0  0  0  0  0  0  0  0
   20.3667   21.8478   21.5163 H   0  0  0  0  0  0  0  0  0  0  0  0
   21.5119   21.5123   20.2006 H   0  0  0  0  0  0  0  0  0  0  0  0
   21.9442   21.1086   21.8755 H   0  0  0  0  0  0  0  0  0  0  0  0
  1  2  1  0  0  0  0
  1  3  2  0  0  0  0
  1  4  1  0  0  0  0
  4  5  1  0  0  0  0
  4  6  1  0  0  0  0
  4  7  1  0  0  0  0
  7  8  1  0  0  0  0
  7  9  1  0  0  0  0
  7 10  1  0  0  0  0
 10 11  1  0  0  0  0
 10 12  1  0  0  0  0
 10 13  1  0  0  0  0
 13 14  1  0  0  0  0
 13 15  1  0  0  0  0
 13 16  1  0  0  0  0
M  END
> <VConfSearch Rank>
431

> <Conf_Id>
0

> <Delta U+W>
0.000

> <U+W>
-56.904

> <U>
7.329

> <W>
-64.233

> <W(PB)>
-66.148

> <W(SA)>
1.915

> <Valence>
6.755

> <Coulomb>
-0.421

> <VdW>
0.995

> <VdW6>
-4.495

> <VdW12>
5.490

> <Bond>
0.106

> <Angle>
2.715

> <Pdih>
3.934

> <Idih>
0.000

> <Tether>
0.000

$$$$
VeraChem MOL file


 16 15  0  0  0  0  0  0  0  0999 V2000     
   17.9853   18.7963   20.1670 C   0  0  0  0  0  0  0  0  0  0  0  0
   17.0190   19.5041   20.3703 O   0  5  0  0  0  0  0  0  0  0  0  0
   18.3229   18.4213   19.0620 O   0  0  0  0  0  0  0  0  0  0  0  0
   18.8308   18.3705   21.3622 C   0  0  0  0  0  0  0  0  0  0  0  0
   19.2429   17.3762   21.1514 H   0  0  0  0  0  0  0  0  0  0  0  0
   18.1680   18.2691   22.2300 H   0  0  0  0  0  0  0  0  0  0  0  0
   19.9740   19.3664   21.6771 C   0  0  0  0  0  0  0  0  0  0  0  0
   20.6216   19.4666   20.7949 H   0  0  0  0  0  0  0  0  0  0  0  0
   19.5466   20.3595   21.8736 H   0  0  0  0  0  0  0  0  0  0  0  0
   20.8134   18.9124   22.8895 C   0  0  0  0  0  0  0  0  0  0  0  0
   21.2416   17.9196   22.6931 H   0  0  0  0  0  0  0  0  0  0  0  0
   20.1663   18.8127   23.7721 H   0  0  0  0  0  0  0  0  0  0  0  0
   21.9491   19.9082   23.1971 C   0  0  0  0  0  0  0  0  0  0  0  0
   21.5470   20.9034   23.4282 H   0  0  0  0  0  0  0  0  0  0  0  0
   22.6302   20.0037   22.3413 H   0  0  0  0  0  0  0  0  0  0  0  0
   22.5359   19.5707   24.0613 H   0  0  0  0  0  0  0  0  0  0  0  0
  1  2  1  0  0  0  0
  1  3  2  0  0  0  0
  1  4  1  0  0  0  0
  4  5  1  0  0  0  0
  4  6  1  0  0  0  0
  4  7  1  0  0  0  0
  7  8  1  0  0  0  0
  7  9  1  0  0  0  0
  7 10  1  0  0  0  0
 10 11  1  0  0  0  0
 10 12  1  0  0  0  0
 10 13  1  0  0  0  0
 13 14  1  0  0  0  0
 13 15  1  0  0  0  0
 13 16  1  0  0  0  0
M  END
> <VConfSearch Rank>
432

> <Conf_Id>
22

> <Delta U+W>
-1.185

> <U+W>
-58.089

> <U>
6.298

> <W>
-64.387

> <W(PB)>
-66.329

> <W(SA)>
1.942

> <Valence>
6.246

> <Coulomb>
-0.408

> <VdW>
0.460

> <VdW6>
-4.207

> <VdW12>
4.667

> <Bond>
0.072

> <Angle>
2.246

> <Pdih>
3.928

> <Idih>
0.001

> <Tether>
0.000

$$$$
VeraChem MOL file


 16 15  0  0  0  0  0  0  0  0999 V2000     
   18.5862   20.8810   23.3261 C   0  0  0  0  0  0  0  0  0  0  0  0
   17.9762   20.5887   24.3353 O   0  5  0  0  0  0  0  0  0  0  0  0
   18.3363   21.8588   22.6499 O   0  0  0  0  0  0  0  0  0  0  0  0
   19.7132   19.9594   22.8731 C   0  0  0  0  0  0  0  0  0  0  0  0
   20.1754   19.5223   23.7663 H   0  0  0  0  0  0  0  0  0  0  0  0
   20.4739   20.5775   22.3828 H   0  0  0  0  0  0  0  0  0  0  0  0
   19.2257   18.8372   21.9203 C   0  0  0  0  0  0  0  0  0  0  0  0
   18.4053   18.2921   22.4072 H   0  0  0  0  0  0  0  0  0  0  0  0
   18.8036   19.2864   21.0107 H   0  0  0  0  0  0  0  0  0  0  0  0
   20.3343   17.8292   21.5388 C   0  0  0  0  0  0  0  0  0  0  0  0
   19.8844   17.0129   20.9569 H   0  0  0  0  0  0  0  0  0  0  0  0
   20.7485   17.3713   22.4476 H   0  0  0  0  0  0  0  0  0  0  0  0
   21.4733   18.4616   20.7107 C   0  0  0  0  0  0  0  0  0  0  0  0
   22.0270   19.2074   21.2946 H   0  0  0  0  0  0  0  0  0  0  0  0
   21.0794   18.9513   19.8105 H   0  0  0  0  0  0  0  0  0  0  0  0
   22.1882   17.6923   20.3914 H   0  0  0  0  0  0  0  0  0  0  0  0
  1  2  1  0  0  0  0
  1  3  2  0  0  0  0
  1  4  1  0  0  0  0
  4  5  1  0  0  0  0
  4  6  1  0  0  0  0
  4  7  1  0  0  0  0
  7  8  1  0  0  0  0
  7  9  1  0  0  0  0
  7 10  1  0  0  0  0
 10 11  1  0  0  0  0
 10 12  1  0  0  0  0
 10 13  1  0  0  0  0
 13 14  1  0  0  0  0
 13 15  1  0  0  0  0
 13 16  1  0  0  0  0
M  END
> <VConfSearch Rank>
433

> <Conf_Id>
36

> <Delta U+W>
-0.427

> <U+W>
-57.331

> <U>
7.263

> <W>
-64.594

> <W(PB)>
-66.513

> <W(SA)>
1.920

> <Valence>
6.734

> <Coulomb>
-0.068

> <VdW>
0.598

> <VdW6>
-4.819

> <VdW12>
5.417

> <Bond>
0.107

> <Angle>
2.469

> <Pdih>
4.157

> <Idih>
0.001

> <Tether>
0.000

$$$$
VeraChem MOL file


 16 15  0  0  0  0  0  0  0  0999 V2000     
   22.4848   18.5962   21.7679 C   0  0  0  0  0  0  0  0  0  0  0  0
   23.0618   18.7484   22.8261 O   0  5  0  0  0  0  0  0  0  0  0  0
   23.0507   18.5616   20.6934 O   0  0  0  0  0  0  0  0  0  0  0  0
   20.9662   18.4615   21.7871 C   0  0  0  0  0  0  0  0  0  0  0  0
   20.6874   17.9528   22.7169 H   0  0  0  0  0  0  0  0  0  0  0  0
   20.6719   17.8074   20.9576 H   0  0  0  0  0  0  0  0  0  0  0  0
   20.2401   19.8271   21.6741 C   0  0  0  0  0  0  0  0  0  0  0  0
   20.5095   20.4577   22.5327 H   0  0  0  0  0  0  0  0  0  0  0  0
   20.6059   20.3486   20.7787 H   0  0  0  0  0  0  0  0  0  0  0  0
   18.7020   19.7004   21.5814 C   0  0  0  0  0  0  0  0  0  0  0  0
   18.4321   19.0796   20.7160 H   0  0  0  0  0  0  0  0  0  0  0  0
   18.2763   20.6960   21.3945 H   0  0  0  0  0  0  0  0  0  0  0  0
   18.0613   19.1170   22.8589 C   0  0  0  0  0  0  0  0  0  0  0  0
   18.3715   18.0777   23.0243 H   0  0  0  0  0  0  0  0  0  0  0  0
   16.9666   19.1280   22.7784 H   0  0  0  0  0  0  0  0  0  0  0  0
   18.3410   19.7053   23.7426 H   0  0  0  0  0  0  0  0  0  0  0  0
  1  2  1  0  0  0  0
  1  3  2  0  0  0  0
  1  4  1  0  0  0  0
  4  5  1  0  0  0  0
  4  6  1  0  0  0  0
  4  7  1  0  0  0  0
  7  8  1  0  0  0  0
  7  9  1  0  0  0  0
  7 10  1  0  0  0  0
 10 11  1  0  0  0  0
 10 12  1  0  0  0  0
 10 13  1  0  0  0  0
 13 14  1  0  0  0  0
 13 15  1  0  0  0  0
 13 16  1  0  0  0  0
M  END
> <VConfSearch Rank>
434

> <Conf_Id>
17

> <Delta U+W>
-0.432

> <U+W>
-57.336

> <U>
7.263

> <W>
-64.599

> <W(PB)>
-66.503

> <W(SA)>
1.904

> <Valence>
6.734

> <Coulomb>
-0.068

> <VdW>
0.598

> <VdW6>
-4.819

> <VdW12>
5.417

> <Bond>
0.107

> <Angle>
2.469

> <Pdih>
4.157

> <Idih>
0.001

> <Tether>
0.000

$$$$
VeraChem MOL file


 16 15  0  0  0  0  0  0  0  0999 V2000     
   20.4447   17.3976   23.6686 C   0  0  0  0  0  0  0  0  0  0  0  0
   19.4818   17.2163   24.3872 O   0  5  0  0  0  0  0  0  0  0  0  0
   21.0249   16.5033   23.0856 O   0  0  0  0  0  0  0  0  0  0  0  0
   20.9664   18.8232   23.5103 C   0  0  0  0  0  0  0  0  0  0  0  0
   21.9988   18.7799   23.1423 H   0  0  0  0  0  0  0  0  0  0  0  0
   21.0050   19.2715   24.5102 H   0  0  0  0  0  0  0  0  0  0  0  0
   20.1031   19.7124   22.5781 C   0  0  0  0  0  0  0  0  0  0  0  0
   19.0665   19.7232   22.9427 H   0  0  0  0  0  0  0  0  0  0  0  0
   20.4686   20.7468   22.6334 H   0  0  0  0  0  0  0  0  0  0  0  0
   20.1357   19.2392   21.1087 C   0  0  0  0  0  0  0  0  0  0  0  0
   19.7527   18.2116   21.0383 H   0  0  0  0  0  0  0  0  0  0  0  0
   21.1739   19.2170   20.7494 H   0  0  0  0  0  0  0  0  0  0  0  0
   19.2977   20.1591   20.1988 C   0  0  0  0  0  0  0  0  0  0  0  0
   18.2473   20.1753   20.5178 H   0  0  0  0  0  0  0  0  0  0  0  0
   19.3308   19.8086   19.1590 H   0  0  0  0  0  0  0  0  0  0  0  0
   19.6792   21.1883   20.2219 H   0  0  0  0  0  0  0  0  0  0  0  0
  1  2  1  0  0  0  0
  1  3  2  0  0  0  0
  1  4  1  0  0  0  0
  4  5  1  0  0  0  0
  4  6  1  0  0  0  0
  4  7  1  0  0  0  0
  7  8  1  0  0  0  0
  7  9  1  0  0  0  0
  7 10  1  0  0  0  0
 10 11  1  0  0  0  0
 10 12  1  0  0  0  0
 10 13  1  0  0  0  0
 13 14  1  0  0  0  0
 13 15  1  0  0  0  0
 13 16  1  0  0  0  0
M  END
> <VConfSearch Rank>
435

> <Conf_Id>
19

> <Delta U+W>
0.048

> <U+W>
-56.856

> <U>
8.276

> <W>
-65.132

> <W(PB)>
-67.031

> <W(SA)>
1.899

> <Valence>
6.513

> <Coulomb>
1.428

> <VdW>
0.335

> <VdW6>
-5.021

> <VdW12>
5.356

> <Bond>
0.092

> <Angle>
2.417

> <Pdih>
4.003

> <Idih>
0.001

> <Tether>
0.000

$$$$
VeraChem MOL file


 16 15  0  0  0  0  0  0  0  0999 V2000     
   18.4178   20.7993   21.1793 C   0  0  0  0  0  0  0  0  0  0  0  0
   17.5095   21.1134   21.9228 O   0  5  0  0  0  0  0  0  0  0  0  0
   18.2576   20.5049   20.0114 O   0  0  0  0  0  0  0  0  0  0  0  0
   19.8379   20.7978   21.7384 C   0  0  0  0  0  0  0  0  0  0  0  0
   19.9663   21.7243   22.3106 H   0  0  0  0  0  0  0  0  0  0  0  0
   20.5446   20.8421   20.9007 H   0  0  0  0  0  0  0  0  0  0  0  0
   20.1590   19.5814   22.6452 C   0  0  0  0  0  0  0  0  0  0  0  0
   21.1425   19.7332   23.1102 H   0  0  0  0  0  0  0  0  0  0  0  0
   19.4265   19.5334   23.4630 H   0  0  0  0  0  0  0  0  0  0  0  0
   20.1640   18.2467   21.8688 C   0  0  0  0  0  0  0  0  0  0  0  0
   20.8879   18.3006   21.0439 H   0  0  0  0  0  0  0  0  0  0  0  0
   19.1778   18.0741   21.4158 H   0  0  0  0  0  0  0  0  0  0  0  0
   20.5187   17.0595   22.7858 C   0  0  0  0  0  0  0  0  0  0  0  0
   21.5159   17.1876   23.2269 H   0  0  0  0  0  0  0  0  0  0  0  0
   20.5170   16.1193   22.2191 H   0  0  0  0  0  0  0  0  0  0  0  0
   19.7917   16.9640   23.6030 H   0  0  0  0  0  0  0  0  0  0  0  0
  1  2  1  0  0  0  0
  1  3  2  0  0  0  0
  1  4  1  0  0  0  0
  4  5  1  0  0  0  0
  4  6  1  0  0  0  0
  4  7  1  0  0  0  0
  7  8  1  0  0  0  0
  7  9  1  0  0  0  0
  7 10  1  0  0  0  0
 10 11  1  0  0  0  0
 10 12  1  0  0  0  0
 10 13  1  0  0  0  0
 13 14  1  0  0  0  0
 13 15  1  0  0  0  0
 13 16  1  0  0  0  0
M  END
> <VConfSearch Rank>
436

> <Conf_Id>
20

> <Delta U+W>
-0.010

> <U+W>
-56.914

> <U>
8.277

> <W>
-65.191

> <W(PB)>
-67.081

> <W(SA)>
1.890

> <Valence>
6.513

> <Coulomb>
1.429

> <VdW>
0.335

> <VdW6>
-5.021

> <VdW12>
5.356

> <Bond>
0.092

> <Angle>
2.417

> <Pdih>
4.002

> <Idih>
0.001

> <Tether>
0.000

$$$$
VeraChem MOL file


 16 15  0  0  0  0  0  0  0  0999 V2000     
   21.7235   18.1632   21.7721 C   0  0  0  0  0  0  0  0  0  0  0  0
   22.1470   17.2488   22.4514 O   0  5  0  0  0  0  0  0  0  0  0  0
   22.4055   19.1019   21.4115 O   0  0  0  0  0  0  0  0  0  0  0  0
   20.2663   18.1098   21.3212 C   0  0  0  0  0  0  0  0  0  0  0  0
   20.0978   17.1199   20.8813 H   0  0  0  0  0  0  0  0  0  0  0  0
   20.1208   18.8367   20.5140 H   0  0  0  0  0  0  0  0  0  0  0  0
   19.2386   18.3454   22.4619 C   0  0  0  0  0  0  0  0  0  0  0  0
   18.2233   18.2101   22.0654 H   0  0  0  0  0  0  0  0  0  0  0  0
   19.3765   17.5688   23.2269 H   0  0  0  0  0  0  0  0  0  0  0  0
   19.3409   19.7344   23.1357 C   0  0  0  0  0  0  0  0  0  0  0  0
   20.3426   19.8684   23.5673 H   0  0  0  0  0  0  0  0  0  0  0  0
   18.6346   19.7712   23.9764 H   0  0  0  0  0  0  0  0  0  0  0  0
   19.0317   20.9016   22.1741 C   0  0  0  0  0  0  0  0  0  0  0  0
   19.7892   20.9774   21.3836 H   0  0  0  0  0  0  0  0  0  0  0  0
   19.0238   21.8549   22.7182 H   0  0  0  0  0  0  0  0  0  0  0  0
   18.0493   20.7732   21.7015 H   0  0  0  0  0  0  0  0  0  0  0  0
  1  2  1  0  0  0  0
  1  3  2  0  0  0  0
  1  4  1  0  0  0  0
  4  5  1  0  0  0  0
  4  6  1  0  0  0  0
  4  7  1  0  0  0  0
  7  8  1  0  0  0  0
  7  9  1  0  0  0  0
  7 10  1  0  0  0  0
 10 11  1  0  0  0  0
 10 12  1  0  0  0  0
 10 13  1  0  0  0  0
 13 14  1  0  0  0  0
 13 15  1  0  0  0  0
 13 16  1  0  0  0  0
M  END
> <VConfSearch Rank>
437

> <Conf_Id>
37

> <Delta U+W>
1.063

> <U+W>
-55.841

> <U>
9.719

> <W>
-65.560

> <W(PB)>
-67.414

> <W(SA)>
1.854

> <Valence>
7.002

> <Coulomb>
2.402

> <VdW>
0.314

> <VdW6>
-5.861

> <VdW12>
6.175

> <Bond>
0.134

> <Angle>
2.733

> <Pdih>
4.133

> <Idih>
0.002

> <Tether>
0.000

$$$$
VeraChem MOL file


 16 15  0  0  0  0  0  0  0  0999 V2000     
   21.3914   18.6156   23.8387 C   0  0  0  0  0  0  0  0  0  0  0  0
   22.5379   19.0018   23.9539 O   0  5  0  0  0  0  0  0  0  0  0  0
   20.5810   18.6428   24.7435 O   0  0  0  0  0  0  0  0  0  0  0  0
   20.9594   18.0341   22.4952 C   0  0  0  0  0  0  0  0  0  0  0  0
   20.0159   17.4935   22.6328 H   0  0  0  0  0  0  0  0  0  0  0  0
   21.7071   17.2850   22.2093 H   0  0  0  0  0  0  0  0  0  0  0  0
   20.8273   19.0858   21.3599 C   0  0  0  0  0  0  0  0  0  0  0  0
   21.8027   19.5698   21.2122 H   0  0  0  0  0  0  0  0  0  0  0  0
   20.5931   18.5716   20.4181 H   0  0  0  0  0  0  0  0  0  0  0  0
   19.7625   20.1773   21.6223 C   0  0  0  0  0  0  0  0  0  0  0  0
   19.8042   20.9134   20.8077 H   0  0  0  0  0  0  0  0  0  0  0  0
   20.0051   20.7230   22.5448 H   0  0  0  0  0  0  0  0  0  0  0  0
   18.3271   19.6175   21.7147 C   0  0  0  0  0  0  0  0  0  0  0  0
   18.0720   19.0369   20.8187 H   0  0  0  0  0  0  0  0  0  0  0  0
   17.6014   20.4360   21.8059 H   0  0  0  0  0  0  0  0  0  0  0  0
   18.2082   18.9699   22.5927 H   0  0  0  0  0  0  0  0  0  0  0  0
  1  2  1  0  0  0  0
  1  3  2  0  0  0  0
  1  4  1  0  0  0  0
  4  5  1  0  0  0  0
  4  6  1  0  0  0  0
  4  7  1  0  0  0  0
  7  8  1  0  0  0  0
  7  9  1  0  0  0  0
  7 10  1  0  0  0  0
 10 11  1  0  0  0  0
 10 12  1  0  0  0  0
 10 13  1  0  0  0  0
 13 14  1  0  0  0  0
 13 15  1  0  0  0  0
 13 16  1  0  0  0  0
M  END
> <VConfSearch Rank>
438

> <Conf_Id>
39

> <Delta U+W>
1.129

> <U+W>
-55.775

> <U>
9.718

> <W>
-65.493

> <W(PB)>
-67.361

> <W(SA)>
1.869

> <Valence>
7.002

> <Coulomb>
2.402

> <VdW>
0.314

> <VdW6>
-5.861

> <VdW12>
6.175

> <Bond>
0.134

> <Angle>
2.734

> <Pdih>
4.133

> <Idih>
0.002

> <Tether>
0.000

$$$$
VeraChem MOL file


 16 15  0  0  0  0  0  0  0  0999 V2000     
   20.2279   20.5446   20.9544 C   0  0  0  0  0  0  0  0  0  0  0  0
   21.0356   20.2059   20.1119 O   0  5  0  0  0  0  0  0  0  0  0  0
   20.2906   21.5993   21.5550 O   0  0  0  0  0  0  0  0  0  0  0  0
   19.0241   19.6379   21.2048 C   0  0  0  0  0  0  0  0  0  0  0  0
   19.0807   18.7752   20.5299 H   0  0  0  0  0  0  0  0  0  0  0  0
   18.1385   20.2111   20.9069 H   0  0  0  0  0  0  0  0  0  0  0  0
   18.8458   19.1608   22.6737 C   0  0  0  0  0  0  0  0  0  0  0  0
   18.9947   20.0044   23.3621 H   0  0  0  0  0  0  0  0  0  0  0  0
   17.8018   18.8451   22.8032 H   0  0  0  0  0  0  0  0  0  0  0  0
   19.7517   17.9746   23.0832 C   0  0  0  0  0  0  0  0  0  0  0  0
   19.6014   17.1342   22.3915 H   0  0  0  0  0  0  0  0  0  0  0  0
   19.4331   17.6199   24.0732 H   0  0  0  0  0  0  0  0  0  0  0  0
   21.2517   18.3294   23.1507 C   0  0  0  0  0  0  0  0  0  0  0  0
   21.6595   18.5320   22.1528 H   0  0  0  0  0  0  0  0  0  0  0  0
   21.8244   17.4962   23.5781 H   0  0  0  0  0  0  0  0  0  0  0  0
   21.4197   19.2142   23.7785 H   0  0  0  0  0  0  0  0  0  0  0  0
  1  2  1  0  0  0  0
  1  3  2  0  0  0  0
  1  4  1  0  0  0  0
  4  5  1  0  0  0  0
  4  6  1  0  0  0  0
  4  7  1  0  0  0  0
  7  8  1  0  0  0  0
  7  9  1  0  0  0  0
  7 10  1  0  0  0  0
 10 11  1  0  0  0  0
 10 12  1  0  0  0  0
 10 13  1  0  0  0  0
 13 14  1  0  0  0  0
 13 15  1  0  0  0  0
 13 16  1  0  0  0  0
M  END
> <VConfSearch Rank>
439

> <Conf_Id>
47

> <Delta U+W>
2.301

> <U+W>
-54.603

> <U>
11.258

> <W>
-65.861

> <W(PB)>
-67.702

> <W(SA)>
1.841

> <Valence>
8.169

> <Coulomb>
2.735

> <VdW>
0.355

> <VdW6>
-6.245

> <VdW12>
6.600

> <Bond>
0.149

> <Angle>
3.168

> <Pdih>
4.840

> <Idih>
0.011

> <Tether>
0.000

$$$$
VeraChem MOL file


 16 15  0  0  0  0  0  0  0  0999 V2000     
   19.6745   21.0393   22.7449 C   0  0  0  0  0  0  0  0  0  0  0  0
   19.5895   21.1318   23.9538 O   0  5  0  0  0  0  0  0  0  0  0  0
   18.9241   21.6078   21.9765 O   0  0  0  0  0  0  0  0  0  0  0  0
   20.8378   20.2412   22.1588 C   0  0  0  0  0  0  0  0  0  0  0  0
   21.7545   20.7423   22.4910 H   0  0  0  0  0  0  0  0  0  0  0  0
   20.8133   20.3254   21.0655 H   0  0  0  0  0  0  0  0  0  0  0  0
   20.8980   18.7465   22.5819 C   0  0  0  0  0  0  0  0  0  0  0  0
   21.9231   18.3883   22.4162 H   0  0  0  0  0  0  0  0  0  0  0  0
   20.7163   18.6554   23.6618 H   0  0  0  0  0  0  0  0  0  0  0  0
   19.9405   17.8140   21.8015 C   0  0  0  0  0  0  0  0  0  0  0  0
   20.1781   16.7738   22.0640 H   0  0  0  0  0  0  0  0  0  0  0  0
   20.1240   17.9094   20.7224 H   0  0  0  0  0  0  0  0  0  0  0  0
   18.4472   18.0638   22.0980 C   0  0  0  0  0  0  0  0  0  0  0  0
   17.8277   17.2885   21.6290 H   0  0  0  0  0  0  0  0  0  0  0  0
   18.1180   19.0325   21.7026 H   0  0  0  0  0  0  0  0  0  0  0  0
   18.2516   18.0473   23.1782 H   0  0  0  0  0  0  0  0  0  0  0  0
  1  2  1  0  0  0  0
  1  3  2  0  0  0  0
  1  4  1  0  0  0  0
  4  5  1  0  0  0  0
  4  6  1  0  0  0  0
  4  7  1  0  0  0  0
  7  8  1  0  0  0  0
  7  9  1  0  0  0  0
  7 10  1  0  0  0  0
 10 11  1  0  0  0  0
 10 12  1  0  0  0  0
 10 13  1  0  0  0  0
 13 14  1  0  0  0  0
 13 15  1  0  0  0  0
 13 16  1  0  0  0  0
M  END
> <VConfSearch Rank>
440

> <Conf_Id>
45

> <Delta U+W>
2.303

> <U+W>
-54.601

> <U>
11.258

> <W>
-65.860

> <W(PB)>
-67.709

> <W(SA)>
1.849

> <Valence>
8.169

> <Coulomb>
2.735

> <VdW>
0.355

> <VdW6>
-6.245

> <VdW12>
6.600

> <Bond>
0.149

> <Angle>
3.168

> <Pdih>
4.840

> <Idih>
0.011

> <Tether>
0.000

$$$$
VeraChem MOL file


 16 15  0  0  0  0  0  0  0  0999 V2000     
   20.8456   16.5110   22.2164 C   0  0  0  0  0  0  0  0  0  0  0  0
   21.8736   16.6744   21.5884 O   0  5  0  0  0  0  0  0  0  0  0  0
   20.5312   15.4448   22.7061 O   0  0  0  0  0  0  0  0  0  0  0  0
   19.8825   17.6824   22.4163 C   0  0  0  0  0  0  0  0  0  0  0  0
   19.7501   17.8165   23.4964 H   0  0  0  0  0  0  0  0  0  0  0  0
   18.9104   17.3800   22.0092 H   0  0  0  0  0  0  0  0  0  0  0  0
   20.3254   19.0232   21.7726 C   0  0  0  0  0  0  0  0  0  0  0  0
   21.3023   19.3183   22.1803 H   0  0  0  0  0  0  0  0  0  0  0  0
   20.4617   18.8813   20.6916 H   0  0  0  0  0  0  0  0  0  0  0  0
   19.2977   20.1468   22.0231 C   0  0  0  0  0  0  0  0  0  0  0  0
   19.1619   20.2909   23.1040 H   0  0  0  0  0  0  0  0  0  0  0  0
   18.3207   19.8537   21.6144 H   0  0  0  0  0  0  0  0  0  0  0  0
   19.7432   21.4757   21.3815 C   0  0  0  0  0  0  0  0  0  0  0  0
   20.7040   21.8090   21.7954 H   0  0  0  0  0  0  0  0  0  0  0  0
   19.0019   22.2634   21.5689 H   0  0  0  0  0  0  0  0  0  0  0  0
   19.8567   21.3685   20.2948 H   0  0  0  0  0  0  0  0  0  0  0  0
  1  2  1  0  0  0  0
  1  3  2  0  0  0  0
  1  4  1  0  0  0  0
  4  5  1  0  0  0  0
  4  6  1  0  0  0  0
  4  7  1  0  0  0  0
  7  8  1  0  0  0  0
  7  9  1  0  0  0  0
  7 10  1  0  0  0  0
 10 11  1  0  0  0  0
 10 12  1  0  0  0  0
 10 13  1  0  0  0  0
 13 14  1  0  0  0  0
 13 15  1  0  0  0  0
 13 16  1  0  0  0  0
M  END
> <VConfSearch Rank>
441

> <Conf_Id>
0

> <Delta U+W>
0.000

> <U+W>
-56.904

> <U>
7.329

> <W>
-64.233

> <W(PB)>
-66.148

> <W(SA)>
1.915

> <Valence>
6.755

> <Coulomb>
-0.421

> <VdW>
0.995

> <VdW6>
-4.495

> <VdW12>
5.490

> <Bond>
0.106

> <Angle>
2.715

> <Pdih>
3.934

> <Idih>
0.000

> <Tether>
0.000

$$$$
VeraChem MOL file


 16 15  0  0  0  0  0  0  0  0999 V2000     
   17.8443   17.5034   21.7501 C   0  0  0  0  0  0  0  0  0  0  0  0
   17.9292   16.4569   22.3612 O   0  5  0  0  0  0  0  0  0  0  0  0
   16.7960   18.0868   21.5589 O   0  0  0  0  0  0  0  0  0  0  0  0
   19.1257   18.1280   21.2091 C   0  0  0  0  0  0  0  0  0  0  0  0
   18.8805   18.6607   20.2823 H   0  0  0  0  0  0  0  0  0  0  0  0
   19.8148   17.3170   20.9440 H   0  0  0  0  0  0  0  0  0  0  0  0
   19.7985   19.0921   22.2171 C   0  0  0  0  0  0  0  0  0  0  0  0
   19.0921   19.8910   22.4821 H   0  0  0  0  0  0  0  0  0  0  0  0
   20.0264   18.5473   23.1438 H   0  0  0  0  0  0  0  0  0  0  0  0
   21.0916   19.7097   21.6454 C   0  0  0  0  0  0  0  0  0  0  0  0
   20.8640   20.2551   20.7190 H   0  0  0  0  0  0  0  0  0  0  0  0
   21.7985   18.9110   21.3808 H   0  0  0  0  0  0  0  0  0  0  0  0
   21.7557   20.6679   22.6538 C   0  0  0  0  0  0  0  0  0  0  0  0
   22.0228   20.1408   23.5792 H   0  0  0  0  0  0  0  0  0  0  0  0
   21.0814   21.4948   22.9125 H   0  0  0  0  0  0  0  0  0  0  0  0
   22.6733   21.0981   22.2319 H   0  0  0  0  0  0  0  0  0  0  0  0
  1  2  1  0  0  0  0
  1  3  2  0  0  0  0
  1  4  1  0  0  0  0
  4  5  1  0  0  0  0
  4  6  1  0  0  0  0
  4  7  1  0  0  0  0
  7  8  1  0  0  0  0
  7  9  1  0  0  0  0
  7 10  1  0  0  0  0
 10 11  1  0  0  0  0
 10 12  1  0  0  0  0
 10 13  1  0  0  0  0
 13 14  1  0  0  0  0
 13 15  1  0  0  0  0
 13 16  1  0  0  0  0
M  END
> <VConfSearch Rank>
442

> <Conf_Id>
22

> <Delta U+W>
-1.185

> <U+W>
-58.089

> <U>
6.298

> <W>
-64.387

> <W(PB)>
-66.329

> <W(SA)>
1.942

> <Valence>
6.246

> <Coulomb>
-0.408

> <VdW>
0.460

> <VdW6>
-4.207

> <VdW12>
4.667

> <Bond>
0.072

> <Angle>
2.246

> <Pdih>
3.928

> <Idih>
0.001

> <Tether>
0.000

$$$$
VeraChem MOL file


 16 15  0  0  0  0  0  0  0  0999 V2000     
   22.1405   20.1113   23.0046 C   0  0  0  0  0  0  0  0  0  0  0  0
   22.5248   19.8163   24.1187 O   0  5  0  0  0  0  0  0  0  0  0  0
   22.4923   21.1145   22.4166 O   0  0  0  0  0  0  0  0  0  0  0  0
   21.1474   19.1820   22.3155 C   0  0  0  0  0  0  0  0  0  0  0  0
   21.3575   18.1565   22.6422 H   0  0  0  0  0  0  0  0  0  0  0  0
   21.3408   19.2259   21.2377 H   0  0  0  0  0  0  0  0  0  0  0  0
   19.6713   19.5478   22.6196 C   0  0  0  0  0  0  0  0  0  0  0  0
   19.5327   19.5798   23.7092 H   0  0  0  0  0  0  0  0  0  0  0  0
   19.4610   20.5608   22.2498 H   0  0  0  0  0  0  0  0  0  0  0  0
   18.6539   18.5508   22.0186 C   0  0  0  0  0  0  0  0  0  0  0  0
   17.6477   18.8182   22.3698 H   0  0  0  0  0  0  0  0  0  0  0  0
   18.8567   17.5395   22.3975 H   0  0  0  0  0  0  0  0  0  0  0  0
   18.6547   18.5366   20.4750 C   0  0  0  0  0  0  0  0  0  0  0  0
   19.6077   18.1651   20.0780 H   0  0  0  0  0  0  0  0  0  0  0  0
   18.4825   19.5435   20.0727 H   0  0  0  0  0  0  0  0  0  0  0  0
   17.8595   17.8811   20.0970 H   0  0  0  0  0  0  0  0  0  0  0  0
  1  2  1  0  0  0  0
  1  3  2  0  0  0  0
  1  4  1  0  0  0  0
  4  5  1  0  0  0  0
  4  6  1  0  0  0  0
  4  7  1  0  0  0  0
  7  8  1  0  0  0  0
  7  9  1  0  0  0  0
  7 10  1  0  0  0  0
 10 11  1  0  0  0  0
 10 12  1  0  0  0  0
 10 13  1  0  0  0  0
 13 14  1  0  0  0  0
 13 15  1  0  0  0  0
 13 16  1  0  0  0  0
M  END
> <VConfSearch Rank>
443

> <Conf_Id>
36

> <Delta U+W>
-0.427

> <U+W>
-57.331

> <U>
7.263

> <W>
-64.594

> <W(PB)>
-66.513

> <W(SA)>
1.920

> <Valence>
6.734

> <Coulomb>
-0.068

> <VdW>
0.598

> <VdW6>
-4.819

> <VdW12>
5.417

> <Bond>
0.107

> <Angle>
2.469

> <Pdih>
4.157

> <Idih>
0.001

> <Tether>
0.000

$$$$
VeraChem MOL file


 16 15  0  0  0  0  0  0  0  0999 V2000     
   17.7287   19.7139   23.1615 C   0  0  0  0  0  0  0  0  0  0  0  0
   16.7895   19.5894   22.4010 O   0  5  0  0  0  0  0  0  0  0  0  0
   17.6800   20.3612   24.1885 O   0  0  0  0  0  0  0  0  0  0  0  0
   19.0461   19.0380   22.7978 C   0  0  0  0  0  0  0  0  0  0  0  0
   18.8099   18.1125   22.2605 H   0  0  0  0  0  0  0  0  0  0  0  0
   19.5515   18.7539   23.7286 H   0  0  0  0  0  0  0  0  0  0  0  0
   19.9704   19.9436   21.9430 C   0  0  0  0  0  0  0  0  0  0  0  0
   19.4707   20.1865   20.9950 H   0  0  0  0  0  0  0  0  0  0  0  0
   20.1168   20.8966   22.4701 H   0  0  0  0  0  0  0  0  0  0  0  0
   21.3543   19.3159   21.6580 C   0  0  0  0  0  0  0  0  0  0  0  0
   21.8590   19.0837   22.6060 H   0  0  0  0  0  0  0  0  0  0  0  0
   21.9808   20.0596   21.1464 H   0  0  0  0  0  0  0  0  0  0  0  0
   21.2780   18.0448   20.7855 C   0  0  0  0  0  0  0  0  0  0  0  0
   20.7559   17.2321   21.3059 H   0  0  0  0  0  0  0  0  0  0  0  0
   22.2864   17.6876   20.5392 H   0  0  0  0  0  0  0  0  0  0  0  0
   20.7513   18.2458   19.8435 H   0  0  0  0  0  0  0  0  0  0  0  0
  1  2  1  0  0  0  0
  1  3  2  0  0  0  0
  1  4  1  0  0  0  0
  4  5  1  0  0  0  0
  4  6  1  0  0  0  0
  4  7  1  0  0  0  0
  7  8  1  0  0  0  0
  7  9  1  0  0  0  0
  7 10  1  0  0  0  0
 10 11  1  0  0  0  0
 10 12  1  0  0  0  0
 10 13  1  0  0  0  0
 13 14  1  0  0  0  0
 13 15  1  0  0  0  0
 13 16  1  0  0  0  0
M  END
> <VConfSearch Rank>
444

> <Conf_Id>
17

> <Delta U+W>
-0.432

> <U+W>
-57.336

> <U>
7.263

> <W>
-64.599

> <W(PB)>
-66.503

> <W(SA)>
1.904

> <Valence>
6.734

> <Coulomb>
-0.068

> <VdW>
0.598

> <VdW6>
-4.819

> <VdW12>
5.417

> <Bond>
0.107

> <Angle>
2.469

> <Pdih>
4.157

> <Idih>
0.001

> <Tether>
0.000

$$$$
VeraChem MOL file


 16 15  0  0  0  0  0  0  0  0999 V2000     
   22.4461   19.5328   22.4257 C   0  0  0  0  0  0  0  0  0  0  0  0
   22.7500   20.7082   22.3759 O   0  5  0  0  0  0  0  0  0  0  0  0
   22.7974   18.7861   23.3175 O   0  0  0  0  0  0  0  0  0  0  0  0
   21.5976   18.9601   21.2937 C   0  0  0  0  0  0  0  0  0  0  0  0
   21.7044   17.8684   21.2932 H   0  0  0  0  0  0  0  0  0  0  0  0
   22.0233   19.3205   20.3497 H   0  0  0  0  0  0  0  0  0  0  0  0
   20.0986   19.3508   21.3673 C   0  0  0  0  0  0  0  0  0  0  0  0
   20.0087   20.4457   21.3959 H   0  0  0  0  0  0  0  0  0  0  0  0
   19.5975   19.0163   20.4489 H   0  0  0  0  0  0  0  0  0  0  0  0
   19.3839   18.7354   22.5898 C   0  0  0  0  0  0  0  0  0  0  0  0
   19.8644   19.0797   23.5163 H   0  0  0  0  0  0  0  0  0  0  0  0
   19.4853   17.6415   22.5665 H   0  0  0  0  0  0  0  0  0  0  0  0
   17.8892   19.1114   22.6205 C   0  0  0  0  0  0  0  0  0  0  0  0
   17.7596   20.2003   22.6752 H   0  0  0  0  0  0  0  0  0  0  0  0
   17.3967   18.6671   23.4952 H   0  0  0  0  0  0  0  0  0  0  0  0
   17.3742   18.7492   21.7211 H   0  0  0  0  0  0  0  0  0  0  0  0
  1  2  1  0  0  0  0
  1  3  2  0  0  0  0
  1  4  1  0  0  0  0
  4  5  1  0  0  0  0
  4  6  1  0  0  0  0
  4  7  1  0  0  0  0
  7  8  1  0  0  0  0
  7  9  1  0  0  0  0
  7 10  1  0  0  0  0
 10 11  1  0  0  0  0
 10 12  1  0  0  0  0
 10 13  1  0  0  0  0
 13 14  1  0  0  0  0
 13 15  1  0  0  0  0
 13 16  1  0  0  0  0
M  END
> <VConfSearch Rank>
445

> <Conf_Id>
19

> <Delta U+W>
0.048

> <U+W>
-56.856

> <U>
8.276

> <W>
-65.132

> <W(PB)>
-67.031

> <W(SA)>
1.899

> <Valence>
6.513

> <Coulomb>
1.428

> <VdW>
0.335

> <VdW6>
-5.021

> <VdW12>
5.356

> <Bond>
0.092

> <Angle>
2.417

> <Pdih>
4.003

> <Idih>
0.001

> <Tether>
0.000

$$$$
VeraChem MOL file


 16 15  0  0  0  0  0  0  0  0999 V2000     
   19.0486   18.5614   19.9501 C   0  0  0  0  0  0  0  0  0  0  0  0
   17.8370   18.5959   19.8645 O   0  5  0  0  0  0  0  0  0  0  0  0
   19.7212   17.6207   19.5773 O   0  0  0  0  0  0  0  0  0  0  0  0
   19.7636   19.7757   20.5363 C   0  0  0  0  0  0  0  0  0  0  0  0
   19.3266   20.6687   20.0739 H   0  0  0  0  0  0  0  0  0  0  0  0
   20.8167   19.7437   20.2310 H   0  0  0  0  0  0  0  0  0  0  0  0
   19.6573   19.8879   22.0794 C   0  0  0  0  0  0  0  0  0  0  0  0
   20.0750   20.8532   22.3962 H   0  0  0  0  0  0  0  0  0  0  0  0
   18.5981   19.8902   22.3723 H   0  0  0  0  0  0  0  0  0  0  0  0
   20.3995   18.7481   22.8103 C   0  0  0  0  0  0  0  0  0  0  0  0
   21.4556   18.7393   22.5071 H   0  0  0  0  0  0  0  0  0  0  0  0
   19.9761   17.7775   22.5164 H   0  0  0  0  0  0  0  0  0  0  0  0
   20.3066   18.9022   24.3413 C   0  0  0  0  0  0  0  0  0  0  0  0
   20.7541   19.8497   24.6689 H   0  0  0  0  0  0  0  0  0  0  0  0
   20.8380   18.0843   24.8451 H   0  0  0  0  0  0  0  0  0  0  0  0
   19.2607   18.8832   24.6748 H   0  0  0  0  0  0  0  0  0  0  0  0
  1  2  1  0  0  0  0
  1  3  2  0  0  0  0
  1  4  1  0  0  0  0
  4  5  1  0  0  0  0
  4  6  1  0  0  0  0
  4  7  1  0  0  0  0
  7  8  1  0  0  0  0
  7  9  1  0  0  0  0
  7 10  1  0  0  0  0
 10 11  1  0  0  0  0
 10 12  1  0  0  0  0
 10 13  1  0  0  0  0
 13 14  1  0  0  0  0
 13 15  1  0  0  0  0
 13 16  1  0  0  0  0
M  END
> <VConfSearch Rank>
446

> <Conf_Id>
20

> <Delta U+W>
-0.010

> <U+W>
-56.914

> <U>
8.277

> <W>
-65.191

> <W(PB)>
-67.081

> <W(SA)>
1.890

> <Valence>
6.513

> <Coulomb>
1.429

> <VdW>
0.335

> <VdW6>
-5.021

> <VdW12>
5.356

> <Bond>
0.092

> <Angle>
2.417

> <Pdih>
4.002

> <Idih>
0.001

> <Tether>
0.000

$$$$
VeraChem MOL file


 16 15  0  0  0  0  0  0  0  0999 V2000     
   19.3100   17.3928   21.0849 C   0  0  0  0  0  0  0  0  0  0  0  0
   18.4038   16.6585   21.4263 O   0  5  0  0  0  0  0  0  0  0  0  0
   20.4046   16.9919   20.7424 O   0  0  0  0  0  0  0  0  0  0  0  0
   19.0453   18.8957   21.0529 C   0  0  0  0  0  0  0  0  0  0  0  0
   18.1172   19.0508   20.4903 H   0  0  0  0  0  0  0  0  0  0  0  0
   19.8416   19.3811   20.4772 H   0  0  0  0  0  0  0  0  0  0  0  0
   18.9089   19.5474   22.4562 C   0  0  0  0  0  0  0  0  0  0  0  0
   18.6414   20.6060   22.3372 H   0  0  0  0  0  0  0  0  0  0  0  0
   18.0691   19.0751   22.9844 H   0  0  0  0  0  0  0  0  0  0  0  0
   20.1771   19.4388   23.3358 C   0  0  0  0  0  0  0  0  0  0  0  0
   20.4355   18.3821   23.4915 H   0  0  0  0  0  0  0  0  0  0  0  0
   19.9536   19.8519   24.3290 H   0  0  0  0  0  0  0  0  0  0  0  0
   21.3921   20.1871   22.7472 C   0  0  0  0  0  0  0  0  0  0  0  0
   21.7272   19.7261   21.8093 H   0  0  0  0  0  0  0  0  0  0  0  0
   22.2355   20.1612   23.4492 H   0  0  0  0  0  0  0  0  0  0  0  0
   21.1487   21.2390   22.5487 H   0  0  0  0  0  0  0  0  0  0  0  0
  1  2  1  0  0  0  0
  1  3  2  0  0  0  0
  1  4  1  0  0  0  0
  4  5  1  0  0  0  0
  4  6  1  0  0  0  0
  4  7  1  0  0  0  0
  7  8  1  0  0  0  0
  7  9  1  0  0  0  0
  7 10  1  0  0  0  0
 10 11  1  0  0  0  0
 10 12  1  0  0  0  0
 10 13  1  0  0  0  0
 13 14  1  0  0  0  0
 13 15  1  0  0  0  0
 13 16  1  0  0  0  0
M  END
> <VConfSearch Rank>
447

> <Conf_Id>
37

> <Delta U+W>
1.063

> <U+W>
-55.841

> <U>
9.719

> <W>
-65.560

> <W(PB)>
-67.414

> <W(SA)>
1.854

> <Valence>
7.002

> <Coulomb>
2.402

> <VdW>
0.314

> <VdW6>
-5.861

> <VdW12>
6.175

> <Bond>
0.134

> <Angle>
2.733

> <Pdih>
4.133

> <Idih>
0.002

> <Tether>
0.000

$$$$
VeraChem MOL file


 16 15  0  0  0  0  0  0  0  0999 V2000     
   21.0267   17.4385   21.2007 C   0  0  0  0  0  0  0  0  0  0  0  0
   20.4253   16.4045   20.9864 O   0  5  0  0  0  0  0  0  0  0  0  0
   21.7188   17.9954   20.3718 O   0  0  0  0  0  0  0  0  0  0  0  0
   20.9334   18.0493   22.5964 C   0  0  0  0  0  0  0  0  0  0  0  0
   21.7262   18.7981   22.7065 H   0  0  0  0  0  0  0  0  0  0  0  0
   21.1571   17.2529   23.3158 H   0  0  0  0  0  0  0  0  0  0  0  0
   19.5474   18.6664   22.9293 C   0  0  0  0  0  0  0  0  0  0  0  0
   18.7850   17.8780   22.8620 H   0  0  0  0  0  0  0  0  0  0  0  0
   19.5464   19.0073   23.9734 H   0  0  0  0  0  0  0  0  0  0  0  0
   19.1347   19.8406   22.0101 C   0  0  0  0  0  0  0  0  0  0  0  0
   18.1132   20.1501   22.2709 H   0  0  0  0  0  0  0  0  0  0  0  0
   19.0980   19.5030   20.9650 H   0  0  0  0  0  0  0  0  0  0  0  0
   20.0703   21.0626   22.1264 C   0  0  0  0  0  0  0  0  0  0  0  0
   20.1524   21.3984   23.1683 H   0  0  0  0  0  0  0  0  0  0  0  0
   19.6842   21.8995   21.5303 H   0  0  0  0  0  0  0  0  0  0  0  0
   21.0772   20.8295   21.7572 H   0  0  0  0  0  0  0  0  0  0  0  0
  1  2  1  0  0  0  0
  1  3  2  0  0  0  0
  1  4  1  0  0  0  0
  4  5  1  0  0  0  0
  4  6  1  0  0  0  0
  4  7  1  0  0  0  0
  7  8  1  0  0  0  0
  7  9  1  0  0  0  0
  7 10  1  0  0  0  0
 10 11  1  0  0  0  0
 10 12  1  0  0  0  0
 10 13  1  0  0  0  0
 13 14  1  0  0  0  0
 13 15  1  0  0  0  0
 13 16  1  0  0  0  0
M  END
> <VConfSearch Rank>
448

> <Conf_Id>
39

> <Delta U+W>
1.129

> <U+W>
-55.775

> <U>
9.718

> <W>
-65.493

> <W(PB)>
-67.361

> <W(SA)>
1.869

> <Valence>
7.002

> <Coulomb>
2.402

> <VdW>
0.314

> <VdW6>
-5.861

> <VdW12>
6.175

> <Bond>
0.134

> <Angle>
2.734

> <Pdih>
4.133

> <Idih>
0.002

> <Tether>
0.000

$$$$
VeraChem MOL file


 16 15  0  0  0  0  0  0  0  0999 V2000     
   18.1957   19.6945   21.4306 C   0  0  0  0  0  0  0  0  0  0  0  0
   18.1296   19.3510   20.2668 O   0  5  0  0  0  0  0  0  0  0  0  0
   17.9627   20.8261   21.8080 O   0  0  0  0  0  0  0  0  0  0  0  0
   18.4990   18.6277   22.4811 C   0  0  0  0  0  0  0  0  0  0  0  0
   18.6035   17.6560   21.9832 H   0  0  0  0  0  0  0  0  0  0  0  0
   17.6091   18.5593   23.1176 H   0  0  0  0  0  0  0  0  0  0  0  0
   19.7388   18.9097   23.3757 C   0  0  0  0  0  0  0  0  0  0  0  0
   19.7308   19.9573   23.7074 H   0  0  0  0  0  0  0  0  0  0  0  0
   19.6446   18.3031   24.2866 H   0  0  0  0  0  0  0  0  0  0  0  0
   21.0997   18.5700   22.7213 C   0  0  0  0  0  0  0  0  0  0  0  0
   21.1029   17.5226   22.3893 H   0  0  0  0  0  0  0  0  0  0  0  0
   21.8835   18.6533   23.4867 H   0  0  0  0  0  0  0  0  0  0  0  0
   21.4706   19.4901   21.5397 C   0  0  0  0  0  0  0  0  0  0  0  0
   20.8100   19.3225   20.6803 H   0  0  0  0  0  0  0  0  0  0  0  0
   22.4986   19.2942   21.2086 H   0  0  0  0  0  0  0  0  0  0  0  0
   21.4021   20.5475   21.8269 H   0  0  0  0  0  0  0  0  0  0  0  0
  1  2  1  0  0  0  0
  1  3  2  0  0  0  0
  1  4  1  0  0  0  0
  4  5  1  0  0  0  0
  4  6  1  0  0  0  0
  4  7  1  0  0  0  0
  7  8  1  0  0  0  0
  7  9  1  0  0  0  0
  7 10  1  0  0  0  0
 10 11  1  0  0  0  0
 10 12  1  0  0  0  0
 10 13  1  0  0  0  0
 13 14  1  0  0  0  0
 13 15  1  0  0  0  0
 13 16  1  0  0  0  0
M  END
> <VConfSearch Rank>
449

> <Conf_Id>
47

> <Delta U+W>
2.301

> <U+W>
-54.603

> <U>
11.258

> <W>
-65.861

> <W(PB)>
-67.702

> <W(SA)>
1.841

> <Valence>
8.169

> <Coulomb>
2.735

> <VdW>
0.355

> <VdW6>
-6.245

> <VdW12>
6.600

> <Bond>
0.149

> <Angle>
3.168

> <Pdih>
4.840

> <Idih>
0.011

> <Tether>
0.000

$$$$
VeraChem MOL file


 16 15  0  0  0  0  0  0  0  0999 V2000     
   19.3828   19.5302   24.1532 C   0  0  0  0  0  0  0  0  0  0  0  0
   20.1228   18.9126   24.8936 O   0  5  0  0  0  0  0  0  0  0  0  0
   18.1764   19.5694   24.2943 O   0  0  0  0  0  0  0  0  0  0  0  0
   20.0067   20.3732   23.0425 C   0  0  0  0  0  0  0  0  0  0  0  0
   20.6349   21.1220   23.5390 H   0  0  0  0  0  0  0  0  0  0  0  0
   19.2127   20.9243   22.5240 H   0  0  0  0  0  0  0  0  0  0  0  0
   20.8727   19.5869   22.0184 C   0  0  0  0  0  0  0  0  0  0  0  0
   21.5383   20.3026   21.5171 H   0  0  0  0  0  0  0  0  0  0  0  0
   21.5293   18.8816   22.5466 H   0  0  0  0  0  0  0  0  0  0  0  0
   20.0672   18.8455   20.9242 C   0  0  0  0  0  0  0  0  0  0  0  0
   20.7721   18.4639   20.1727 H   0  0  0  0  0  0  0  0  0  0  0  0
   19.4109   19.5537   20.3999 H   0  0  0  0  0  0  0  0  0  0  0  0
   19.2333   17.6621   21.4575 C   0  0  0  0  0  0  0  0  0  0  0  0
   18.7987   17.0930   20.6257 H   0  0  0  0  0  0  0  0  0  0  0  0
   18.4052   18.0089   22.0876 H   0  0  0  0  0  0  0  0  0  0  0  0
   19.8544   16.9773   22.0496 H   0  0  0  0  0  0  0  0  0  0  0  0
  1  2  1  0  0  0  0
  1  3  2  0  0  0  0
  1  4  1  0  0  0  0
  4  5  1  0  0  0  0
  4  6  1  0  0  0  0
  4  7  1  0  0  0  0
  7  8  1  0  0  0  0
  7  9  1  0  0  0  0
  7 10  1  0  0  0  0
 10 11  1  0  0  0  0
 10 12  1  0  0  0  0
 10 13  1  0  0  0  0
 13 14  1  0  0  0  0
 13 15  1  0  0  0  0
 13 16  1  0  0  0  0
M  END
> <VConfSearch Rank>
450

> <Conf_Id>
45

> <Delta U+W>
2.303

> <U+W>
-54.601

> <U>
11.258

> <W>
-65.860

> <W(PB)>
-67.709

> <W(SA)>
1.849

> <Valence>
8.169

> <Coulomb>
2.735

> <VdW>
0.355

> <VdW6>
-6.245

> <VdW12>
6.600

> <Bond>
0.149

> <Angle>
3.168

> <Pdih>
4.840

> <Idih>
0.011

> <Tether>
0.000

$$$$
VeraChem MOL file


 16 15  0  0  0  0  0  0  0  0999 V2000     
   19.9100   17.4397   19.7426 C   0  0  0  0  0  0  0  0  0  0  0  0
   18.8444   17.8633   19.3389 O   0  5  0  0  0  0  0  0  0  0  0  0
   20.5281   16.5582   19.1802 O   0  0  0  0  0  0  0  0  0  0  0  0
   20.5271   18.0228   21.0150 C   0  0  0  0  0  0  0  0  0  0  0  0
   21.5214   18.4027   20.7520 H   0  0  0  0  0  0  0  0  0  0  0  0
   20.6759   17.1933   21.7164 H   0  0  0  0  0  0  0  0  0  0  0  0
   19.7018   19.1451   21.6989 C   0  0  0  0  0  0  0  0  0  0  0  0
   19.5514   19.9709   20.9897 H   0  0  0  0  0  0  0  0  0  0  0  0
   18.7050   18.7602   21.9551 H   0  0  0  0  0  0  0  0  0  0  0  0
   20.3968   19.6738   22.9712 C   0  0  0  0  0  0  0  0  0  0  0  0
   21.3931   20.0606   22.7161 H   0  0  0  0  0  0  0  0  0  0  0  0
   20.5463   18.8493   23.6821 H   0  0  0  0  0  0  0  0  0  0  0  0
   19.5724   20.7880   23.6458 C   0  0  0  0  0  0  0  0  0  0  0  0
   19.4341   21.6399   22.9671 H   0  0  0  0  0  0  0  0  0  0  0  0
   20.0803   21.1526   24.5482 H   0  0  0  0  0  0  0  0  0  0  0  0
   18.5809   20.4196   23.9402 H   0  0  0  0  0  0  0  0  0  0  0  0
  1  2  1  0  0  0  0
  1  3  2  0  0  0  0
  1  4  1  0  0  0  0
  4  5  1  0  0  0  0
  4  6  1  0  0  0  0
  4  7  1  0  0  0  0
  7  8  1  0  0  0  0
  7  9  1  0  0  0  0
  7 10  1  0  0  0  0
 10 11  1  0  0  0  0
 10 12  1  0  0  0  0
 10 13  1  0  0  0  0
 13 14  1  0  0  0  0
 13 15  1  0  0  0  0
 13 16  1  0  0  0  0
M  END
> <VConfSearch Rank>
451

> <Conf_Id>
0

> <Delta U+W>
0.000

> <U+W>
-56.904

> <U>
7.329

> <W>
-64.233

> <W(PB)>
-66.148

> <W(SA)>
1.915

> <Valence>
6.755

> <Coulomb>
-0.421

> <VdW>
0.995

> <VdW6>
-4.495

> <VdW12>
5.490

> <Bond>
0.106

> <Angle>
2.715

> <Pdih>
3.934

> <Idih>
0.000

> <Tether>
0.000

$$$$
VeraChem MOL file


 16 15  0  0  0  0  0  0  0  0999 V2000     
   18.8194   18.6462   19.5426 C   0  0  0  0  0  0  0  0  0  0  0  0
   17.8343   19.3242   19.3282 O   0  5  0  0  0  0  0  0  0  0  0  0
   19.5586   18.2398   18.6684 O   0  0  0  0  0  0  0  0  0  0  0  0
   19.1564   18.3020   20.9891 C   0  0  0  0  0  0  0  0  0  0  0  0
   19.6375   17.3165   21.0019 H   0  0  0  0  0  0  0  0  0  0  0  0
   18.2160   18.2106   21.5459 H   0  0  0  0  0  0  0  0  0  0  0  0
   20.0744   19.3529   21.6606 C   0  0  0  0  0  0  0  0  0  0  0  0
   21.0061   19.4418   21.0848 H   0  0  0  0  0  0  0  0  0  0  0  0
   19.5846   20.3360   21.6288 H   0  0  0  0  0  0  0  0  0  0  0  0
   20.3997   18.9809   23.1222 C   0  0  0  0  0  0  0  0  0  0  0  0
   20.8902   17.9981   23.1544 H   0  0  0  0  0  0  0  0  0  0  0  0
   19.4683   18.8925   23.6985 H   0  0  0  0  0  0  0  0  0  0  0  0
   21.3136   20.0311   23.7841 C   0  0  0  0  0  0  0  0  0  0  0  0
   20.8341   21.0187   23.7938 H   0  0  0  0  0  0  0  0  0  0  0  0
   22.2665   20.1178   23.2456 H   0  0  0  0  0  0  0  0  0  0  0  0
   21.5351   19.7517   24.8223 H   0  0  0  0  0  0  0  0  0  0  0  0
  1  2  1  0  0  0  0
  1  3  2  0  0  0  0
  1  4  1  0  0  0  0
  4  5  1  0  0  0  0
  4  6  1  0  0  0  0
  4  7  1  0  0  0  0
  7  8  1  0  0  0  0
  7  9  1  0  0  0  0
  7 10  1  0  0  0  0
 10 11  1  0  0  0  0
 10 12  1  0  0  0  0
 10 13  1  0  0  0  0
 13 14  1  0  0  0  0
 13 15  1  0  0  0  0
 13 16  1  0  0  0  0
M  END
> <VConfSearch Rank>
452

> <Conf_Id>
22

> <Delta U+W>
-1.185

> <U+W>
-58.089

> <U>
6.298

> <W>
-64.387

> <W(PB)>
-66.329

> <W(SA)>
1.942

> <Valence>
6.246

> <Coulomb>
-0.408

> <VdW>
0.460

> <VdW6>
-4.207

> <VdW12>
4.667

> <Bond>
0.072

> <Angle>
2.246

> <Pdih>
3.928

> <Idih>
0.001

> <Tether>
0.000

$$$$
VeraChem MOL file


 16 15  0  0  0  0  0  0  0  0999 V2000     
   19.0440   19.5320   19.6009 C   0  0  0  0  0  0  0  0  0  0  0  0
   17.8538   19.5499   19.3577 O   0  5  0  0  0  0  0  0  0  0  0  0
   19.8977   19.3238   18.7619 O   0  0  0  0  0  0  0  0  0  0  0  0
   19.4887   19.7636   21.0407 C   0  0  0  0  0  0  0  0  0  0  0  0
   18.7751   20.4506   21.5112 H   0  0  0  0  0  0  0  0  0  0  0  0
   20.4594   20.2718   21.0132 H   0  0  0  0  0  0  0  0  0  0  0  0
   19.5844   18.4498   21.8590 C   0  0  0  0  0  0  0  0  0  0  0  0
   18.6224   17.9226   21.7944 H   0  0  0  0  0  0  0  0  0  0  0  0
   20.3329   17.7874   21.4026 H   0  0  0  0  0  0  0  0  0  0  0  0
   19.9274   18.6766   23.3494 C   0  0  0  0  0  0  0  0  0  0  0  0
   19.8677   17.7141   23.8760 H   0  0  0  0  0  0  0  0  0  0  0  0
   19.1725   19.3295   23.8089 H   0  0  0  0  0  0  0  0  0  0  0  0
   21.3333   19.2761   23.5660 C   0  0  0  0  0  0  0  0  0  0  0  0
   21.4047   20.2902   23.1532 H   0  0  0  0  0  0  0  0  0  0  0  0
   22.1030   18.6548   23.0897 H   0  0  0  0  0  0  0  0  0  0  0  0
   21.5635   19.3368   24.6376 H   0  0  0  0  0  0  0  0  0  0  0  0
  1  2  1  0  0  0  0
  1  3  2  0  0  0  0
  1  4  1  0  0  0  0
  4  5  1  0  0  0  0
  4  6  1  0  0  0  0
  4  7  1  0  0  0  0
  7  8  1  0  0  0  0
  7  9  1  0  0  0  0
  7 10  1  0  0  0  0
 10 11  1  0  0  0  0
 10 12  1  0  0  0  0
 10 13  1  0  0  0  0
 13 14  1  0  0  0  0
 13 15  1  0  0  0  0
 13 16  1  0  0  0  0
M  END
> <VConfSearch Rank>
453

> <Conf_Id>
36

> <Delta U+W>
-0.427

> <U+W>
-57.331

> <U>
7.263

> <W>
-64.594

> <W(PB)>
-66.513

> <W(SA)>
1.920

> <Valence>
6.734

> <Coulomb>
-0.068

> <VdW>
0.598

> <VdW6>
-4.819

> <VdW12>
5.417

> <Bond>
0.107

> <Angle>
2.469

> <Pdih>
4.157

> <Idih>
0.001

> <Tether>
0.000

$$$$
VeraChem MOL file


 16 15  0  0  0  0  0  0  0  0999 V2000     
   21.3776   21.3052   22.1339 C   0  0  0  0  0  0  0  0  0  0  0  0
   20.9693   22.0387   23.0121 O   0  5  0  0  0  0  0  0  0  0  0  0
   22.0886   21.6796   21.2227 O   0  0  0  0  0  0  0  0  0  0  0  0
   20.9589   19.8395   22.1656 C   0  0  0  0  0  0  0  0  0  0  0  0
   20.8587   19.5429   23.2159 H   0  0  0  0  0  0  0  0  0  0  0  0
   21.7728   19.2435   21.7355 H   0  0  0  0  0  0  0  0  0  0  0  0
   19.6387   19.5747   21.3962 C   0  0  0  0  0  0  0  0  0  0  0  0
   18.8224   20.1437   21.8623 H   0  0  0  0  0  0  0  0  0  0  0  0
   19.7425   19.9616   20.3730 H   0  0  0  0  0  0  0  0  0  0  0  0
   19.2576   18.0780   21.3250 C   0  0  0  0  0  0  0  0  0  0  0  0
   20.0688   17.5105   20.8483 H   0  0  0  0  0  0  0  0  0  0  0  0
   18.3782   17.9680   20.6754 H   0  0  0  0  0  0  0  0  0  0  0  0
   18.9367   17.4652   22.7050 C   0  0  0  0  0  0  0  0  0  0  0  0
   19.8223   17.4499   23.3525 H   0  0  0  0  0  0  0  0  0  0  0  0
   18.5889   16.4301   22.5935 H   0  0  0  0  0  0  0  0  0  0  0  0
   18.1473   18.0340   23.2135 H   0  0  0  0  0  0  0  0  0  0  0  0
  1  2  1  0  0  0  0
  1  3  2  0  0  0  0
  1  4  1  0  0  0  0
  4  5  1  0  0  0  0
  4  6  1  0  0  0  0
  4  7  1  0  0  0  0
  7  8  1  0  0  0  0
  7  9  1  0  0  0  0
  7 10  1  0  0  0  0
 10 11  1  0  0  0  0
 10 12  1  0  0  0  0
 10 13  1  0  0  0  0
 13 14  1  0  0  0  0
 13 15  1  0  0  0  0
 13 16  1  0  0  0  0
M  END
> <VConfSearch Rank>
454

> <Conf_Id>
17

> <Delta U+W>
-0.432

> <U+W>
-57.336

> <U>
7.263

> <W>
-64.599

> <W(PB)>
-66.503

> <W(SA)>
1.904

> <Valence>
6.734

> <Coulomb>
-0.068

> <VdW>
0.598

> <VdW6>
-4.819

> <VdW12>
5.417

> <Bond>
0.107

> <Angle>
2.469

> <Pdih>
4.157

> <Idih>
0.001

> <Tether>
0.000

$$$$
VeraChem MOL file


 16 15  0  0  0  0  0  0  0  0999 V2000     
   20.9848   17.1221   23.0023 C   0  0  0  0  0  0  0  0  0  0  0  0
   22.1743   17.1623   23.2469 O   0  5  0  0  0  0  0  0  0  0  0  0
   20.1506   16.7232   23.7905 O   0  0  0  0  0  0  0  0  0  0  0  0
   20.5183   17.5751   21.6214 C   0  0  0  0  0  0  0  0  0  0  0  0
   19.5189   17.1628   21.4364 H   0  0  0  0  0  0  0  0  0  0  0  0
   21.1900   17.1214   20.8830 H   0  0  0  0  0  0  0  0  0  0  0  0
   20.5055   19.1142   21.4320 C   0  0  0  0  0  0  0  0  0  0  0  0
   21.5052   19.5161   21.6483 H   0  0  0  0  0  0  0  0  0  0  0  0
   20.2944   19.3418   20.3783 H   0  0  0  0  0  0  0  0  0  0  0  0
   19.4566   19.8136   22.3235 C   0  0  0  0  0  0  0  0  0  0  0  0
   19.6700   19.6095   23.3820 H   0  0  0  0  0  0  0  0  0  0  0  0
   18.4593   19.4020   22.1149 H   0  0  0  0  0  0  0  0  0  0  0  0
   19.4415   21.3374   22.0910 C   0  0  0  0  0  0  0  0  0  0  0  0
   20.4196   21.7794   22.3223 H   0  0  0  0  0  0  0  0  0  0  0  0
   18.6918   21.8189   22.7324 H   0  0  0  0  0  0  0  0  0  0  0  0
   19.1964   21.5735   21.0472 H   0  0  0  0  0  0  0  0  0  0  0  0
  1  2  1  0  0  0  0
  1  3  2  0  0  0  0
  1  4  1  0  0  0  0
  4  5  1  0  0  0  0
  4  6  1  0  0  0  0
  4  7  1  0  0  0  0
  7  8  1  0  0  0  0
  7  9  1  0  0  0  0
  7 10  1  0  0  0  0
 10 11  1  0  0  0  0
 10 12  1  0  0  0  0
 10 13  1  0  0  0  0
 13 14  1  0  0  0  0
 13 15  1  0  0  0  0
 13 16  1  0  0  0  0
M  END
> <VConfSearch Rank>
455

> <Conf_Id>
19

> <Delta U+W>
0.048

> <U+W>
-56.856

> <U>
8.276

> <W>
-65.132

> <W(PB)>
-67.031

> <W(SA)>
1.899

> <Valence>
6.513

> <Coulomb>
1.428

> <VdW>
0.335

> <VdW6>
-5.021

> <VdW12>
5.356

> <Bond>
0.092

> <Angle>
2.417

> <Pdih>
4.003

> <Idih>
0.001

> <Tether>
0.000

$$$$
VeraChem MOL file


 16 15  0  0  0  0  0  0  0  0999 V2000     
   19.9967   21.0901   20.7232 C   0  0  0  0  0  0  0  0  0  0  0  0
   20.7959   21.9143   21.1211 O   0  5  0  0  0  0  0  0  0  0  0  0
   18.8571   21.3613   20.4008 O   0  0  0  0  0  0  0  0  0  0  0  0
   20.4586   19.6406   20.6003 C   0  0  0  0  0  0  0  0  0  0  0  0
   21.4418   19.6494   20.1150 H   0  0  0  0  0  0  0  0  0  0  0  0
   19.7761   19.1112   19.9242 H   0  0  0  0  0  0  0  0  0  0  0  0
   20.5574   18.8916   21.9547 C   0  0  0  0  0  0  0  0  0  0  0  0
   21.0256   17.9122   21.7870 H   0  0  0  0  0  0  0  0  0  0  0  0
   21.2213   19.4480   22.6309 H   0  0  0  0  0  0  0  0  0  0  0  0
   19.1803   18.6893   22.6233 C   0  0  0  0  0  0  0  0  0  0  0  0
   18.5137   18.1437   21.9411 H   0  0  0  0  0  0  0  0  0  0  0  0
   18.7109   19.6644   22.8146 H   0  0  0  0  0  0  0  0  0  0  0  0
   19.3033   17.9136   23.9497 C   0  0  0  0  0  0  0  0  0  0  0  0
   19.7385   16.9192   23.7847 H   0  0  0  0  0  0  0  0  0  0  0  0
   18.3167   17.7794   24.4120 H   0  0  0  0  0  0  0  0  0  0  0  0
   19.9409   18.4534   24.6623 H   0  0  0  0  0  0  0  0  0  0  0  0
  1  2  1  0  0  0  0
  1  3  2  0  0  0  0
  1  4  1  0  0  0  0
  4  5  1  0  0  0  0
  4  6  1  0  0  0  0
  4  7  1  0  0  0  0
  7  8  1  0  0  0  0
  7  9  1  0  0  0  0
  7 10  1  0  0  0  0
 10 11  1  0  0  0  0
 10 12  1  0  0  0  0
 10 13  1  0  0  0  0
 13 14  1  0  0  0  0
 13 15  1  0  0  0  0
 13 16  1  0  0  0  0
M  END
> <VConfSearch Rank>
456

> <Conf_Id>
20

> <Delta U+W>
-0.010

> <U+W>
-56.914

> <U>
8.277

> <W>
-65.191

> <W(PB)>
-67.081

> <W(SA)>
1.890

> <Valence>
6.513

> <Coulomb>
1.429

> <VdW>
0.335

> <VdW6>
-5.021

> <VdW12>
5.356

> <Bond>
0.092

> <Angle>
2.417

> <Pdih>
4.002

> <Idih>
0.001

> <Tether>
0.000

$$$$
VeraChem MOL file


 16 15  0  0  0  0  0  0  0  0999 V2000     
   19.8821   18.7085   24.2732 C   0  0  0  0  0  0  0  0  0  0  0  0
   18.9825   18.1136   24.8332 O   0  5  0  0  0  0  0  0  0  0  0  0
   20.3929   19.7194   24.7133 O   0  0  0  0  0  0  0  0  0  0  0  0
   20.4199   18.1343   22.9653 C   0  0  0  0  0  0  0  0  0  0  0  0
   20.6353   17.0736   23.1397 H   0  0  0  0  0  0  0  0  0  0  0  0
   21.3799   18.6124   22.7394 H   0  0  0  0  0  0  0  0  0  0  0  0
   19.4452   18.2684   21.7634 C   0  0  0  0  0  0  0  0  0  0  0  0
   19.8776   17.7606   20.8907 H   0  0  0  0  0  0  0  0  0  0  0  0
   18.5155   17.7334   22.0017 H   0  0  0  0  0  0  0  0  0  0  0  0
   19.0986   19.7276   21.3832 C   0  0  0  0  0  0  0  0  0  0  0  0
   18.6328   20.2369   22.2383 H   0  0  0  0  0  0  0  0  0  0  0  0
   18.3451   19.7140   20.5837 H   0  0  0  0  0  0  0  0  0  0  0  0
   20.3209   20.5379   20.9017 C   0  0  0  0  0  0  0  0  0  0  0  0
   21.0472   20.6818   21.7118 H   0  0  0  0  0  0  0  0  0  0  0  0
   20.0098   21.5318   20.5550 H   0  0  0  0  0  0  0  0  0  0  0  0
   20.8263   20.0316   20.0690 H   0  0  0  0  0  0  0  0  0  0  0  0
  1  2  1  0  0  0  0
  1  3  2  0  0  0  0
  1  4  1  0  0  0  0
  4  5  1  0  0  0  0
  4  6  1  0  0  0  0
  4  7  1  0  0  0  0
  7  8  1  0  0  0  0
  7  9  1  0  0  0  0
  7 10  1  0  0  0  0
 10 11  1  0  0  0  0
 10 12  1  0  0  0  0
 10 13  1  0  0  0  0
 13 14  1  0  0  0  0
 13 15  1  0  0  0  0
 13 16  1  0  0  0  0
M  END
> <VConfSearch Rank>
457

> <Conf_Id>
37

> <Delta U+W>
1.063

> <U+W>
-55.841

> <U>
9.719

> <W>
-65.560

> <W(PB)>
-67.414

> <W(SA)>
1.854

> <Valence>
7.002

> <Coulomb>
2.402

> <VdW>
0.314

> <VdW6>
-5.861

> <VdW12>
6.175

> <Bond>
0.134

> <Angle>
2.733

> <Pdih>
4.133

> <Idih>
0.002

> <Tether>
0.000

$$$$
VeraChem MOL file


 16 15  0  0  0  0  0  0  0  0999 V2000     
   19.9579   20.6530   23.6844 C   0  0  0  0  0  0  0  0  0  0  0  0
   20.9094   21.2641   24.1293 O   0  5  0  0  0  0  0  0  0  0  0  0
   18.9201   21.1847   23.3428 O   0  0  0  0  0  0  0  0  0  0  0  0
   20.0620   19.1336   23.5831 C   0  0  0  0  0  0  0  0  0  0  0  0
   19.0577   18.7212   23.4325 H   0  0  0  0  0  0  0  0  0  0  0  0
   20.4056   18.7652   24.5568 H   0  0  0  0  0  0  0  0  0  0  0  0
   21.0303   18.6349   22.4757 C   0  0  0  0  0  0  0  0  0  0  0  0
   22.0369   19.0217   22.6869 H   0  0  0  0  0  0  0  0  0  0  0  0
   21.1040   17.5403   22.5279 H   0  0  0  0  0  0  0  0  0  0  0  0
   20.6263   19.0499   21.0409 C   0  0  0  0  0  0  0  0  0  0  0  0
   21.4115   18.7234   20.3453 H   0  0  0  0  0  0  0  0  0  0  0  0
   20.5830   20.1454   20.9662 H   0  0  0  0  0  0  0  0  0  0  0  0
   19.2790   18.4470   20.5895 C   0  0  0  0  0  0  0  0  0  0  0  0
   19.2836   17.3537   20.6883 H   0  0  0  0  0  0  0  0  0  0  0  0
   19.0828   18.6912   19.5375 H   0  0  0  0  0  0  0  0  0  0  0  0
   18.4461   18.8449   21.1831 H   0  0  0  0  0  0  0  0  0  0  0  0
  1  2  1  0  0  0  0
  1  3  2  0  0  0  0
  1  4  1  0  0  0  0
  4  5  1  0  0  0  0
  4  6  1  0  0  0  0
  4  7  1  0  0  0  0
  7  8  1  0  0  0  0
  7  9  1  0  0  0  0
  7 10  1  0  0  0  0
 10 11  1  0  0  0  0
 10 12  1  0  0  0  0
 10 13  1  0  0  0  0
 13 14  1  0  0  0  0
 13 15  1  0  0  0  0
 13 16  1  0  0  0  0
M  END
> <VConfSearch Rank>
458

> <Conf_Id>
39

> <Delta U+W>
1.129

> <U+W>
-55.775

> <U>
9.718

> <W>
-65.493

> <W(PB)>
-67.361

> <W(SA)>
1.869

> <Valence>
7.002

> <Coulomb>
2.402

> <VdW>
0.314

> <VdW6>
-5.861

> <VdW12>
6.175

> <Bond>
0.134

> <Angle>
2.734

> <Pdih>
4.133

> <Idih>
0.002

> <Tether>
0.000

$$$$
VeraChem MOL file


 16 15  0  0  0  0  0  0  0  0999 V2000     
   21.6493   18.7686   21.3638 C   0  0  0  0  0  0  0  0  0  0  0  0
   21.6260   19.1619   20.2142 O   0  5  0  0  0  0  0  0  0  0  0  0
   22.0645   17.6731   21.6874 O   0  0  0  0  0  0  0  0  0  0  0  0
   21.2186   19.7353   22.4654 C   0  0  0  0  0  0  0  0  0  0  0  0
   20.9511   20.6973   22.0115 H   0  0  0  0  0  0  0  0  0  0  0  0
   22.1067   19.9162   23.0821 H   0  0  0  0  0  0  0  0  0  0  0  0
   20.0648   19.2317   23.3776 C   0  0  0  0  0  0  0  0  0  0  0  0
   20.2436   18.1861   23.6647 H   0  0  0  0  0  0  0  0  0  0  0  0
   20.0930   19.8107   24.3106 H   0  0  0  0  0  0  0  0  0  0  0  0
   18.6485   19.3816   22.7718 C   0  0  0  0  0  0  0  0  0  0  0  0
   18.4745   20.4278   22.4844 H   0  0  0  0  0  0  0  0  0  0  0  0
   17.9106   19.1494   23.5521 H   0  0  0  0  0  0  0  0  0  0  0  0
   18.3867   18.4606   21.5621 C   0  0  0  0  0  0  0  0  0  0  0  0
   18.9869   18.7605   20.6944 H   0  0  0  0  0  0  0  0  0  0  0  0
   17.3311   18.5078   21.2650 H   0  0  0  0  0  0  0  0  0  0  0  0
   18.6253   17.4164   21.8027 H   0  0  0  0  0  0  0  0  0  0  0  0
  1  2  1  0  0  0  0
  1  3  2  0  0  0  0
  1  4  1  0  0  0  0
  4  5  1  0  0  0  0
  4  6  1  0  0  0  0
  4  7  1  0  0  0  0
  7  8  1  0  0  0  0
  7  9  1  0  0  0  0
  7 10  1  0  0  0  0
 10 11  1  0  0  0  0
 10 12  1  0  0  0  0
 10 13  1  0  0  0  0
 13 14  1  0  0  0  0
 13 15  1  0  0  0  0
 13 16  1  0  0  0  0
M  END
> <VConfSearch Rank>
459

> <Conf_Id>
47

> <Delta U+W>
2.301

> <U+W>
-54.603

> <U>
11.258

> <W>
-65.861

> <W(PB)>
-67.702

> <W(SA)>
1.841

> <Valence>
8.169

> <Coulomb>
2.735

> <VdW>
0.355

> <VdW6>
-6.245

> <VdW12>
6.600

> <Bond>
0.149

> <Angle>
3.168

> <Pdih>
4.840

> <Idih>
0.011

> <Tether>
0.000

$$$$
VeraChem MOL file


 16 15  0  0  0  0  0  0  0  0999 V2000     
   19.6048   17.4862   23.3887 C   0  0  0  0  0  0  0  0  0  0  0  0
   19.8067   17.7787   24.5509 O   0  5  0  0  0  0  0  0  0  0  0  0
   20.0751   16.5004   22.8560 O   0  0  0  0  0  0  0  0  0  0  0  0
   18.6393   18.3512   22.5804 C   0  0  0  0  0  0  0  0  0  0  0  0
   17.6682   18.2835   23.0844 H   0  0  0  0  0  0  0  0  0  0  0  0
   18.5082   17.9063   21.5865 H   0  0  0  0  0  0  0  0  0  0  0  0
   19.0375   19.8485   22.4512 C   0  0  0  0  0  0  0  0  0  0  0  0
   18.1356   20.4177   22.1888 H   0  0  0  0  0  0  0  0  0  0  0  0
   19.3659   20.2341   23.4264 H   0  0  0  0  0  0  0  0  0  0  0  0
   20.1105   20.1421   21.3751 C   0  0  0  0  0  0  0  0  0  0  0  0
   20.1968   21.2313   21.2589 H   0  0  0  0  0  0  0  0  0  0  0  0
   19.7794   19.7534   20.4022 H   0  0  0  0  0  0  0  0  0  0  0  0
   21.5048   19.5748   21.7133 C   0  0  0  0  0  0  0  0  0  0  0  0
   22.2499   19.9308   20.9902 H   0  0  0  0  0  0  0  0  0  0  0  0
   21.5093   18.4785   21.6783 H   0  0  0  0  0  0  0  0  0  0  0  0
   21.8262   19.8896   22.7148 H   0  0  0  0  0  0  0  0  0  0  0  0
  1  2  1  0  0  0  0
  1  3  2  0  0  0  0
  1  4  1  0  0  0  0
  4  5  1  0  0  0  0
  4  6  1  0  0  0  0
  4  7  1  0  0  0  0
  7  8  1  0  0  0  0
  7  9  1  0  0  0  0
  7 10  1  0  0  0  0
 10 11  1  0  0  0  0
 10 12  1  0  0  0  0
 10 13  1  0  0  0  0
 13 14  1  0  0  0  0
 13 15  1  0  0  0  0
 13 16  1  0  0  0  0
M  END
> <VConfSearch Rank>
460

> <Conf_Id>
45

> <Delta U+W>
2.303

> <U+W>
-54.601

> <U>
11.258

> <W>
-65.860

> <W(PB)>
-67.709

> <W(SA)>
1.849

> <Valence>
8.169

> <Coulomb>
2.735

> <VdW>
0.355

> <VdW6>
-6.245

> <VdW12>
6.600

> <Bond>
0.149

> <Angle>
3.168

> <Pdih>
4.840

> <Idih>
0.011

> <Tether>
0.000

$$$$
VeraChem MOL file


 16 15  0  0  0  0  0  0  0  0999 V2000     
   17.6936   20.6256   22.1310 C   0  0  0  0  0  0  0  0  0  0  0  0
   17.0662   19.7618   22.7125 O   0  5  0  0  0  0  0  0  0  0  0  0
   17.2237   21.7099   21.8504 O   0  0  0  0  0  0  0  0  0  0  0  0
   19.1439   20.3655   21.7201 C   0  0  0  0  0  0  0  0  0  0  0  0
   19.7598   21.1463   22.1817 H   0  0  0  0  0  0  0  0  0  0  0  0
   19.2069   20.5072   20.6347 H   0  0  0  0  0  0  0  0  0  0  0  0
   19.7005   18.9672   22.0987 C   0  0  0  0  0  0  0  0  0  0  0  0
   19.6297   18.8289   23.1865 H   0  0  0  0  0  0  0  0  0  0  0  0
   19.0762   18.1892   21.6378 H   0  0  0  0  0  0  0  0  0  0  0  0
   21.1657   18.7919   21.6474 C   0  0  0  0  0  0  0  0  0  0  0  0
   21.7915   19.5683   22.1090 H   0  0  0  0  0  0  0  0  0  0  0  0
   21.2376   18.9282   20.5594 H   0  0  0  0  0  0  0  0  0  0  0  0
   21.7128   17.4014   22.0262 C   0  0  0  0  0  0  0  0  0  0  0  0
   21.6819   17.2500   23.1132 H   0  0  0  0  0  0  0  0  0  0  0  0
   22.7550   17.2933   21.6984 H   0  0  0  0  0  0  0  0  0  0  0  0
   21.1239   16.6052   21.5522 H   0  0  0  0  0  0  0  0  0  0  0  0
  1  2  1  0  0  0  0
  1  3  2  0  0  0  0
  1  4  1  0  0  0  0
  4  5  1  0  0  0  0
  4  6  1  0  0  0  0
  4  7  1  0  0  0  0
  7  8  1  0  0  0  0
  7  9  1  0  0  0  0
  7 10  1  0  0  0  0
 10 11  1  0  0  0  0
 10 12  1  0  0  0  0
 10 13  1  0  0  0  0
 13 14  1  0  0  0  0
 13 15  1  0  0  0  0
 13 16  1  0  0  0  0
M  END
> <VConfSearch Rank>
461

> <Conf_Id>
0

> <Delta U+W>
0.000

> <U+W>
-56.904

> <U>
7.329

> <W>
-64.233

> <W(PB)>
-66.148

> <W(SA)>
1.915

> <Valence>
6.755

> <Coulomb>
-0.421

> <VdW>
0.995

> <VdW6>
-4.495

> <VdW12>
5.490

> <Bond>
0.106

> <Angle>
2.715

> <Pdih>
3.934

> <Idih>
0.000

> <Tether>
0.000

$$$$
VeraChem MOL file


 16 15  0  0  0  0  0  0  0  0999 V2000     
   20.1944   17.2349   23.9115 C   0  0  0  0  0  0  0  0  0  0  0  0
   21.3171   16.8320   24.1420 O   0  5  0  0  0  0  0  0  0  0  0  0
   19.3186   17.3009   24.7508 O   0  0  0  0  0  0  0  0  0  0  0  0
   19.8723   17.7002   22.4957 C   0  0  0  0  0  0  0  0  0  0  0  0
   18.8155   17.4835   22.2977 H   0  0  0  0  0  0  0  0  0  0  0  0
   20.4632   17.0971   21.7958 H   0  0  0  0  0  0  0  0  0  0  0  0
   20.1586   19.2061   22.2764 C   0  0  0  0  0  0  0  0  0  0  0  0
   19.5694   19.7958   22.9924 H   0  0  0  0  0  0  0  0  0  0  0  0
   21.2171   19.4093   22.4905 H   0  0  0  0  0  0  0  0  0  0  0  0
   19.8245   19.6505   20.8372 C   0  0  0  0  0  0  0  0  0  0  0  0
   18.7658   19.4481   20.6229 H   0  0  0  0  0  0  0  0  0  0  0  0
   20.4140   19.0615   20.1209 H   0  0  0  0  0  0  0  0  0  0  0  0
   20.1119   21.1502   20.6262 C   0  0  0  0  0  0  0  0  0  0  0  0
   21.1717   21.3757   20.8035 H   0  0  0  0  0  0  0  0  0  0  0  0
   19.5114   21.7651   21.3093 H   0  0  0  0  0  0  0  0  0  0  0  0
   19.8691   21.4496   19.5983 H   0  0  0  0  0  0  0  0  0  0  0  0
  1  2  1  0  0  0  0
  1  3  2  0  0  0  0
  1  4  1  0  0  0  0
  4  5  1  0  0  0  0
  4  6  1  0  0  0  0
  4  7  1  0  0  0  0
  7  8  1  0  0  0  0
  7  9  1  0  0  0  0
  7 10  1  0  0  0  0
 10 11  1  0  0  0  0
 10 12  1  0  0  0  0
 10 13  1  0  0  0  0
 13 14  1  0  0  0  0
 13 15  1  0  0  0  0
 13 16  1  0  0  0  0
M  END
> <VConfSearch Rank>
462

> <Conf_Id>
22

> <Delta U+W>
-1.185

> <U+W>
-58.089

> <U>
6.298

> <W>
-64.387

> <W(PB)>
-66.329

> <W(SA)>
1.942

> <Valence>
6.246

> <Coulomb>
-0.408

> <VdW>
0.460

> <VdW6>
-4.207

> <VdW12>
4.667

> <Bond>
0.072

> <Angle>
2.246

> <Pdih>
3.928

> <Idih>
0.001

> <Tether>
0.000

$$$$
VeraChem MOL file


 16 15  0  0  0  0  0  0  0  0999 V2000     
   17.9422   18.7242   23.5484 C   0  0  0  0  0  0  0  0  0  0  0  0
   17.4539   19.6021   24.2318 O   0  5  0  0  0  0  0  0  0  0  0  0
   17.8039   17.5392   23.7781 O   0  0  0  0  0  0  0  0  0  0  0  0
   18.7909   19.1324   22.3495 C   0  0  0  0  0  0  0  0  0  0  0  0
   18.3866   20.0701   21.9495 H   0  0  0  0  0  0  0  0  0  0  0  0
   18.6651   18.3675   21.5747 H   0  0  0  0  0  0  0  0  0  0  0  0
   20.2903   19.3060   22.7055 C   0  0  0  0  0  0  0  0  0  0  0  0
   20.3750   20.0130   23.5424 H   0  0  0  0  0  0  0  0  0  0  0  0
   20.6948   18.3496   23.0647 H   0  0  0  0  0  0  0  0  0  0  0  0
   21.1463   19.8257   21.5277 C   0  0  0  0  0  0  0  0  0  0  0  0
   22.1640   20.0241   21.8913 H   0  0  0  0  0  0  0  0  0  0  0  0
   20.7490   20.7879   21.1760 H   0  0  0  0  0  0  0  0  0  0  0  0
   21.2240   18.8337   20.3475 C   0  0  0  0  0  0  0  0  0  0  0  0
   20.2427   18.6918   19.8778 H   0  0  0  0  0  0  0  0  0  0  0  0
   21.5918   17.8545   20.6809 H   0  0  0  0  0  0  0  0  0  0  0  0
   21.9102   19.2077   19.5766 H   0  0  0  0  0  0  0  0  0  0  0  0
  1  2  1  0  0  0  0
  1  3  2  0  0  0  0
  1  4  1  0  0  0  0
  4  5  1  0  0  0  0
  4  6  1  0  0  0  0
  4  7  1  0  0  0  0
  7  8  1  0  0  0  0
  7  9  1  0  0  0  0
  7 10  1  0  0  0  0
 10 11  1  0  0  0  0
 10 12  1  0  0  0  0
 10 13  1  0  0  0  0
 13 14  1  0  0  0  0
 13 15  1  0  0  0  0
 13 16  1  0  0  0  0
M  END
> <VConfSearch Rank>
463

> <Conf_Id>
36

> <Delta U+W>
-0.427

> <U+W>
-57.331

> <U>
7.263

> <W>
-64.594

> <W(PB)>
-66.513

> <W(SA)>
1.920

> <Valence>
6.734

> <Coulomb>
-0.068

> <VdW>
0.598

> <VdW6>
-4.819

> <VdW12>
5.417

> <Bond>
0.107

> <Angle>
2.469

> <Pdih>
4.157

> <Idih>
0.001

> <Tether>
0.000

$$$$
VeraChem MOL file


 16 15  0  0  0  0  0  0  0  0999 V2000     
   19.3695   21.4978   21.0986 C   0  0  0  0  0  0  0  0  0  0  0  0
   18.1686   21.6284   20.9696 O   0  5  0  0  0  0  0  0  0  0  0  0
   20.1854   22.2100   20.5480 O   0  0  0  0  0  0  0  0  0  0  0  0
   19.8812   20.3665   21.9833 C   0  0  0  0  0  0  0  0  0  0  0  0
   19.1576   20.2221   22.7936 H   0  0  0  0  0  0  0  0  0  0  0  0
   20.8226   20.6921   22.4420 H   0  0  0  0  0  0  0  0  0  0  0  0
   20.0966   19.0437   21.2030 C   0  0  0  0  0  0  0  0  0  0  0  0
   19.1389   18.7050   20.7842 H   0  0  0  0  0  0  0  0  0  0  0  0
   20.7572   19.2418   20.3475 H   0  0  0  0  0  0  0  0  0  0  0  0
   20.7188   17.9177   22.0606 C   0  0  0  0  0  0  0  0  0  0  0  0
   21.6822   18.2519   22.4700 H   0  0  0  0  0  0  0  0  0  0  0  0
   20.9384   17.0592   21.4109 H   0  0  0  0  0  0  0  0  0  0  0  0
   19.8006   17.4500   23.2100 C   0  0  0  0  0  0  0  0  0  0  0  0
   19.6449   18.2466   23.9482 H   0  0  0  0  0  0  0  0  0  0  0  0
   20.2469   16.5946   23.7336 H   0  0  0  0  0  0  0  0  0  0  0  0
   18.8201   17.1378   22.8273 H   0  0  0  0  0  0  0  0  0  0  0  0
  1  2  1  0  0  0  0
  1  3  2  0  0  0  0
  1  4  1  0  0  0  0
  4  5  1  0  0  0  0
  4  6  1  0  0  0  0
  4  7  1  0  0  0  0
  7  8  1  0  0  0  0
  7  9  1  0  0  0  0
  7 10  1  0  0  0  0
 10 11  1  0  0  0  0
 10 12  1  0  0  0  0
 10 13  1  0  0  0  0
 13 14  1  0  0  0  0
 13 15  1  0  0  0  0
 13 16  1  0  0  0  0
M  END
> <VConfSearch Rank>
464

> <Conf_Id>
17

> <Delta U+W>
-0.432

> <U+W>
-57.336

> <U>
7.263

> <W>
-64.599

> <W(PB)>
-66.503

> <W(SA)>
1.904

> <Valence>
6.734

> <Coulomb>
-0.068

> <VdW>
0.598

> <VdW6>
-4.819

> <VdW12>
5.417

> <Bond>
0.107

> <Angle>
2.469

> <Pdih>
4.157

> <Idih>
0.001

> <Tether>
0.000

$$$$
VeraChem MOL file


 16 15  0  0  0  0  0  0  0  0999 V2000     
   20.8695   20.0489   20.0329 C   0  0  0  0  0  0  0  0  0  0  0  0
   20.3808   21.1321   19.7797 O   0  5  0  0  0  0  0  0  0  0  0  0
   22.0595   19.8155   19.9581 O   0  0  0  0  0  0  0  0  0  0  0  0
   19.9336   18.9153   20.4437 C   0  0  0  0  0  0  0  0  0  0  0  0
   20.4533   17.9608   20.2962 H   0  0  0  0  0  0  0  0  0  0  0  0
   19.0838   18.9239   19.7509 H   0  0  0  0  0  0  0  0  0  0  0  0
   19.4137   19.0216   21.9009 C   0  0  0  0  0  0  0  0  0  0  0  0
   18.9210   19.9937   22.0418 H   0  0  0  0  0  0  0  0  0  0  0  0
   18.6467   18.2521   22.0627 H   0  0  0  0  0  0  0  0  0  0  0  0
   20.5367   18.8481   22.9463 C   0  0  0  0  0  0  0  0  0  0  0  0
   21.3004   19.6259   22.8070 H   0  0  0  0  0  0  0  0  0  0  0  0
   21.0365   17.8811   22.7963 H   0  0  0  0  0  0  0  0  0  0  0  0
   19.9880   18.9242   24.3848 C   0  0  0  0  0  0  0  0  0  0  0  0
   19.5094   19.8946   24.5715 H   0  0  0  0  0  0  0  0  0  0  0  0
   20.7984   18.8000   25.1148 H   0  0  0  0  0  0  0  0  0  0  0  0
   19.2458   18.1354   24.5648 H   0  0  0  0  0  0  0  0  0  0  0  0
  1  2  1  0  0  0  0
  1  3  2  0  0  0  0
  1  4  1  0  0  0  0
  4  5  1  0  0  0  0
  4  6  1  0  0  0  0
  4  7  1  0  0  0  0
  7  8  1  0  0  0  0
  7  9  1  0  0  0  0
  7 10  1  0  0  0  0
 10 11  1  0  0  0  0
 10 12  1  0  0  0  0
 10 13  1  0  0  0  0
 13 14  1  0  0  0  0
 13 15  1  0  0  0  0
 13 16  1  0  0  0  0
M  END
> <VConfSearch Rank>
465

> <Conf_Id>
19

> <Delta U+W>
0.048

> <U+W>
-56.856

> <U>
8.276

> <W>
-65.132

> <W(PB)>
-67.031

> <W(SA)>
1.899

> <Valence>
6.513

> <Coulomb>
1.428

> <VdW>
0.335

> <VdW6>
-5.021

> <VdW12>
5.356

> <Bond>
0.092

> <Angle>
2.417

> <Pdih>
4.003

> <Idih>
0.001

> <Tether>
0.000

$$$$
VeraChem MOL file


 16 15  0  0  0  0  0  0  0  0999 V2000     
   18.0522   19.4851   20.6015 C   0  0  0  0  0  0  0  0  0  0  0  0
   17.1576   20.1642   21.0649 O   0  5  0  0  0  0  0  0  0  0  0  0
   17.8679   18.4193   20.0478 O   0  0  0  0  0  0  0  0  0  0  0  0
   19.4812   20.0121   20.7005 C   0  0  0  0  0  0  0  0  0  0  0  0
   19.4621   21.0690   20.4092 H   0  0  0  0  0  0  0  0  0  0  0  0
   20.0994   19.4903   19.9598 H   0  0  0  0  0  0  0  0  0  0  0  0
   20.1087   19.8762   22.1121 C   0  0  0  0  0  0  0  0  0  0  0  0
   21.0732   20.4016   22.1255 H   0  0  0  0  0  0  0  0  0  0  0  0
   19.4645   20.3788   22.8470 H   0  0  0  0  0  0  0  0  0  0  0  0
   20.3254   18.4046   22.5265 C   0  0  0  0  0  0  0  0  0  0  0  0
   20.9595   17.9001   21.7844 H   0  0  0  0  0  0  0  0  0  0  0  0
   19.3633   17.8736   22.5365 H   0  0  0  0  0  0  0  0  0  0  0  0
   20.9805   18.2987   23.9179 C   0  0  0  0  0  0  0  0  0  0  0  0
   21.9614   18.7918   23.9291 H   0  0  0  0  0  0  0  0  0  0  0  0
   21.1266   17.2472   24.1974 H   0  0  0  0  0  0  0  0  0  0  0  0
   20.3512   18.7691   24.6848 H   0  0  0  0  0  0  0  0  0  0  0  0
  1  2  1  0  0  0  0
  1  3  2  0  0  0  0
  1  4  1  0  0  0  0
  4  5  1  0  0  0  0
  4  6  1  0  0  0  0
  4  7  1  0  0  0  0
  7  8  1  0  0  0  0
  7  9  1  0  0  0  0
  7 10  1  0  0  0  0
 10 11  1  0  0  0  0
 10 12  1  0  0  0  0
 10 13  1  0  0  0  0
 13 14  1  0  0  0  0
 13 15  1  0  0  0  0
 13 16  1  0  0  0  0
M  END
> <VConfSearch Rank>
466

> <Conf_Id>
20

> <Delta U+W>
-0.010

> <U+W>
-56.914

> <U>
8.277

> <W>
-65.191

> <W(PB)>
-67.081

> <W(SA)>
1.890

> <Valence>
6.513

> <Coulomb>
1.429

> <VdW>
0.335

> <VdW6>
-5.021

> <VdW12>
5.356

> <Bond>
0.092

> <Angle>
2.417

> <Pdih>
4.002

> <Idih>
0.001

> <Tether>
0.000

$$$$
VeraChem MOL file


 16 15  0  0  0  0  0  0  0  0999 V2000     
   21.5261   19.0769   20.8141 C   0  0  0  0  0  0  0  0  0  0  0  0
   21.5203   18.4124   19.7967 O   0  5  0  0  0  0  0  0  0  0  0  0
   22.4540   19.0934   21.5985 O   0  0  0  0  0  0  0  0  0  0  0  0
   20.3170   19.9628   21.1022 C   0  0  0  0  0  0  0  0  0  0  0  0
   20.1183   20.5470   20.1960 H   0  0  0  0  0  0  0  0  0  0  0  0
   20.5866   20.6834   21.8827 H   0  0  0  0  0  0  0  0  0  0  0  0
   19.0353   19.1801   21.4987 C   0  0  0  0  0  0  0  0  0  0  0  0
   18.2013   19.8865   21.6079 H   0  0  0  0  0  0  0  0  0  0  0  0
   18.7632   18.5075   20.6735 H   0  0  0  0  0  0  0  0  0  0  0  0
   19.1715   18.3490   22.7967 C   0  0  0  0  0  0  0  0  0  0  0  0
   19.9809   17.6138   22.6874 H   0  0  0  0  0  0  0  0  0  0  0  0
   18.2480   17.7723   22.9444 H   0  0  0  0  0  0  0  0  0  0  0  0
   19.4241   19.2141   24.0498 C   0  0  0  0  0  0  0  0  0  0  0  0
   20.3997   19.7142   23.9981 H   0  0  0  0  0  0  0  0  0  0  0  0
   19.4184   18.5911   24.9535 H   0  0  0  0  0  0  0  0  0  0  0  0
   18.6470   19.9813   24.1623 H   0  0  0  0  0  0  0  0  0  0  0  0
  1  2  1  0  0  0  0
  1  3  2  0  0  0  0
  1  4  1  0  0  0  0
  4  5  1  0  0  0  0
  4  6  1  0  0  0  0
  4  7  1  0  0  0  0
  7  8  1  0  0  0  0
  7  9  1  0  0  0  0
  7 10  1  0  0  0  0
 10 11  1  0  0  0  0
 10 12  1  0  0  0  0
 10 13  1  0  0  0  0
 13 14  1  0  0  0  0
 13 15  1  0  0  0  0
 13 16  1  0  0  0  0
M  END
> <VConfSearch Rank>
467

> <Conf_Id>
37

> <Delta U+W>
1.063

> <U+W>
-55.841

> <U>
9.719

> <W>
-65.560

> <W(PB)>
-67.414

> <W(SA)>
1.854

> <Valence>
7.002

> <Coulomb>
2.402

> <VdW>
0.314

> <VdW6>
-5.861

> <VdW12>
6.175

> <Bond>
0.134

> <Angle>
2.733

> <Pdih>
4.133

> <Idih>
0.002

> <Tether>
0.000

$$$$
VeraChem MOL file


 16 15  0  0  0  0  0  0  0  0999 V2000     
   21.9206   20.3347   22.1889 C   0  0  0  0  0  0  0  0  0  0  0  0
   22.4940   20.6601   23.2097 O   0  5  0  0  0  0  0  0  0  0  0  0
   22.4916   19.8956   21.2104 O   0  0  0  0  0  0  0  0  0  0  0  0
   20.4071   20.5209   22.1228 C   0  0  0  0  0  0  0  0  0  0  0  0
   20.0888   20.4469   21.0767 H   0  0  0  0  0  0  0  0  0  0  0  0
   20.1914   21.5477   22.4407 H   0  0  0  0  0  0  0  0  0  0  0  0
   19.6051   19.5303   23.0106 C   0  0  0  0  0  0  0  0  0  0  0  0
   19.9097   19.6686   24.0573 H   0  0  0  0  0  0  0  0  0  0  0  0
   18.5383   19.7875   22.9639 H   0  0  0  0  0  0  0  0  0  0  0  0
   19.7869   18.0417   22.6297 C   0  0  0  0  0  0  0  0  0  0  0  0
   19.2504   17.4226   23.3618 H   0  0  0  0  0  0  0  0  0  0  0  0
   20.8470   17.7623   22.7064 H   0  0  0  0  0  0  0  0  0  0  0  0
   19.2646   17.7069   21.2164 C   0  0  0  0  0  0  0  0  0  0  0  0
   18.2155   18.0093   21.1020 H   0  0  0  0  0  0  0  0  0  0  0  0
   19.3281   16.6270   21.0299 H   0  0  0  0  0  0  0  0  0  0  0  0
   19.8571   18.2122   20.4430 H   0  0  0  0  0  0  0  0  0  0  0  0
  1  2  1  0  0  0  0
  1  3  2  0  0  0  0
  1  4  1  0  0  0  0
  4  5  1  0  0  0  0
  4  6  1  0  0  0  0
  4  7  1  0  0  0  0
  7  8  1  0  0  0  0
  7  9  1  0  0  0  0
  7 10  1  0  0  0  0
 10 11  1  0  0  0  0
 10 12  1  0  0  0  0
 10 13  1  0  0  0  0
 13 14  1  0  0  0  0
 13 15  1  0  0  0  0
 13 16  1  0  0  0  0
M  END
> <VConfSearch Rank>
468

> <Conf_Id>
39

> <Delta U+W>
1.129

> <U+W>
-55.775

> <U>
9.718

> <W>
-65.493

> <W(PB)>
-67.361

> <W(SA)>
1.869

> <Valence>
7.002

> <Coulomb>
2.402

> <VdW>
0.314

> <VdW6>
-5.861

> <VdW12>
6.175

> <Bond>
0.134

> <Angle>
2.734

> <Pdih>
4.133

> <Idih>
0.002

> <Tether>
0.000

$$$$
VeraChem MOL file


 16 15  0  0  0  0  0  0  0  0999 V2000     
   18.7167   20.2111   23.4118 C   0  0  0  0  0  0  0  0  0  0  0  0
   17.7146   20.5462   22.8115 O   0  5  0  0  0  0  0  0  0  0  0  0
   19.4101   20.9864   24.0406 O   0  0  0  0  0  0  0  0  0  0  0  0
   19.0706   18.7256   23.4515 C   0  0  0  0  0  0  0  0  0  0  0  0
   18.3050   18.1616   22.9049 H   0  0  0  0  0  0  0  0  0  0  0  0
   18.9961   18.4183   24.5011 H   0  0  0  0  0  0  0  0  0  0  0  0
   20.4863   18.3654   22.9194 C   0  0  0  0  0  0  0  0  0  0  0  0
   21.2273   19.0719   23.3184 H   0  0  0  0  0  0  0  0  0  0  0  0
   20.7594   17.3807   23.3223 H   0  0  0  0  0  0  0  0  0  0  0  0
   20.5986   18.2920   21.3775 C   0  0  0  0  0  0  0  0  0  0  0  0
   19.8550   17.5862   20.9824 H   0  0  0  0  0  0  0  0  0  0  0  0
   21.5835   17.8783   21.1203 H   0  0  0  0  0  0  0  0  0  0  0  0
   20.4433   19.6568   20.6750 C   0  0  0  0  0  0  0  0  0  0  0  0
   19.4185   20.0373   20.7635 H   0  0  0  0  0  0  0  0  0  0  0  0
   20.6701   19.5658   19.6049 H   0  0  0  0  0  0  0  0  0  0  0  0
   21.1264   20.4013   21.1046 H   0  0  0  0  0  0  0  0  0  0  0  0
  1  2  1  0  0  0  0
  1  3  2  0  0  0  0
  1  4  1  0  0  0  0
  4  5  1  0  0  0  0
  4  6  1  0  0  0  0
  4  7  1  0  0  0  0
  7  8  1  0  0  0  0
  7  9  1  0  0  0  0
  7 10  1  0  0  0  0
 10 11  1  0  0  0  0
 10 12  1  0  0  0  0
 10 13  1  0  0  0  0
 13 14  1  0  0  0  0
 13 15  1  0  0  0  0
 13 16  1  0  0  0  0
M  END
> <VConfSearch Rank>
469

> <Conf_Id>
47

> <Delta U+W>
2.301

> <U+W>
-54.603

> <U>
11.258

> <W>
-65.861

> <W(PB)>
-67.702

> <W(SA)>
1.841

> <Valence>
8.169

> <Coulomb>
2.735

> <VdW>
0.355

> <VdW6>
-6.245

> <VdW12>
6.600

> <Bond>
0.149

> <Angle>
3.168

> <Pdih>
4.840

> <Idih>
0.011

> <Tether>
0.000

$$$$
VeraChem MOL file


 16 15  0  0  0  0  0  0  0  0999 V2000     
   20.9963   20.7638   22.2249 C   0  0  0  0  0  0  0  0  0  0  0  0
   21.4965   20.8667   21.1220 O   0  5  0  0  0  0  0  0  0  0  0  0
   21.6224   20.8960   23.2580 O   0  0  0  0  0  0  0  0  0  0  0  0
   19.4871   20.5464   22.3191 C   0  0  0  0  0  0  0  0  0  0  0  0
   19.0194   21.4216   21.8532 H   0  0  0  0  0  0  0  0  0  0  0  0
   19.1903   20.5574   23.3749 H   0  0  0  0  0  0  0  0  0  0  0  0
   18.9563   19.2609   21.6245 C   0  0  0  0  0  0  0  0  0  0  0  0
   17.8817   19.3942   21.4402 H   0  0  0  0  0  0  0  0  0  0  0  0
   19.4217   19.1503   20.6352 H   0  0  0  0  0  0  0  0  0  0  0  0
   19.1365   17.9608   22.4447 C   0  0  0  0  0  0  0  0  0  0  0  0
   18.5900   17.1526   21.9392 H   0  0  0  0  0  0  0  0  0  0  0  0
   18.6716   18.0760   23.4335 H   0  0  0  0  0  0  0  0  0  0  0  0
   20.6077   17.5266   22.6104 C   0  0  0  0  0  0  0  0  0  0  0  0
   20.6650   16.5338   23.0750 H   0  0  0  0  0  0  0  0  0  0  0  0
   21.1599   18.2234   23.2527 H   0  0  0  0  0  0  0  0  0  0  0  0
   21.1158   17.4764   21.6385 H   0  0  0  0  0  0  0  0  0  0  0  0
  1  2  1  0  0  0  0
  1  3  2  0  0  0  0
  1  4  1  0  0  0  0
  4  5  1  0  0  0  0
  4  6  1  0  0  0  0
  4  7  1  0  0  0  0
  7  8  1  0  0  0  0
  7  9  1  0  0  0  0
  7 10  1  0  0  0  0
 10 11  1  0  0  0  0
 10 12  1  0  0  0  0
 10 13  1  0  0  0  0
 13 14  1  0  0  0  0
 13 15  1  0  0  0  0
 13 16  1  0  0  0  0
M  END
> <VConfSearch Rank>
470

> <Conf_Id>
45

> <Delta U+W>
2.303

> <U+W>
-54.601

> <U>
11.258

> <W>
-65.860

> <W(PB)>
-67.709

> <W(SA)>
1.849

> <Valence>
8.169

> <Coulomb>
2.735

> <VdW>
0.355

> <VdW6>
-6.245

> <VdW12>
6.600

> <Bond>
0.149

> <Angle>
3.168

> <Pdih>
4.840

> <Idih>
0.011

> <Tether>
0.000

$$$$
VeraChem MOL file


 16 15  0  0  0  0  0  0  0  0999 V2000     
   17.2419   19.1913   22.0450 C   0  0  0  0  0  0  0  0  0  0  0  0
   17.1041   19.4827   20.8728 O   0  5  0  0  0  0  0  0  0  0  0  0
   16.3060   19.0396   22.8041 O   0  0  0  0  0  0  0  0  0  0  0  0
   18.6461   19.0002   22.6208 C   0  0  0  0  0  0  0  0  0  0  0  0
   18.6931   17.9880   23.0397 H   0  0  0  0  0  0  0  0  0  0  0  0
   18.7542   19.6992   23.4585 H   0  0  0  0  0  0  0  0  0  0  0  0
   19.8097   19.2049   21.6146 C   0  0  0  0  0  0  0  0  0  0  0  0
   19.6930   18.5056   20.7750 H   0  0  0  0  0  0  0  0  0  0  0  0
   19.7543   20.2186   21.1943 H   0  0  0  0  0  0  0  0  0  0  0  0
   21.1863   18.9930   22.2789 C   0  0  0  0  0  0  0  0  0  0  0  0
   21.2438   17.9789   22.6981 H   0  0  0  0  0  0  0  0  0  0  0  0
   21.3050   19.6929   23.1177 H   0  0  0  0  0  0  0  0  0  0  0  0
   22.3378   19.1977   21.2747 C   0  0  0  0  0  0  0  0  0  0  0  0
   22.2615   18.4886   20.4399 H   0  0  0  0  0  0  0  0  0  0  0  0
   23.3089   19.0435   21.7629 H   0  0  0  0  0  0  0  0  0  0  0  0
   22.3232   20.2152   20.8626 H   0  0  0  0  0  0  0  0  0  0  0  0
  1  2  1  0  0  0  0
  1  3  2  0  0  0  0
  1  4  1  0  0  0  0
  4  5  1  0  0  0  0
  4  6  1  0  0  0  0
  4  7  1  0  0  0  0
  7  8  1  0  0  0  0
  7  9  1  0  0  0  0
  7 10  1  0  0  0  0
 10 11  1  0  0  0  0
 10 12  1  0  0  0  0
 10 13  1  0  0  0  0
 13 14  1  0  0  0  0
 13 15  1  0  0  0  0
 13 16  1  0  0  0  0
M  END
> <VConfSearch Rank>
471

> <Conf_Id>
0

> <Delta U+W>
0.000

> <U+W>
-56.904

> <U>
7.329

> <W>
-64.233

> <W(PB)>
-66.148

> <W(SA)>
1.915

> <Valence>
6.755

> <Coulomb>
-0.421

> <VdW>
0.995

> <VdW6>
-4.495

> <VdW12>
5.490

> <Bond>
0.106

> <Angle>
2.715

> <Pdih>
3.934

> <Idih>
0.000

> <Tether>
0.000

$$$$
VeraChem MOL file


 16 15  0  0  0  0  0  0  0  0999 V2000     
   19.3536   20.3201   19.5828 C   0  0  0  0  0  0  0  0  0  0  0  0
   19.8490   21.4152   19.4055 O   0  5  0  0  0  0  0  0  0  0  0  0
   19.0818   19.5518   18.6819 O   0  0  0  0  0  0  0  0  0  0  0  0
   19.0747   19.8787   21.0153 C   0  0  0  0  0  0  0  0  0  0  0  0
   18.1883   19.2329   21.0066 H   0  0  0  0  0  0  0  0  0  0  0  0
   18.8209   20.7691   21.6032 H   0  0  0  0  0  0  0  0  0  0  0  0
   20.2703   19.1357   21.6607 C   0  0  0  0  0  0  0  0  0  0  0  0
   20.5201   18.2542   21.0541 H   0  0  0  0  0  0  0  0  0  0  0  0
   21.1528   19.7904   21.6506 H   0  0  0  0  0  0  0  0  0  0  0  0
   19.9620   18.7005   23.1085 C   0  0  0  0  0  0  0  0  0  0  0  0
   19.0799   18.0452   23.1189 H   0  0  0  0  0  0  0  0  0  0  0  0
   19.7127   19.5819   23.7156 H   0  0  0  0  0  0  0  0  0  0  0  0
   21.1561   17.9618   23.7444 C   0  0  0  0  0  0  0  0  0  0  0  0
   22.0449   18.6057   23.7755 H   0  0  0  0  0  0  0  0  0  0  0  0
   21.4074   17.0577   23.1744 H   0  0  0  0  0  0  0  0  0  0  0  0
   20.9205   17.6594   24.7731 H   0  0  0  0  0  0  0  0  0  0  0  0
  1  2  1  0  0  0  0
  1  3  2  0  0  0  0
  1  4  1  0  0  0  0
  4  5  1  0  0  0  0
  4  6  1  0  0  0  0
  4  7  1  0  0  0  0
  7  8  1  0  0  0  0
  7  9  1  0  0  0  0
  7 10  1  0  0  0  0
 10 11  1  0  0  0  0
 10 12  1  0  0  0  0
 10 13  1  0  0  0  0
 13 14  1  0  0  0  0
 13 15  1  0  0  0  0
 13 16  1  0  0  0  0
M  END
> <VConfSearch Rank>
472

> <Conf_Id>
22

> <Delta U+W>
-1.185

> <U+W>
-58.089

> <U>
6.298

> <W>
-64.387

> <W(PB)>
-66.329

> <W(SA)>
1.942

> <Valence>
6.246

> <Coulomb>
-0.408

> <VdW>
0.460

> <VdW6>
-4.207

> <VdW12>
4.667

> <Bond>
0.072

> <Angle>
2.246

> <Pdih>
3.928

> <Idih>
0.001

> <Tether>
0.000

$$$$
VeraChem MOL file


 16 15  0  0  0  0  0  0  0  0999 V2000     
   21.0148   18.5505   19.6994 C   0  0  0  0  0  0  0  0  0  0  0  0
   20.4346   17.8735   18.8741 O   0  5  0  0  0  0  0  0  0  0  0  0
   22.2200   18.7022   19.7162 O   0  0  0  0  0  0  0  0  0  0  0  0
   20.1869   19.2301   20.7844 C   0  0  0  0  0  0  0  0  0  0  0  0
   19.2092   19.4843   20.3577 H   0  0  0  0  0  0  0  0  0  0  0  0
   20.6836   20.1721   21.0433 H   0  0  0  0  0  0  0  0  0  0  0  0
   20.0058   18.3452   22.0451 C   0  0  0  0  0  0  0  0  0  0  0  0
   19.5866   17.3766   21.7395 H   0  0  0  0  0  0  0  0  0  0  0  0
   20.9887   18.1326   22.4879 H   0  0  0  0  0  0  0  0  0  0  0  0
   19.0782   18.9740   23.1102 C   0  0  0  0  0  0  0  0  0  0  0  0
   18.9165   18.2424   23.9140 H   0  0  0  0  0  0  0  0  0  0  0  0
   18.0915   19.1759   22.6708 H   0  0  0  0  0  0  0  0  0  0  0  0
   19.6480   20.2705   23.7246 C   0  0  0  0  0  0  0  0  0  0  0  0
   19.7204   21.0703   22.9770 H   0  0  0  0  0  0  0  0  0  0  0  0
   20.6476   20.0997   24.1451 H   0  0  0  0  0  0  0  0  0  0  0  0
   18.9982   20.6297   24.5331 H   0  0  0  0  0  0  0  0  0  0  0  0
  1  2  1  0  0  0  0
  1  3  2  0  0  0  0
  1  4  1  0  0  0  0
  4  5  1  0  0  0  0
  4  6  1  0  0  0  0
  4  7  1  0  0  0  0
  7  8  1  0  0  0  0
  7  9  1  0  0  0  0
  7 10  1  0  0  0  0
 10 11  1  0  0  0  0
 10 12  1  0  0  0  0
 10 13  1  0  0  0  0
 13 14  1  0  0  0  0
 13 15  1  0  0  0  0
 13 16  1  0  0  0  0
M  END
> <VConfSearch Rank>
473

> <Conf_Id>
36

> <Delta U+W>
-0.427

> <U+W>
-57.331

> <U>
7.263

> <W>
-64.594

> <W(PB)>
-66.513

> <W(SA)>
1.920

> <Valence>
6.734

> <Coulomb>
-0.068

> <VdW>
0.598

> <VdW6>
-4.819

> <VdW12>
5.417

> <Bond>
0.107

> <Angle>
2.469

> <Pdih>
4.157

> <Idih>
0.001

> <Tether>
0.000

$$$$
VeraChem MOL file


 16 15  0  0  0  0  0  0  0  0999 V2000     
   20.8569   17.2072   23.4594 C   0  0  0  0  0  0  0  0  0  0  0  0
   20.7988   17.4895   24.6396 O   0  5  0  0  0  0  0  0  0  0  0  0
   21.5627   16.3243   23.0140 O   0  0  0  0  0  0  0  0  0  0  0  0
   20.0137   18.0178   22.4814 C   0  0  0  0  0  0  0  0  0  0  0  0
   19.0927   18.3116   22.9976 H   0  0  0  0  0  0  0  0  0  0  0  0
   19.7264   17.3596   21.6527 H   0  0  0  0  0  0  0  0  0  0  0  0
   20.7564   19.2665   21.9390 C   0  0  0  0  0  0  0  0  0  0  0  0
   21.0012   19.9385   22.7731 H   0  0  0  0  0  0  0  0  0  0  0  0
   21.7144   18.9472   21.5057 H   0  0  0  0  0  0  0  0  0  0  0  0
   19.9577   20.0386   20.8636 C   0  0  0  0  0  0  0  0  0  0  0  0
   19.7229   19.3698   20.0240 H   0  0  0  0  0  0  0  0  0  0  0  0
   20.5938   20.8368   20.4566 H   0  0  0  0  0  0  0  0  0  0  0  0
   18.6564   20.6672   21.4062 C   0  0  0  0  0  0  0  0  0  0  0  0
   17.9404   19.8977   21.7210 H   0  0  0  0  0  0  0  0  0  0  0  0
   18.1716   21.2747   20.6311 H   0  0  0  0  0  0  0  0  0  0  0  0
   18.8632   21.3182   22.2656 H   0  0  0  0  0  0  0  0  0  0  0  0
  1  2  1  0  0  0  0
  1  3  2  0  0  0  0
  1  4  1  0  0  0  0
  4  5  1  0  0  0  0
  4  6  1  0  0  0  0
  4  7  1  0  0  0  0
  7  8  1  0  0  0  0
  7  9  1  0  0  0  0
  7 10  1  0  0  0  0
 10 11  1  0  0  0  0
 10 12  1  0  0  0  0
 10 13  1  0  0  0  0
 13 14  1  0  0  0  0
 13 15  1  0  0  0  0
 13 16  1  0  0  0  0
M  END
> <VConfSearch Rank>
474

> <Conf_Id>
17

> <Delta U+W>
-0.432

> <U+W>
-57.336

> <U>
7.263

> <W>
-64.599

> <W(PB)>
-66.503

> <W(SA)>
1.904

> <Valence>
6.734

> <Coulomb>
-0.068

> <VdW>
0.598

> <VdW6>
-4.819

> <VdW12>
5.417

> <Bond>
0.107

> <Angle>
2.469

> <Pdih>
4.157

> <Idih>
0.001

> <Tether>
0.000

$$$$
VeraChem MOL file


 16 15  0  0  0  0  0  0  0  0999 V2000     
   18.5854   20.9023   21.8060 C   0  0  0  0  0  0  0  0  0  0  0  0
   18.8371   21.8835   22.4771 O   0  5  0  0  0  0  0  0  0  0  0  0
   18.3312   20.9485   20.6188 O   0  0  0  0  0  0  0  0  0  0  0  0
   18.5643   19.5425   22.4988 C   0  0  0  0  0  0  0  0  0  0  0  0
   17.9989   18.8398   21.8747 H   0  0  0  0  0  0  0  0  0  0  0  0
   18.0027   19.6590   23.4333 H   0  0  0  0  0  0  0  0  0  0  0  0
   19.9715   18.9694   22.8092 C   0  0  0  0  0  0  0  0  0  0  0  0
   20.5360   19.6956   23.4104 H   0  0  0  0  0  0  0  0  0  0  0  0
   19.8607   18.0669   23.4255 H   0  0  0  0  0  0  0  0  0  0  0  0
   20.7649   18.6188   21.5318 C   0  0  0  0  0  0  0  0  0  0  0  0
   20.8997   19.5193   20.9166 H   0  0  0  0  0  0  0  0  0  0  0  0
   20.1937   17.9020   20.9257 H   0  0  0  0  0  0  0  0  0  0  0  0
   22.1450   18.0203   21.8688 C   0  0  0  0  0  0  0  0  0  0  0  0
   22.7493   18.7298   22.4492 H   0  0  0  0  0  0  0  0  0  0  0  0
   22.6958   17.7777   20.9507 H   0  0  0  0  0  0  0  0  0  0  0  0
   22.0409   17.0980   22.4554 H   0  0  0  0  0  0  0  0  0  0  0  0
  1  2  1  0  0  0  0
  1  3  2  0  0  0  0
  1  4  1  0  0  0  0
  4  5  1  0  0  0  0
  4  6  1  0  0  0  0
  4  7  1  0  0  0  0
  7  8  1  0  0  0  0
  7  9  1  0  0  0  0
  7 10  1  0  0  0  0
 10 11  1  0  0  0  0
 10 12  1  0  0  0  0
 10 13  1  0  0  0  0
 13 14  1  0  0  0  0
 13 15  1  0  0  0  0
 13 16  1  0  0  0  0
M  END
> <VConfSearch Rank>
475

> <Conf_Id>
19

> <Delta U+W>
0.048

> <U+W>
-56.856

> <U>
8.276

> <W>
-65.132

> <W(PB)>
-67.031

> <W(SA)>
1.899

> <Valence>
6.513

> <Coulomb>
1.428

> <VdW>
0.335

> <VdW6>
-5.021

> <VdW12>
5.356

> <Bond>
0.092

> <Angle>
2.417

> <Pdih>
4.003

> <Idih>
0.001

> <Tether>
0.000

$$$$
VeraChem MOL file


 16 15  0  0  0  0  0  0  0  0999 V2000     
   21.5832   20.0191   23.4750 C   0  0  0  0  0  0  0  0  0  0  0  0
   21.5244   19.6256   24.6231 O   0  5  0  0  0  0  0  0  0  0  0  0
   21.7169   21.1882   23.1723 O   0  0  0  0  0  0  0  0  0  0  0  0
   21.5083   18.9850   22.3550 C   0  0  0  0  0  0  0  0  0  0  0  0
   22.1733   18.1570   22.6277 H   0  0  0  0  0  0  0  0  0  0  0  0
   21.9155   19.4302   21.4390 H   0  0  0  0  0  0  0  0  0  0  0  0
   20.0809   18.4373   22.0947 C   0  0  0  0  0  0  0  0  0  0  0  0
   20.1429   17.6072   21.3780 H   0  0  0  0  0  0  0  0  0  0  0  0
   19.6751   18.0206   23.0271 H   0  0  0  0  0  0  0  0  0  0  0  0
   19.1227   19.5151   21.5431 C   0  0  0  0  0  0  0  0  0  0  0  0
   19.5357   19.9396   20.6175 H   0  0  0  0  0  0  0  0  0  0  0  0
   19.0369   20.3421   22.2617 H   0  0  0  0  0  0  0  0  0  0  0  0
   17.7217   18.9369   21.2617 C   0  0  0  0  0  0  0  0  0  0  0  0
   17.7715   18.1295   20.5193 H   0  0  0  0  0  0  0  0  0  0  0  0
   17.0534   19.7154   20.8714 H   0  0  0  0  0  0  0  0  0  0  0  0
   17.2725   18.5329   22.1784 H   0  0  0  0  0  0  0  0  0  0  0  0
  1  2  1  0  0  0  0
  1  3  2  0  0  0  0
  1  4  1  0  0  0  0
  4  5  1  0  0  0  0
  4  6  1  0  0  0  0
  4  7  1  0  0  0  0
  7  8  1  0  0  0  0
  7  9  1  0  0  0  0
  7 10  1  0  0  0  0
 10 11  1  0  0  0  0
 10 12  1  0  0  0  0
 10 13  1  0  0  0  0
 13 14  1  0  0  0  0
 13 15  1  0  0  0  0
 13 16  1  0  0  0  0
M  END
> <VConfSearch Rank>
476

> <Conf_Id>
20

> <Delta U+W>
-0.010

> <U+W>
-56.914

> <U>
8.277

> <W>
-65.191

> <W(PB)>
-67.081

> <W(SA)>
1.890

> <Valence>
6.513

> <Coulomb>
1.429

> <VdW>
0.335

> <VdW6>
-5.021

> <VdW12>
5.356

> <Bond>
0.092

> <Angle>
2.417

> <Pdih>
4.002

> <Idih>
0.001

> <Tether>
0.000

$$$$
VeraChem MOL file


 16 15  0  0  0  0  0  0  0  0999 V2000     
   20.4533   17.5597   20.8674 C   0  0  0  0  0  0  0  0  0  0  0  0
   20.3054   16.3861   21.1462 O   0  5  0  0  0  0  0  0  0  0  0  0
   21.4823   18.0151   20.4090 O   0  0  0  0  0  0  0  0  0  0  0  0
   19.2710   18.5028   21.0731 C   0  0  0  0  0  0  0  0  0  0  0  0
   18.4000   18.0425   20.5922 H   0  0  0  0  0  0  0  0  0  0  0  0
   19.4668   19.4358   20.5323 H   0  0  0  0  0  0  0  0  0  0  0  0
   18.9404   18.7927   22.5629 C   0  0  0  0  0  0  0  0  0  0  0  0
   18.0337   19.4103   22.6170 H   0  0  0  0  0  0  0  0  0  0  0  0
   18.6971   17.8441   23.0612 H   0  0  0  0  0  0  0  0  0  0  0  0
   20.0788   19.4904   23.3447 C   0  0  0  0  0  0  0  0  0  0  0  0
   20.9825   18.8654   23.3276 H   0  0  0  0  0  0  0  0  0  0  0  0
   19.7816   19.5752   24.3991 H   0  0  0  0  0  0  0  0  0  0  0  0
   20.4129   20.8979   22.8067 C   0  0  0  0  0  0  0  0  0  0  0  0
   20.8322   20.8476   21.7937 H   0  0  0  0  0  0  0  0  0  0  0  0
   21.1561   21.3876   23.4492 H   0  0  0  0  0  0  0  0  0  0  0  0
   19.5176   21.5325   22.7801 H   0  0  0  0  0  0  0  0  0  0  0  0
  1  2  1  0  0  0  0
  1  3  2  0  0  0  0
  1  4  1  0  0  0  0
  4  5  1  0  0  0  0
  4  6  1  0  0  0  0
  4  7  1  0  0  0  0
  7  8  1  0  0  0  0
  7  9  1  0  0  0  0
  7 10  1  0  0  0  0
 10 11  1  0  0  0  0
 10 12  1  0  0  0  0
 10 13  1  0  0  0  0
 13 14  1  0  0  0  0
 13 15  1  0  0  0  0
 13 16  1  0  0  0  0
M  END
> <VConfSearch Rank>
477

> <Conf_Id>
37

> <Delta U+W>
1.063

> <U+W>
-55.841

> <U>
9.719

> <W>
-65.560

> <W(PB)>
-67.414

> <W(SA)>
1.854

> <Valence>
7.002

> <Coulomb>
2.402

> <VdW>
0.314

> <VdW6>
-5.861

> <VdW12>
6.175

> <Bond>
0.134

> <Angle>
2.733

> <Pdih>
4.133

> <Idih>
0.002

> <Tether>
0.000

$$$$
VeraChem MOL file


 16 15  0  0  0  0  0  0  0  0999 V2000     
   18.3007   19.0442   23.2851 C   0  0  0  0  0  0  0  0  0  0  0  0
   18.2340   18.6297   24.4255 O   0  5  0  0  0  0  0  0  0  0  0  0
   17.7641   20.0683   22.9117 O   0  0  0  0  0  0  0  0  0  0  0  0
   19.0712   18.2143   22.2617 C   0  0  0  0  0  0  0  0  0  0  0  0
   18.8115   18.5655   21.2565 H   0  0  0  0  0  0  0  0  0  0  0  0
   18.7035   17.1841   22.3348 H   0  0  0  0  0  0  0  0  0  0  0  0
   20.6112   18.2244   22.4643 C   0  0  0  0  0  0  0  0  0  0  0  0
   20.8388   17.8168   23.4590 H   0  0  0  0  0  0  0  0  0  0  0  0
   21.0744   17.5423   21.7387 H   0  0  0  0  0  0  0  0  0  0  0  0
   21.2621   19.6222   22.3361 C   0  0  0  0  0  0  0  0  0  0  0  0
   22.3308   19.5367   22.5765 H   0  0  0  0  0  0  0  0  0  0  0  0
   20.8314   20.3057   23.0811 H   0  0  0  0  0  0  0  0  0  0  0  0
   21.1162   20.2347   20.9268 C   0  0  0  0  0  0  0  0  0  0  0  0
   21.5076   19.5547   20.1591 H   0  0  0  0  0  0  0  0  0  0  0  0
   21.6729   21.1783   20.8592 H   0  0  0  0  0  0  0  0  0  0  0  0
   20.0659   20.4521   20.6942 H   0  0  0  0  0  0  0  0  0  0  0  0
  1  2  1  0  0  0  0
  1  3  2  0  0  0  0
  1  4  1  0  0  0  0
  4  5  1  0  0  0  0
  4  6  1  0  0  0  0
  4  7  1  0  0  0  0
  7  8  1  0  0  0  0
  7  9  1  0  0  0  0
  7 10  1  0  0  0  0
 10 11  1  0  0  0  0
 10 12  1  0  0  0  0
 10 13  1  0  0  0  0
 13 14  1  0  0  0  0
 13 15  1  0  0  0  0
 13 16  1  0  0  0  0
M  END
> <VConfSearch Rank>
478

> <Conf_Id>
39

> <Delta U+W>
1.129

> <U+W>
-55.775

> <U>
9.718

> <W>
-65.493

> <W(PB)>
-67.361

> <W(SA)>
1.869

> <Valence>
7.002

> <Coulomb>
2.402

> <VdW>
0.314

> <VdW6>
-5.861

> <VdW12>
6.175

> <Bond>
0.134

> <Angle>
2.734

> <Pdih>
4.133

> <Idih>
0.002

> <Tether>
0.000

$$$$
VeraChem MOL file


 16 15  0  0  0  0  0  0  0  0999 V2000     
   21.1070   20.2588   23.3338 C   0  0  0  0  0  0  0  0  0  0  0  0
   21.7310   19.6195   24.1577 O   0  5  0  0  0  0  0  0  0  0  0  0
   20.5153   21.2880   23.5943 O   0  0  0  0  0  0  0  0  0  0  0  0
   21.1443   19.7918   21.8798 C   0  0  0  0  0  0  0  0  0  0  0  0
   21.7810   18.9017   21.8071 H   0  0  0  0  0  0  0  0  0  0  0  0
   21.6480   20.5841   21.3138 H   0  0  0  0  0  0  0  0  0  0  0  0
   19.7570   19.5148   21.2350 C   0  0  0  0  0  0  0  0  0  0  0  0
   19.0583   20.3245   21.4877 H   0  0  0  0  0  0  0  0  0  0  0  0
   19.8776   19.5487   20.1438 H   0  0  0  0  0  0  0  0  0  0  0  0
   19.1364   18.1445   21.5989 C   0  0  0  0  0  0  0  0  0  0  0  0
   19.8387   17.3380   21.3467 H   0  0  0  0  0  0  0  0  0  0  0  0
   18.2484   17.9877   20.9711 H   0  0  0  0  0  0  0  0  0  0  0  0
   18.7164   18.0230   23.0785 C   0  0  0  0  0  0  0  0  0  0  0  0
   19.5898   18.0075   23.7417 H   0  0  0  0  0  0  0  0  0  0  0  0
   18.1598   17.0916   23.2444 H   0  0  0  0  0  0  0  0  0  0  0  0
   18.0722   18.8609   23.3755 H   0  0  0  0  0  0  0  0  0  0  0  0
  1  2  1  0  0  0  0
  1  3  2  0  0  0  0
  1  4  1  0  0  0  0
  4  5  1  0  0  0  0
  4  6  1  0  0  0  0
  4  7  1  0  0  0  0
  7  8  1  0  0  0  0
  7  9  1  0  0  0  0
  7 10  1  0  0  0  0
 10 11  1  0  0  0  0
 10 12  1  0  0  0  0
 10 13  1  0  0  0  0
 13 14  1  0  0  0  0
 13 15  1  0  0  0  0
 13 16  1  0  0  0  0
M  END
> <VConfSearch Rank>
479

> <Conf_Id>
47

> <Delta U+W>
2.301

> <U+W>
-54.603

> <U>
11.258

> <W>
-65.861

> <W(PB)>
-67.702

> <W(SA)>
1.841

> <Valence>
8.169

> <Coulomb>
2.735

> <VdW>
0.355

> <VdW6>
-6.245

> <VdW12>
6.600

> <Bond>
0.149

> <Angle>
3.168

> <Pdih>
4.840

> <Idih>
0.011

> <Tether>
0.000

$$$$
VeraChem MOL file


 16 15  0  0  0  0  0  0  0  0999 V2000     
   19.7667   17.1206   22.2803 C   0  0  0  0  0  0  0  0  0  0  0  0
   18.6282   16.7921   22.0098 O   0  5  0  0  0  0  0  0  0  0  0  0
   20.3947   16.6524   23.2093 O   0  0  0  0  0  0  0  0  0  0  0  0
   20.4770   18.1051   21.3530 C   0  0  0  0  0  0  0  0  0  0  0  0
   20.5247   17.6235   20.3694 H   0  0  0  0  0  0  0  0  0  0  0  0
   21.5128   18.2300   21.6913 H   0  0  0  0  0  0  0  0  0  0  0  0
   19.7893   19.4913   21.2033 C   0  0  0  0  0  0  0  0  0  0  0  0
   20.1573   19.9541   20.2776 H   0  0  0  0  0  0  0  0  0  0  0  0
   18.7069   19.3596   21.0664 H   0  0  0  0  0  0  0  0  0  0  0  0
   20.0618   20.4776   22.3645 C   0  0  0  0  0  0  0  0  0  0  0  0
   19.6679   21.4638   22.0823 H   0  0  0  0  0  0  0  0  0  0  0  0
   21.1447   20.6052   22.4993 H   0  0  0  0  0  0  0  0  0  0  0  0
   19.4180   20.0590   23.7027 C   0  0  0  0  0  0  0  0  0  0  0  0
   19.5251   20.8585   24.4470 H   0  0  0  0  0  0  0  0  0  0  0  0
   19.8962   19.1610   24.1124 H   0  0  0  0  0  0  0  0  0  0  0  0
   18.3469   19.8531   23.5774 H   0  0  0  0  0  0  0  0  0  0  0  0
  1  2  1  0  0  0  0
  1  3  2  0  0  0  0
  1  4  1  0  0  0  0
  4  5  1  0  0  0  0
  4  6  1  0  0  0  0
  4  7  1  0  0  0  0
  7  8  1  0  0  0  0
  7  9  1  0  0  0  0
  7 10  1  0  0  0  0
 10 11  1  0  0  0  0
 10 12  1  0  0  0  0
 10 13  1  0  0  0  0
 13 14  1  0  0  0  0
 13 15  1  0  0  0  0
 13 16  1  0  0  0  0
M  END
> <VConfSearch Rank>
480

> <Conf_Id>
45

> <Delta U+W>
2.303

> <U+W>
-54.601

> <U>
11.258

> <W>
-65.860

> <W(PB)>
-67.709

> <W(SA)>
1.849

> <Valence>
8.169

> <Coulomb>
2.735

> <VdW>
0.355

> <VdW6>
-6.245

> <VdW12>
6.600

> <Bond>
0.149

> <Angle>
3.168

> <Pdih>
4.840

> <Idih>
0.011

> <Tether>
0.000

$$$$
VeraChem MOL file


 16 15  0  0  0  0  0  0  0  0999 V2000     
   21.9379   18.1162   23.6144 C   0  0  0  0  0  0  0  0  0  0  0  0
   22.0680   17.0751   23.0005 O   0  5  0  0  0  0  0  0  0  0  0  0
   22.5761   18.3800   24.6136 O   0  0  0  0  0  0  0  0  0  0  0  0
   20.9319   19.1626   23.1319 C   0  0  0  0  0  0  0  0  0  0  0  0
   21.4849   20.0938   22.9607 H   0  0  0  0  0  0  0  0  0  0  0  0
   20.2344   19.3509   23.9567 H   0  0  0  0  0  0  0  0  0  0  0  0
   20.1396   18.7816   21.8531 C   0  0  0  0  0  0  0  0  0  0  0  0
   20.8437   18.5889   21.0317 H   0  0  0  0  0  0  0  0  0  0  0  0
   19.5920   17.8452   22.0288 H   0  0  0  0  0  0  0  0  0  0  0  0
   19.1506   19.8914   21.4391 C   0  0  0  0  0  0  0  0  0  0  0  0
   19.6972   20.8280   21.2614 H   0  0  0  0  0  0  0  0  0  0  0  0
   18.4447   20.0839   22.2590 H   0  0  0  0  0  0  0  0  0  0  0  0
   18.3668   19.5072   20.1686 C   0  0  0  0  0  0  0  0  0  0  0  0
   19.0471   19.3392   19.3233 H   0  0  0  0  0  0  0  0  0  0  0  0
   17.6686   20.3065   19.8882 H   0  0  0  0  0  0  0  0  0  0  0  0
   17.7854   18.5896   20.3283 H   0  0  0  0  0  0  0  0  0  0  0  0
  1  2  1  0  0  0  0
  1  3  2  0  0  0  0
  1  4  1  0  0  0  0
  4  5  1  0  0  0  0
  4  6  1  0  0  0  0
  4  7  1  0  0  0  0
  7  8  1  0  0  0  0
  7  9  1  0  0  0  0
  7 10  1  0  0  0  0
 10 11  1  0  0  0  0
 10 12  1  0  0  0  0
 10 13  1  0  0  0  0
 13 14  1  0  0  0  0
 13 15  1  0  0  0  0
 13 16  1  0  0  0  0
M  END
> <VConfSearch Rank>
481

> <Conf_Id>
0

> <Delta U+W>
0.000

> <U+W>
-56.904

> <U>
7.329

> <W>
-64.233

> <W(PB)>
-66.148

> <W(SA)>
1.915

> <Valence>
6.755

> <Coulomb>
-0.421

> <VdW>
0.995

> <VdW6>
-4.495

> <VdW12>
5.490

> <Bond>
0.106

> <Angle>
2.715

> <Pdih>
3.934

> <Idih>
0.000

> <Tether>
0.000

$$$$
VeraChem MOL file


 16 15  0  0  0  0  0  0  0  0999 V2000     
   17.5812   20.0806   22.6613 C   0  0  0  0  0  0  0  0  0  0  0  0
   16.8351   19.2545   23.1479 O   0  5  0  0  0  0  0  0  0  0  0  0
   17.5603   21.2597   22.9532 O   0  0  0  0  0  0  0  0  0  0  0  0
   18.6122   19.6087   21.6419 C   0  0  0  0  0  0  0  0  0  0  0  0
   18.7789   20.4212   20.9243 H   0  0  0  0  0  0  0  0  0  0  0  0
   18.1811   18.7680   21.0850 H   0  0  0  0  0  0  0  0  0  0  0  0
   19.9530   19.1870   22.2918 C   0  0  0  0  0  0  0  0  0  0  0  0
   20.3658   20.0351   22.8557 H   0  0  0  0  0  0  0  0  0  0  0  0
   19.7679   18.3819   23.0164 H   0  0  0  0  0  0  0  0  0  0  0  0
   20.9775   18.7142   21.2394 C   0  0  0  0  0  0  0  0  0  0  0  0
   21.1634   19.5193   20.5150 H   0  0  0  0  0  0  0  0  0  0  0  0
   20.5654   17.8657   20.6757 H   0  0  0  0  0  0  0  0  0  0  0  0
   22.3093   18.2961   21.8932 C   0  0  0  0  0  0  0  0  0  0  0  0
   22.1575   17.4700   22.6003 H   0  0  0  0  0  0  0  0  0  0  0  0
   22.7599   19.1359   22.4385 H   0  0  0  0  0  0  0  0  0  0  0  0
   23.0263   17.9628   21.1316 H   0  0  0  0  0  0  0  0  0  0  0  0
  1  2  1  0  0  0  0
  1  3  2  0  0  0  0
  1  4  1  0  0  0  0
  4  5  1  0  0  0  0
  4  6  1  0  0  0  0
  4  7  1  0  0  0  0
  7  8  1  0  0  0  0
  7  9  1  0  0  0  0
  7 10  1  0  0  0  0
 10 11  1  0  0  0  0
 10 12  1  0  0  0  0
 10 13  1  0  0  0  0
 13 14  1  0  0  0  0
 13 15  1  0  0  0  0
 13 16  1  0  0  0  0
M  END
> <VConfSearch Rank>
482

> <Conf_Id>
22

> <Delta U+W>
-1.185

> <U+W>
-58.089

> <U>
6.298

> <W>
-64.387

> <W(PB)>
-66.329

> <W(SA)>
1.942

> <Valence>
6.246

> <Coulomb>
-0.408

> <VdW>
0.460

> <VdW6>
-4.207

> <VdW12>
4.667

> <Bond>
0.072

> <Angle>
2.246

> <Pdih>
3.928

> <Idih>
0.001

> <Tether>
0.000

$$$$
VeraChem MOL file


 16 15  0  0  0  0  0  0  0  0999 V2000     
   17.8009   19.3167   23.3993 C   0  0  0  0  0  0  0  0  0  0  0  0
   16.9808   20.1965   23.2279 O   0  5  0  0  0  0  0  0  0  0  0  0
   17.8959   18.6786   24.4287 O   0  0  0  0  0  0  0  0  0  0  0  0
   18.7765   19.0109   22.2683 C   0  0  0  0  0  0  0  0  0  0  0  0
   18.2640   19.1971   21.3168 H   0  0  0  0  0  0  0  0  0  0  0  0
   19.0096   17.9407   22.3079 H   0  0  0  0  0  0  0  0  0  0  0  0
   20.0750   19.8548   22.3498 C   0  0  0  0  0  0  0  0  0  0  0  0
   19.8026   20.9184   22.3957 H   0  0  0  0  0  0  0  0  0  0  0  0
   20.6012   19.6282   23.2873 H   0  0  0  0  0  0  0  0  0  0  0  0
   21.0267   19.6371   21.1510 C   0  0  0  0  0  0  0  0  0  0  0  0
   21.8620   20.3466   21.2298 H   0  0  0  0  0  0  0  0  0  0  0  0
   20.5043   19.8750   20.2141 H   0  0  0  0  0  0  0  0  0  0  0  0
   21.5962   18.2041   21.0783 C   0  0  0  0  0  0  0  0  0  0  0  0
   20.8059   17.4680   20.8854 H   0  0  0  0  0  0  0  0  0  0  0  0
   22.0987   17.9331   22.0160 H   0  0  0  0  0  0  0  0  0  0  0  0
   22.3303   18.1238   20.2661 H   0  0  0  0  0  0  0  0  0  0  0  0
  1  2  1  0  0  0  0
  1  3  2  0  0  0  0
  1  4  1  0  0  0  0
  4  5  1  0  0  0  0
  4  6  1  0  0  0  0
  4  7  1  0  0  0  0
  7  8  1  0  0  0  0
  7  9  1  0  0  0  0
  7 10  1  0  0  0  0
 10 11  1  0  0  0  0
 10 12  1  0  0  0  0
 10 13  1  0  0  0  0
 13 14  1  0  0  0  0
 13 15  1  0  0  0  0
 13 16  1  0  0  0  0
M  END
> <VConfSearch Rank>
483

> <Conf_Id>
36

> <Delta U+W>
-0.427

> <U+W>
-57.331

> <U>
7.263

> <W>
-64.594

> <W(PB)>
-66.513

> <W(SA)>
1.920

> <Valence>
6.734

> <Coulomb>
-0.068

> <VdW>
0.598

> <VdW6>
-4.819

> <VdW12>
5.417

> <Bond>
0.107

> <Angle>
2.469

> <Pdih>
4.157

> <Idih>
0.001

> <Tether>
0.000

$$$$
VeraChem MOL file


 16 15  0  0  0  0  0  0  0  0999 V2000     
   19.1932   17.5717   20.0815 C   0  0  0  0  0  0  0  0  0  0  0  0
   19.8597   16.5564   20.0516 O   0  5  0  0  0  0  0  0  0  0  0  0
   18.5263   17.9649   19.1452 O   0  0  0  0  0  0  0  0  0  0  0  0
   19.2103   18.4086   21.3558 C   0  0  0  0  0  0  0  0  0  0  0  0
   19.3243   17.7240   22.2040 H   0  0  0  0  0  0  0  0  0  0  0  0
   18.2319   18.8932   21.4580 H   0  0  0  0  0  0  0  0  0  0  0  0
   20.3372   19.4740   21.3602 C   0  0  0  0  0  0  0  0  0  0  0  0
   21.3141   18.9746   21.3004 H   0  0  0  0  0  0  0  0  0  0  0  0
   20.2462   20.0881   20.4535 H   0  0  0  0  0  0  0  0  0  0  0  0
   20.3006   20.4034   22.5952 C   0  0  0  0  0  0  0  0  0  0  0  0
   19.3280   20.9118   22.6486 H   0  0  0  0  0  0  0  0  0  0  0  0
   21.0562   21.1908   22.4673 H   0  0  0  0  0  0  0  0  0  0  0  0
   20.5729   19.6632   23.9222 C   0  0  0  0  0  0  0  0  0  0  0  0
   19.7780   18.9418   24.1493 H   0  0  0  0  0  0  0  0  0  0  0  0
   20.6227   20.3758   24.7557 H   0  0  0  0  0  0  0  0  0  0  0  0
   21.5278   19.1230   23.8820 H   0  0  0  0  0  0  0  0  0  0  0  0
  1  2  1  0  0  0  0
  1  3  2  0  0  0  0
  1  4  1  0  0  0  0
  4  5  1  0  0  0  0
  4  6  1  0  0  0  0
  4  7  1  0  0  0  0
  7  8  1  0  0  0  0
  7  9  1  0  0  0  0
  7 10  1  0  0  0  0
 10 11  1  0  0  0  0
 10 12  1  0  0  0  0
 10 13  1  0  0  0  0
 13 14  1  0  0  0  0
 13 15  1  0  0  0  0
 13 16  1  0  0  0  0
M  END
> <VConfSearch Rank>
484

> <Conf_Id>
17

> <Delta U+W>
-0.432

> <U+W>
-57.336

> <U>
7.263

> <W>
-64.599

> <W(PB)>
-66.503

> <W(SA)>
1.904

> <Valence>
6.734

> <Coulomb>
-0.068

> <VdW>
0.598

> <VdW6>
-4.819

> <VdW12>
5.417

> <Bond>
0.107

> <Angle>
2.469

> <Pdih>
4.157

> <Idih>
0.001

> <Tether>
0.000

$$$$
VeraChem MOL file


 16 15  0  0  0  0  0  0  0  0999 V2000     
   18.6475   18.2786   20.4612 C   0  0  0  0  0  0  0  0  0  0  0  0
   18.8687   17.1223   20.1606 O   0  5  0  0  0  0  0  0  0  0  0  0
   17.5441   18.6978   20.7492 O   0  0  0  0  0  0  0  0  0  0  0  0
   19.8158   19.2607   20.4524 C   0  0  0  0  0  0  0  0  0  0  0  0
   19.4161   20.2805   20.3957 H   0  0  0  0  0  0  0  0  0  0  0  0
   20.3811   19.0900   19.5285 H   0  0  0  0  0  0  0  0  0  0  0  0
   20.7647   19.1252   21.6716 C   0  0  0  0  0  0  0  0  0  0  0  0
   21.1345   18.0921   21.7321 H   0  0  0  0  0  0  0  0  0  0  0  0
   21.6423   19.7664   21.5131 H   0  0  0  0  0  0  0  0  0  0  0  0
   20.0830   19.5153   23.0009 C   0  0  0  0  0  0  0  0  0  0  0  0
   19.2145   18.8662   23.1803 H   0  0  0  0  0  0  0  0  0  0  0  0
   19.7028   20.5441   22.9345 H   0  0  0  0  0  0  0  0  0  0  0  0
   21.0568   19.4042   24.1907 C   0  0  0  0  0  0  0  0  0  0  0  0
   21.4287   18.3768   24.2988 H   0  0  0  0  0  0  0  0  0  0  0  0
   20.5567   19.6839   25.1270 H   0  0  0  0  0  0  0  0  0  0  0  0
   21.9200   20.0692   24.0556 H   0  0  0  0  0  0  0  0  0  0  0  0
  1  2  1  0  0  0  0
  1  3  2  0  0  0  0
  1  4  1  0  0  0  0
  4  5  1  0  0  0  0
  4  6  1  0  0  0  0
  4  7  1  0  0  0  0
  7  8  1  0  0  0  0
  7  9  1  0  0  0  0
  7 10  1  0  0  0  0
 10 11  1  0  0  0  0
 10 12  1  0  0  0  0
 10 13  1  0  0  0  0
 13 14  1  0  0  0  0
 13 15  1  0  0  0  0
 13 16  1  0  0  0  0
M  END
> <VConfSearch Rank>
485

> <Conf_Id>
19

> <Delta U+W>
0.048

> <U+W>
-56.856

> <U>
8.276

> <W>
-65.132

> <W(PB)>
-67.031

> <W(SA)>
1.899

> <Valence>
6.513

> <Coulomb>
1.428

> <VdW>
0.335

> <VdW6>
-5.021

> <VdW12>
5.356

> <Bond>
0.092

> <Angle>
2.417

> <Pdih>
4.003

> <Idih>
0.001

> <Tether>
0.000

$$$$
VeraChem MOL file


 16 15  0  0  0  0  0  0  0  0999 V2000     
   17.9634   18.4871   23.3300 C   0  0  0  0  0  0  0  0  0  0  0  0
   17.1423   19.3701   23.4797 O   0  5  0  0  0  0  0  0  0  0  0  0
   18.3740   17.7916   24.2377 O   0  0  0  0  0  0  0  0  0  0  0  0
   18.4882   18.2236   21.9212 C   0  0  0  0  0  0  0  0  0  0  0  0
   17.6247   18.2146   21.2456 H   0  0  0  0  0  0  0  0  0  0  0  0
   18.9242   17.2175   21.8920 H   0  0  0  0  0  0  0  0  0  0  0  0
   19.5213   19.2688   21.4258 C   0  0  0  0  0  0  0  0  0  0  0  0
   19.7361   19.0824   20.3648 H   0  0  0  0  0  0  0  0  0  0  0  0
   19.0809   20.2737   21.4876 H   0  0  0  0  0  0  0  0  0  0  0  0
   20.8406   19.2258   22.2270 C   0  0  0  0  0  0  0  0  0  0  0  0
   21.2733   18.2171   22.1746 H   0  0  0  0  0  0  0  0  0  0  0  0
   20.6405   19.4313   23.2879 H   0  0  0  0  0  0  0  0  0  0  0  0
   21.8611   20.2503   21.6929 C   0  0  0  0  0  0  0  0  0  0  0  0
   22.1073   20.0487   20.6421 H   0  0  0  0  0  0  0  0  0  0  0  0
   22.7919   20.2073   22.2734 H   0  0  0  0  0  0  0  0  0  0  0  0
   21.4649   21.2718   21.7627 H   0  0  0  0  0  0  0  0  0  0  0  0
  1  2  1  0  0  0  0
  1  3  2  0  0  0  0
  1  4  1  0  0  0  0
  4  5  1  0  0  0  0
  4  6  1  0  0  0  0
  4  7  1  0  0  0  0
  7  8  1  0  0  0  0
  7  9  1  0  0  0  0
  7 10  1  0  0  0  0
 10 11  1  0  0  0  0
 10 12  1  0  0  0  0
 10 13  1  0  0  0  0
 13 14  1  0  0  0  0
 13 15  1  0  0  0  0
 13 16  1  0  0  0  0
M  END
> <VConfSearch Rank>
486

> <Conf_Id>
20

> <Delta U+W>
-0.010

> <U+W>
-56.914

> <U>
8.277

> <W>
-65.191

> <W(PB)>
-67.081

> <W(SA)>
1.890

> <Valence>
6.513

> <Coulomb>
1.429

> <VdW>
0.335

> <VdW6>
-5.021

> <VdW12>
5.356

> <Bond>
0.092

> <Angle>
2.417

> <Pdih>
4.002

> <Idih>
0.001

> <Tether>
0.000

$$$$
VeraChem MOL file


 16 15  0  0  0  0  0  0  0  0999 V2000     
   21.3440   20.6838   21.8433 C   0  0  0  0  0  0  0  0  0  0  0  0
   21.6023   21.1333   20.7442 O   0  5  0  0  0  0  0  0  0  0  0  0
   22.1918   20.3452   22.6452 O   0  0  0  0  0  0  0  0  0  0  0  0
   19.8766   20.5715   22.2482 C   0  0  0  0  0  0  0  0  0  0  0  0
   19.4087   21.5427   22.0487 H   0  0  0  0  0  0  0  0  0  0  0  0
   19.8214   20.4176   23.3319 H   0  0  0  0  0  0  0  0  0  0  0  0
   19.0927   19.4608   21.4968 C   0  0  0  0  0  0  0  0  0  0  0  0
   18.0351   19.5052   21.7900 H   0  0  0  0  0  0  0  0  0  0  0  0
   19.1228   19.6751   20.4195 H   0  0  0  0  0  0  0  0  0  0  0  0
   19.6277   18.0290   21.7368 C   0  0  0  0  0  0  0  0  0  0  0  0
   20.6761   17.9620   21.4146 H   0  0  0  0  0  0  0  0  0  0  0  0
   19.0641   17.3313   21.1021 H   0  0  0  0  0  0  0  0  0  0  0  0
   19.5080   17.5729   23.2065 C   0  0  0  0  0  0  0  0  0  0  0  0
   20.1555   18.1690   23.8622 H   0  0  0  0  0  0  0  0  0  0  0  0
   19.8104   16.5226   23.3080 H   0  0  0  0  0  0  0  0  0  0  0  0
   18.4743   17.6639   23.5645 H   0  0  0  0  0  0  0  0  0  0  0  0
  1  2  1  0  0  0  0
  1  3  2  0  0  0  0
  1  4  1  0  0  0  0
  4  5  1  0  0  0  0
  4  6  1  0  0  0  0
  4  7  1  0  0  0  0
  7  8  1  0  0  0  0
  7  9  1  0  0  0  0
  7 10  1  0  0  0  0
 10 11  1  0  0  0  0
 10 12  1  0  0  0  0
 10 13  1  0  0  0  0
 13 14  1  0  0  0  0
 13 15  1  0  0  0  0
 13 16  1  0  0  0  0
M  END
> <VConfSearch Rank>
487

> <Conf_Id>
37

> <Delta U+W>
1.063

> <U+W>
-55.841

> <U>
9.719

> <W>
-65.560

> <W(PB)>
-67.414

> <W(SA)>
1.854

> <Valence>
7.002

> <Coulomb>
2.402

> <VdW>
0.314

> <VdW6>
-5.861

> <VdW12>
6.175

> <Bond>
0.134

> <Angle>
2.733

> <Pdih>
4.133

> <Idih>
0.002

> <Tether>
0.000

$$$$
VeraChem MOL file


 16 15  0  0  0  0  0  0  0  0999 V2000     
   20.4170   19.2787   24.2989 C   0  0  0  0  0  0  0  0  0  0  0  0
   19.5118   19.1473   25.0990 O   0  5  0  0  0  0  0  0  0  0  0  0
   21.4993   18.7393   24.4169 O   0  0  0  0  0  0  0  0  0  0  0  0
   20.1915   20.1982   23.1017 C   0  0  0  0  0  0  0  0  0  0  0  0
   21.1611   20.4223   22.6424 H   0  0  0  0  0  0  0  0  0  0  0  0
   19.8050   21.1482   23.4891 H   0  0  0  0  0  0  0  0  0  0  0  0
   19.2022   19.6351   22.0448 C   0  0  0  0  0  0  0  0  0  0  0  0
   18.2274   19.4731   22.5253 H   0  0  0  0  0  0  0  0  0  0  0  0
   19.0392   20.3914   21.2652 H   0  0  0  0  0  0  0  0  0  0  0  0
   19.6595   18.3131   21.3838 C   0  0  0  0  0  0  0  0  0  0  0  0
   18.8606   17.9567   20.7191 H   0  0  0  0  0  0  0  0  0  0  0  0
   19.7925   17.5374   22.1507 H   0  0  0  0  0  0  0  0  0  0  0  0
   20.9599   18.4597   20.5653 C   0  0  0  0  0  0  0  0  0  0  0  0
   20.8651   19.2545   19.8140 H   0  0  0  0  0  0  0  0  0  0  0  0
   21.1906   17.5235   20.0408 H   0  0  0  0  0  0  0  0  0  0  0  0
   21.8136   18.6957   21.2134 H   0  0  0  0  0  0  0  0  0  0  0  0
  1  2  1  0  0  0  0
  1  3  2  0  0  0  0
  1  4  1  0  0  0  0
  4  5  1  0  0  0  0
  4  6  1  0  0  0  0
  4  7  1  0  0  0  0
  7  8  1  0  0  0  0
  7  9  1  0  0  0  0
  7 10  1  0  0  0  0
 10 11  1  0  0  0  0
 10 12  1  0  0  0  0
 10 13  1  0  0  0  0
 13 14  1  0  0  0  0
 13 15  1  0  0  0  0
 13 16  1  0  0  0  0
M  END
> <VConfSearch Rank>
488

> <Conf_Id>
39

> <Delta U+W>
1.129

> <U+W>
-55.775

> <U>
9.718

> <W>
-65.493

> <W(PB)>
-67.361

> <W(SA)>
1.869

> <Valence>
7.002

> <Coulomb>
2.402

> <VdW>
0.314

> <VdW6>
-5.861

> <VdW12>
6.175

> <Bond>
0.134

> <Angle>
2.734

> <Pdih>
4.133

> <Idih>
0.002

> <Tether>
0.000

$$$$
VeraChem MOL file


 16 15  0  0  0  0  0  0  0  0999 V2000     
   20.2788   18.0265   20.6181 C   0  0  0  0  0  0  0  0  0  0  0  0
   21.3432   18.3469   20.1271 O   0  5  0  0  0  0  0  0  0  0  0  0
   19.2509   17.9237   19.9777 O   0  0  0  0  0  0  0  0  0  0  0  0
   20.2524   17.6469   22.0976 C   0  0  0  0  0  0  0  0  0  0  0  0
   21.2693   17.7180   22.5024 H   0  0  0  0  0  0  0  0  0  0  0  0
   19.9720   16.5879   22.1397 H   0  0  0  0  0  0  0  0  0  0  0  0
   19.2652   18.4657   22.9762 C   0  0  0  0  0  0  0  0  0  0  0  0
   18.2987   18.5628   22.4624 H   0  0  0  0  0  0  0  0  0  0  0  0
   19.0659   17.8890   23.8895 H   0  0  0  0  0  0  0  0  0  0  0  0
   19.7828   19.8607   23.4026 C   0  0  0  0  0  0  0  0  0  0  0  0
   20.7500   19.7595   23.9140 H   0  0  0  0  0  0  0  0  0  0  0  0
   19.0854   20.2789   24.1416 H   0  0  0  0  0  0  0  0  0  0  0  0
   19.9152   20.8606   22.2351 C   0  0  0  0  0  0  0  0  0  0  0  0
   20.7212   20.5705   21.5502 H   0  0  0  0  0  0  0  0  0  0  0  0
   20.1493   21.8639   22.6137 H   0  0  0  0  0  0  0  0  0  0  0  0
   18.9809   20.9234   21.6620 H   0  0  0  0  0  0  0  0  0  0  0  0
  1  2  1  0  0  0  0
  1  3  2  0  0  0  0
  1  4  1  0  0  0  0
  4  5  1  0  0  0  0
  4  6  1  0  0  0  0
  4  7  1  0  0  0  0
  7  8  1  0  0  0  0
  7  9  1  0  0  0  0
  7 10  1  0  0  0  0
 10 11  1  0  0  0  0
 10 12  1  0  0  0  0
 10 13  1  0  0  0  0
 13 14  1  0  0  0  0
 13 15  1  0  0  0  0
 13 16  1  0  0  0  0
M  END
> <VConfSearch Rank>
489

> <Conf_Id>
47

> <Delta U+W>
2.301

> <U+W>
-54.603

> <U>
11.258

> <W>
-65.861

> <W(PB)>
-67.702

> <W(SA)>
1.841

> <Valence>
8.169

> <Coulomb>
2.735

> <VdW>
0.355

> <VdW6>
-6.245

> <VdW12>
6.600

> <Bond>
0.149

> <Angle>
3.168

> <Pdih>
4.840

> <Idih>
0.011

> <Tether>
0.000

$$$$
VeraChem MOL file


 16 15  0  0  0  0  0  0  0  0999 V2000     
   20.7148   17.4185   22.9035 C   0  0  0  0  0  0  0  0  0  0  0  0
   20.0401   16.4830   22.5205 O   0  5  0  0  0  0  0  0  0  0  0  0
   21.1173   17.5295   24.0448 O   0  0  0  0  0  0  0  0  0  0  0  0
   21.1554   18.4623   21.8788 C   0  0  0  0  0  0  0  0  0  0  0  0
   21.7646   17.9305   21.1387 H   0  0  0  0  0  0  0  0  0  0  0  0
   21.8183   19.1858   22.3688 H   0  0  0  0  0  0  0  0  0  0  0  0
   20.0012   19.2015   21.1450 C   0  0  0  0  0  0  0  0  0  0  0  0
   20.4078   19.6301   20.2190 H   0  0  0  0  0  0  0  0  0  0  0  0
   19.2331   18.4802   20.8330 H   0  0  0  0  0  0  0  0  0  0  0  0
   19.3530   20.3519   21.9525 C   0  0  0  0  0  0  0  0  0  0  0  0
   18.6710   20.9009   21.2886 H   0  0  0  0  0  0  0  0  0  0  0  0
   20.1243   21.0698   22.2640 H   0  0  0  0  0  0  0  0  0  0  0  0
   18.5574   19.8771   23.1860 C   0  0  0  0  0  0  0  0  0  0  0  0
   18.0088   20.7152   23.6350 H   0  0  0  0  0  0  0  0  0  0  0  0
   19.2219   19.4677   23.9566 H   0  0  0  0  0  0  0  0  0  0  0  0
   17.8290   19.1029   22.9113 H   0  0  0  0  0  0  0  0  0  0  0  0
  1  2  1  0  0  0  0
  1  3  2  0  0  0  0
  1  4  1  0  0  0  0
  4  5  1  0  0  0  0
  4  6  1  0  0  0  0
  4  7  1  0  0  0  0
  7  8  1  0  0  0  0
  7  9  1  0  0  0  0
  7 10  1  0  0  0  0
 10 11  1  0  0  0  0
 10 12  1  0  0  0  0
 10 13  1  0  0  0  0
 13 14  1  0  0  0  0
 13 15  1  0  0  0  0
 13 16  1  0  0  0  0
M  END
> <VConfSearch Rank>
490

> <Conf_Id>
45

> <Delta U+W>
2.303

> <U+W>
-54.601

> <U>
11.258

> <W>
-65.860

> <W(PB)>
-67.709

> <W(SA)>
1.849

> <Valence>
8.169

> <Coulomb>
2.735

> <VdW>
0.355

> <VdW6>
-6.245

> <VdW12>
6.600

> <Bond>
0.149

> <Angle>
3.168

> <Pdih>
4.840

> <Idih>
0.011

> <Tether>
0.000

$$$$
VeraChem MOL file


 16 15  0  0  0  0  0  0  0  0999 V2000     
   18.6275   20.5858   23.8238 C   0  0  0  0  0  0  0  0  0  0  0  0
   17.7212   20.8897   23.0728 O   0  5  0  0  0  0  0  0  0  0  0  0
   18.6740   20.9425   24.9839 O   0  0  0  0  0  0  0  0  0  0  0  0
   19.7774   19.7151   23.3144 C   0  0  0  0  0  0  0  0  0  0  0  0
   19.8232   18.8261   23.9545 H   0  0  0  0  0  0  0  0  0  0  0  0
   20.7070   20.2739   23.4748 H   0  0  0  0  0  0  0  0  0  0  0  0
   19.6754   19.2845   21.8269 C   0  0  0  0  0  0  0  0  0  0  0  0
   18.7396   18.7298   21.6712 H   0  0  0  0  0  0  0  0  0  0  0  0
   19.6244   20.1792   21.1910 H   0  0  0  0  0  0  0  0  0  0  0  0
   20.8736   18.4113   21.3992 C   0  0  0  0  0  0  0  0  0  0  0  0
   20.9247   17.5153   22.0332 H   0  0  0  0  0  0  0  0  0  0  0  0
   21.8100   18.9655   21.5527 H   0  0  0  0  0  0  0  0  0  0  0  0
   20.7666   17.9869   19.9211 C   0  0  0  0  0  0  0  0  0  0  0  0
   19.8534   17.4032   19.7453 H   0  0  0  0  0  0  0  0  0  0  0  0
   21.6258   17.3671   19.6334 H   0  0  0  0  0  0  0  0  0  0  0  0
   20.7452   18.8641   19.2612 H   0  0  0  0  0  0  0  0  0  0  0  0
  1  2  1  0  0  0  0
  1  3  2  0  0  0  0
  1  4  1  0  0  0  0
  4  5  1  0  0  0  0
  4  6  1  0  0  0  0
  4  7  1  0  0  0  0
  7  8  1  0  0  0  0
  7  9  1  0  0  0  0
  7 10  1  0  0  0  0
 10 11  1  0  0  0  0
 10 12  1  0  0  0  0
 10 13  1  0  0  0  0
 13 14  1  0  0  0  0
 13 15  1  0  0  0  0
 13 16  1  0  0  0  0
M  END
> <VConfSearch Rank>
491

> <Conf_Id>
0

> <Delta U+W>
0.000

> <U+W>
-56.904

> <U>
7.329

> <W>
-64.233

> <W(PB)>
-66.148

> <W(SA)>
1.915

> <Valence>
6.755

> <Coulomb>
-0.421

> <VdW>
0.995

> <VdW6>
-4.495

> <VdW12>
5.490

> <Bond>
0.106

> <Angle>
2.715

> <Pdih>
3.934

> <Idih>
0.000

> <Tether>
0.000

$$$$
VeraChem MOL file


 16 15  0  0  0  0  0  0  0  0999 V2000     
   17.9392   17.7877   23.0751 C   0  0  0  0  0  0  0  0  0  0  0  0
   17.7359   18.0562   24.2423 O   0  5  0  0  0  0  0  0  0  0  0  0
   17.0640   17.4618   22.2982 O   0  0  0  0  0  0  0  0  0  0  0  0
   19.3683   17.8827   22.5522 C   0  0  0  0  0  0  0  0  0  0  0  0
   19.4952   17.1273   21.7673 H   0  0  0  0  0  0  0  0  0  0  0  0
   20.0491   17.6174   23.3701 H   0  0  0  0  0  0  0  0  0  0  0  0
   19.7167   19.2877   22.0021 C   0  0  0  0  0  0  0  0  0  0  0  0
   19.0190   19.5440   21.1928 H   0  0  0  0  0  0  0  0  0  0  0  0
   19.5729   20.0342   22.7957 H   0  0  0  0  0  0  0  0  0  0  0  0
   21.1669   19.3565   21.4800 C   0  0  0  0  0  0  0  0  0  0  0  0
   21.3110   18.6107   20.6860 H   0  0  0  0  0  0  0  0  0  0  0  0
   21.8650   19.1009   22.2893 H   0  0  0  0  0  0  0  0  0  0  0  0
   21.5066   20.7575   20.9342 C   0  0  0  0  0  0  0  0  0  0  0  0
   21.4012   21.5202   21.7169 H   0  0  0  0  0  0  0  0  0  0  0  0
   20.8431   21.0263   20.1018 H   0  0  0  0  0  0  0  0  0  0  0  0
   22.5408   20.7893   20.5671 H   0  0  0  0  0  0  0  0  0  0  0  0
  1  2  1  0  0  0  0
  1  3  2  0  0  0  0
  1  4  1  0  0  0  0
  4  5  1  0  0  0  0
  4  6  1  0  0  0  0
  4  7  1  0  0  0  0
  7  8  1  0  0  0  0
  7  9  1  0  0  0  0
  7 10  1  0  0  0  0
 10 11  1  0  0  0  0
 10 12  1  0  0  0  0
 10 13  1  0  0  0  0
 13 14  1  0  0  0  0
 13 15  1  0  0  0  0
 13 16  1  0  0  0  0
M  END
> <VConfSearch Rank>
492

> <Conf_Id>
22

> <Delta U+W>
-1.185

> <U+W>
-58.089

> <U>
6.298

> <W>
-64.387

> <W(PB)>
-66.329

> <W(SA)>
1.942

> <Valence>
6.246

> <Coulomb>
-0.408

> <VdW>
0.460

> <VdW6>
-4.207

> <VdW12>
4.667

> <Bond>
0.072

> <Angle>
2.246

> <Pdih>
3.928

> <Idih>
0.001

> <Tether>
0.000

$$$$
VeraChem MOL file


 16 15  0  0  0  0  0  0  0  0999 V2000     
   19.0845   21.0209   23.5407 C   0  0  0  0  0  0  0  0  0  0  0  0
   18.7810   20.8172   24.6994 O   0  5  0  0  0  0  0  0  0  0  0  0
   18.6822   21.9702   22.8982 O   0  0  0  0  0  0  0  0  0  0  0  0
   20.0038   20.0198   22.8501 C   0  0  0  0  0  0  0  0  0  0  0  0
   20.6889   19.6112   23.6026 H   0  0  0  0  0  0  0  0  0  0  0  0
   20.6110   20.5701   22.1224 H   0  0  0  0  0  0  0  0  0  0  0  0
   19.2277   18.8713   22.1546 C   0  0  0  0  0  0  0  0  0  0  0  0
   18.5647   18.3965   22.8911 H   0  0  0  0  0  0  0  0  0  0  0  0
   18.5766   19.2889   21.3742 H   0  0  0  0  0  0  0  0  0  0  0  0
   20.1472   17.7890   21.5435 C   0  0  0  0  0  0  0  0  0  0  0  0
   19.5233   16.9647   21.1712 H   0  0  0  0  0  0  0  0  0  0  0  0
   20.7901   17.3629   22.3261 H   0  0  0  0  0  0  0  0  0  0  0  0
   21.0200   18.3155   20.3842 C   0  0  0  0  0  0  0  0  0  0  0  0
   21.7416   19.0644   20.7338 H   0  0  0  0  0  0  0  0  0  0  0  0
   20.4000   18.7726   19.6020 H   0  0  0  0  0  0  0  0  0  0  0  0
   21.5881   17.4943   19.9283 H   0  0  0  0  0  0  0  0  0  0  0  0
  1  2  1  0  0  0  0
  1  3  2  0  0  0  0
  1  4  1  0  0  0  0
  4  5  1  0  0  0  0
  4  6  1  0  0  0  0
  4  7  1  0  0  0  0
  7  8  1  0  0  0  0
  7  9  1  0  0  0  0
  7 10  1  0  0  0  0
 10 11  1  0  0  0  0
 10 12  1  0  0  0  0
 10 13  1  0  0  0  0
 13 14  1  0  0  0  0
 13 15  1  0  0  0  0
 13 16  1  0  0  0  0
M  END
> <VConfSearch Rank>
493

> <Conf_Id>
36

> <Delta U+W>
-0.427

> <U+W>
-57.331

> <U>
7.263

> <W>
-64.594

> <W(PB)>
-66.513

> <W(SA)>
1.920

> <Valence>
6.734

> <Coulomb>
-0.068

> <VdW>
0.598

> <VdW6>
-4.819

> <VdW12>
5.417

> <Bond>
0.107

> <Angle>
2.469

> <Pdih>
4.157

> <Idih>
0.001

> <Tether>
0.000

$$$$
VeraChem MOL file


 16 15  0  0  0  0  0  0  0  0999 V2000     
   17.6364   18.7585   20.9248 C   0  0  0  0  0  0  0  0  0  0  0  0
   17.4029   17.5735   20.7937 O   0  5  0  0  0  0  0  0  0  0  0  0
   17.0481   19.6302   20.3164 O   0  0  0  0  0  0  0  0  0  0  0  0
   18.7410   19.1737   21.8902 C   0  0  0  0  0  0  0  0  0  0  0  0
   18.7547   18.4506   22.7137 H   0  0  0  0  0  0  0  0  0  0  0  0
   18.4722   20.1475   22.3168 H   0  0  0  0  0  0  0  0  0  0  0  0
   20.1334   19.2536   21.2120 C   0  0  0  0  0  0  0  0  0  0  0  0
   20.4106   18.2628   20.8262 H   0  0  0  0  0  0  0  0  0  0  0  0
   20.0638   19.9183   20.3398 H   0  0  0  0  0  0  0  0  0  0  0  0
   21.2452   19.7788   22.1493 C   0  0  0  0  0  0  0  0  0  0  0  0
   20.9736   20.7747   22.5259 H   0  0  0  0  0  0  0  0  0  0  0  0
   22.1672   19.9081   21.5657 H   0  0  0  0  0  0  0  0  0  0  0  0
   21.5359   18.8362   23.3367 C   0  0  0  0  0  0  0  0  0  0  0  0
   20.6747   18.7658   24.0128 H   0  0  0  0  0  0  0  0  0  0  0  0
   22.3876   19.2073   23.9214 H   0  0  0  0  0  0  0  0  0  0  0  0
   21.7820   17.8257   22.9851 H   0  0  0  0  0  0  0  0  0  0  0  0
  1  2  1  0  0  0  0
  1  3  2  0  0  0  0
  1  4  1  0  0  0  0
  4  5  1  0  0  0  0
  4  6  1  0  0  0  0
  4  7  1  0  0  0  0
  7  8  1  0  0  0  0
  7  9  1  0  0  0  0
  7 10  1  0  0  0  0
 10 11  1  0  0  0  0
 10 12  1  0  0  0  0
 10 13  1  0  0  0  0
 13 14  1  0  0  0  0
 13 15  1  0  0  0  0
 13 16  1  0  0  0  0
M  END
> <VConfSearch Rank>
494

> <Conf_Id>
17

> <Delta U+W>
-0.432

> <U+W>
-57.336

> <U>
7.263

> <W>
-64.599

> <W(PB)>
-66.503

> <W(SA)>
1.904

> <Valence>
6.734

> <Coulomb>
-0.068

> <VdW>
0.598

> <VdW6>
-4.819

> <VdW12>
5.417

> <Bond>
0.107

> <Angle>
2.469

> <Pdih>
4.157

> <Idih>
0.001

> <Tether>
0.000

$$$$
VeraChem MOL file


 16 15  0  0  0  0  0  0  0  0999 V2000     
   22.1095   20.4438   22.0575 C   0  0  0  0  0  0  0  0  0  0  0  0
   22.6736   20.5005   23.1322 O   0  5  0  0  0  0  0  0  0  0  0  0
   22.6765   20.1840   21.0148 O   0  0  0  0  0  0  0  0  0  0  0  0
   20.6126   20.7388   22.0140 C   0  0  0  0  0  0  0  0  0  0  0  0
   20.3345   20.9893   20.9830 H   0  0  0  0  0  0  0  0  0  0  0  0
   20.4376   21.6378   22.6168 H   0  0  0  0  0  0  0  0  0  0  0  0
   19.7248   19.5817   22.5413 C   0  0  0  0  0  0  0  0  0  0  0  0
   20.0335   19.3227   23.5637 H   0  0  0  0  0  0  0  0  0  0  0  0
   18.6850   19.9304   22.6037 H   0  0  0  0  0  0  0  0  0  0  0  0
   19.7877   18.3278   21.6425 C   0  0  0  0  0  0  0  0  0  0  0  0
   20.8211   17.9577   21.5891 H   0  0  0  0  0  0  0  0  0  0  0  0
   19.4907   18.5910   20.6178 H   0  0  0  0  0  0  0  0  0  0  0  0
   18.8711   17.2063   22.1701 C   0  0  0  0  0  0  0  0  0  0  0  0
   19.1662   16.9023   23.1830 H   0  0  0  0  0  0  0  0  0  0  0  0
   18.9283   16.3229   21.5209 H   0  0  0  0  0  0  0  0  0  0  0  0
   17.8245   17.5363   22.2021 H   0  0  0  0  0  0  0  0  0  0  0  0
  1  2  1  0  0  0  0
  1  3  2  0  0  0  0
  1  4  1  0  0  0  0
  4  5  1  0  0  0  0
  4  6  1  0  0  0  0
  4  7  1  0  0  0  0
  7  8  1  0  0  0  0
  7  9  1  0  0  0  0
  7 10  1  0  0  0  0
 10 11  1  0  0  0  0
 10 12  1  0  0  0  0
 10 13  1  0  0  0  0
 13 14  1  0  0  0  0
 13 15  1  0  0  0  0
 13 16  1  0  0  0  0
M  END
> <VConfSearch Rank>
495

> <Conf_Id>
19

> <Delta U+W>
0.048

> <U+W>
-56.856

> <U>
8.276

> <W>
-65.132

> <W(PB)>
-67.031

> <W(SA)>
1.899

> <Valence>
6.513

> <Coulomb>
1.428

> <VdW>
0.335

> <VdW6>
-5.021

> <VdW12>
5.356

> <Bond>
0.092

> <Angle>
2.417

> <Pdih>
4.003

> <Idih>
0.001

> <Tether>
0.000

$$$$
VeraChem MOL file


 16 15  0  0  0  0  0  0  0  0999 V2000     
   19.0770   17.9042   23.9357 C   0  0  0  0  0  0  0  0  0  0  0  0
   19.5507   18.2526   24.9991 O   0  5  0  0  0  0  0  0  0  0  0  0
   19.0310   16.7470   23.5685 O   0  0  0  0  0  0  0  0  0  0  0  0
   18.4876   18.9772   23.0243 C   0  0  0  0  0  0  0  0  0  0  0  0
   17.8704   19.6347   23.6479 H   0  0  0  0  0  0  0  0  0  0  0  0
   17.8124   18.4954   22.3066 H   0  0  0  0  0  0  0  0  0  0  0  0
   19.5496   19.8230   22.2746 C   0  0  0  0  0  0  0  0  0  0  0  0
   19.0458   20.6510   21.7577 H   0  0  0  0  0  0  0  0  0  0  0  0
   20.2354   20.2760   23.0040 H   0  0  0  0  0  0  0  0  0  0  0  0
   20.3513   18.9947   21.2473 C   0  0  0  0  0  0  0  0  0  0  0  0
   19.6633   18.5323   20.5261 H   0  0  0  0  0  0  0  0  0  0  0  0
   20.8766   18.1747   21.7566 H   0  0  0  0  0  0  0  0  0  0  0  0
   21.3756   19.8657   20.4933 C   0  0  0  0  0  0  0  0  0  0  0  0
   20.8756   20.6751   19.9454 H   0  0  0  0  0  0  0  0  0  0  0  0
   21.9371   19.2621   19.7684 H   0  0  0  0  0  0  0  0  0  0  0  0
   22.0955   20.3161   21.1893 H   0  0  0  0  0  0  0  0  0  0  0  0
  1  2  1  0  0  0  0
  1  3  2  0  0  0  0
  1  4  1  0  0  0  0
  4  5  1  0  0  0  0
  4  6  1  0  0  0  0
  4  7  1  0  0  0  0
  7  8  1  0  0  0  0
  7  9  1  0  0  0  0
  7 10  1  0  0  0  0
 10 11  1  0  0  0  0
 10 12  1  0  0  0  0
 10 13  1  0  0  0  0
 13 14  1  0  0  0  0
 13 15  1  0  0  0  0
 13 16  1  0  0  0  0
M  END
> <VConfSearch Rank>
496

> <Conf_Id>
20

> <Delta U+W>
-0.010

> <U+W>
-56.914

> <U>
8.277

> <W>
-65.191

> <W(PB)>
-67.081

> <W(SA)>
1.890

> <Valence>
6.513

> <Coulomb>
1.429

> <VdW>
0.335

> <VdW6>
-5.021

> <VdW12>
5.356

> <Bond>
0.092

> <Angle>
2.417

> <Pdih>
4.002

> <Idih>
0.001

> <Tether>
0.000

$$$$
VeraChem MOL file


 16 15  0  0  0  0  0  0  0  0999 V2000     
   19.4155   20.8556   20.9285 C   0  0  0  0  0  0  0  0  0  0  0  0
   20.2410   21.3965   20.2195 O   0  5  0  0  0  0  0  0  0  0  0  0
   18.6498   21.4638   21.6497 O   0  0  0  0  0  0  0  0  0  0  0  0
   19.3144   19.3333   20.8831 C   0  0  0  0  0  0  0  0  0  0  0  0
   19.2466   19.0430   19.8281 H   0  0  0  0  0  0  0  0  0  0  0  0
   18.3705   19.0292   21.3496 H   0  0  0  0  0  0  0  0  0  0  0  0
   20.5129   18.5965   21.5414 C   0  0  0  0  0  0  0  0  0  0  0  0
   20.3965   17.5146   21.3921 H   0  0  0  0  0  0  0  0  0  0  0  0
   21.4346   18.8824   21.0158 H   0  0  0  0  0  0  0  0  0  0  0  0
   20.6882   18.8860   23.0512 C   0  0  0  0  0  0  0  0  0  0  0  0
   20.8406   19.9625   23.2108 H   0  0  0  0  0  0  0  0  0  0  0  0
   21.6033   18.3889   23.4014 H   0  0  0  0  0  0  0  0  0  0  0  0
   19.4989   18.3995   23.9063 C   0  0  0  0  0  0  0  0  0  0  0  0
   18.5851   18.9608   23.6730 H   0  0  0  0  0  0  0  0  0  0  0  0
   19.7111   18.5405   24.9740 H   0  0  0  0  0  0  0  0  0  0  0  0
   19.3027   17.3326   23.7380 H   0  0  0  0  0  0  0  0  0  0  0  0
  1  2  1  0  0  0  0
  1  3  2  0  0  0  0
  1  4  1  0  0  0  0
  4  5  1  0  0  0  0
  4  6  1  0  0  0  0
  4  7  1  0  0  0  0
  7  8  1  0  0  0  0
  7  9  1  0  0  0  0
  7 10  1  0  0  0  0
 10 11  1  0  0  0  0
 10 12  1  0  0  0  0
 10 13  1  0  0  0  0
 13 14  1  0  0  0  0
 13 15  1  0  0  0  0
 13 16  1  0  0  0  0
M  END
> <VConfSearch Rank>
497

> <Conf_Id>
37

> <Delta U+W>
1.063

> <U+W>
-55.841

> <U>
9.719

> <W>
-65.560

> <W(PB)>
-67.414

> <W(SA)>
1.854

> <Valence>
7.002

> <Coulomb>
2.402

> <VdW>
0.314

> <VdW6>
-5.861

> <VdW12>
6.175

> <Bond>
0.134

> <Angle>
2.733

> <Pdih>
4.133

> <Idih>
0.002

> <Tether>
0.000

$$$$
VeraChem MOL file


 16 15  0  0  0  0  0  0  0  0999 V2000     
   19.4429   17.3488   21.2027 C   0  0  0  0  0  0  0  0  0  0  0  0
   18.6947   17.3599   20.2452 O   0  5  0  0  0  0  0  0  0  0  0  0
   20.4422   16.6603   21.2645 O   0  0  0  0  0  0  0  0  0  0  0  0
   19.0873   18.2205   22.4041 C   0  0  0  0  0  0  0  0  0  0  0  0
   19.6869   17.8978   23.2629 H   0  0  0  0  0  0  0  0  0  0  0  0
   18.0419   18.0116   22.6598 H   0  0  0  0  0  0  0  0  0  0  0  0
   19.2600   19.7443   22.1575 C   0  0  0  0  0  0  0  0  0  0  0  0
   18.6058   20.0436   21.3269 H   0  0  0  0  0  0  0  0  0  0  0  0
   18.9075   20.2943   23.0405 H   0  0  0  0  0  0  0  0  0  0  0  0
   20.7095   20.1777   21.8331 C   0  0  0  0  0  0  0  0  0  0  0  0
   20.7118   21.2503   21.5951 H   0  0  0  0  0  0  0  0  0  0  0  0
   21.0620   19.6600   20.9302 H   0  0  0  0  0  0  0  0  0  0  0  0
   21.6950   19.9230   22.9935 C   0  0  0  0  0  0  0  0  0  0  0  0
   21.3469   20.4011   23.9183 H   0  0  0  0  0  0  0  0  0  0  0  0
   22.6848   20.3318   22.7527 H   0  0  0  0  0  0  0  0  0  0  0  0
   21.8171   18.8490   23.1834 H   0  0  0  0  0  0  0  0  0  0  0  0
  1  2  1  0  0  0  0
  1  3  2  0  0  0  0
  1  4  1  0  0  0  0
  4  5  1  0  0  0  0
  4  6  1  0  0  0  0
  4  7  1  0  0  0  0
  7  8  1  0  0  0  0
  7  9  1  0  0  0  0
  7 10  1  0  0  0  0
 10 11  1  0  0  0  0
 10 12  1  0  0  0  0
 10 13  1  0  0  0  0
 13 14  1  0  0  0  0
 13 15  1  0  0  0  0
 13 16  1  0  0  0  0
M  END
> <VConfSearch Rank>
498

> <Conf_Id>
39

> <Delta U+W>
1.129

> <U+W>
-55.775

> <U>
9.718

> <W>
-65.493

> <W(PB)>
-67.361

> <W(SA)>
1.869

> <Valence>
7.002

> <Coulomb>
2.402

> <VdW>
0.314

> <VdW6>
-5.861

> <VdW12>
6.175

> <Bond>
0.134

> <Angle>
2.734

> <Pdih>
4.133

> <Idih>
0.002

> <Tether>
0.000

$$$$
VeraChem MOL file


 16 15  0  0  0  0  0  0  0  0999 V2000     
   20.5425   17.9365   23.7723 C   0  0  0  0  0  0  0  0  0  0  0  0
   20.0334   16.8337   23.7350 O   0  5  0  0  0  0  0  0  0  0  0  0
   20.5974   18.6138   24.7801 O   0  0  0  0  0  0  0  0  0  0  0  0
   21.2269   18.4578   22.5100 C   0  0  0  0  0  0  0  0  0  0  0  0
   21.1539   17.6962   21.7241 H   0  0  0  0  0  0  0  0  0  0  0  0
   22.2913   18.5553   22.7537 H   0  0  0  0  0  0  0  0  0  0  0  0
   20.7020   19.8240   21.9855 C   0  0  0  0  0  0  0  0  0  0  0  0
   20.5838   20.5261   22.8225 H   0  0  0  0  0  0  0  0  0  0  0  0
   21.4739   20.2563   21.3346 H   0  0  0  0  0  0  0  0  0  0  0  0
   19.3888   19.7428   21.1705 C   0  0  0  0  0  0  0  0  0  0  0  0
   19.5105   19.0385   20.3360 H   0  0  0  0  0  0  0  0  0  0  0  0
   19.1990   20.7263   20.7188 H   0  0  0  0  0  0  0  0  0  0  0  0
   18.1571   19.3448   22.0101 C   0  0  0  0  0  0  0  0  0  0  0  0
   18.2241   18.3037   22.3488 H   0  0  0  0  0  0  0  0  0  0  0  0
   17.2398   19.4395   21.4148 H   0  0  0  0  0  0  0  0  0  0  0  0
   18.0569   19.9895   22.8930 H   0  0  0  0  0  0  0  0  0  0  0  0
  1  2  1  0  0  0  0
  1  3  2  0  0  0  0
  1  4  1  0  0  0  0
  4  5  1  0  0  0  0
  4  6  1  0  0  0  0
  4  7  1  0  0  0  0
  7  8  1  0  0  0  0
  7  9  1  0  0  0  0
  7 10  1  0  0  0  0
 10 11  1  0  0  0  0
 10 12  1  0  0  0  0
 10 13  1  0  0  0  0
 13 14  1  0  0  0  0
 13 15  1  0  0  0  0
 13 16  1  0  0  0  0
M  END
> <VConfSearch Rank>
499

> <Conf_Id>
47

> <Delta U+W>
2.301

> <U+W>
-54.603

> <U>
11.258

> <W>
-65.861

> <W(PB)>
-67.702

> <W(SA)>
1.841

> <Valence>
8.169

> <Coulomb>
2.735

> <VdW>
0.355

> <VdW6>
-6.245

> <VdW12>
6.600

> <Bond>
0.149

> <Angle>
3.168

> <Pdih>
4.840

> <Idih>
0.011

> <Tether>
0.000

$$$$
VeraChem MOL file


 16 15  0  0  0  0  0  0  0  0999 V2000     
   19.8478   18.4290   24.1397 C   0  0  0  0  0  0  0  0  0  0  0  0
   20.9833   18.4360   24.5729 O   0  5  0  0  0  0  0  0  0  0  0  0
   19.0957   17.4809   24.2507 O   0  0  0  0  0  0  0  0  0  0  0  0
   19.3068   19.7078   23.5028 C   0  0  0  0  0  0  0  0  0  0  0  0
   19.3295   20.4758   24.2847 H   0  0  0  0  0  0  0  0  0  0  0  0
   18.2522   19.5578   23.2415 H   0  0  0  0  0  0  0  0  0  0  0  0
   20.0990   20.2216   22.2677 C   0  0  0  0  0  0  0  0  0  0  0  0
   19.8621   21.2854   22.1316 H   0  0  0  0  0  0  0  0  0  0  0  0
   21.1783   20.1751   22.4693 H   0  0  0  0  0  0  0  0  0  0  0  0
   19.7743   19.4924   20.9416 C   0  0  0  0  0  0  0  0  0  0  0  0
   20.2617   20.0340   20.1192 H   0  0  0  0  0  0  0  0  0  0  0  0
   18.6944   19.5395   20.7447 H   0  0  0  0  0  0  0  0  0  0  0  0
   20.2448   18.0235   20.9060 C   0  0  0  0  0  0  0  0  0  0  0  0
   20.1151   17.6031   19.9004 H   0  0  0  0  0  0  0  0  0  0  0  0
   19.6664   17.4019   21.6002 H   0  0  0  0  0  0  0  0  0  0  0  0
   21.3067   17.9431   21.1731 H   0  0  0  0  0  0  0  0  0  0  0  0
  1  2  1  0  0  0  0
  1  3  2  0  0  0  0
  1  4  1  0  0  0  0
  4  5  1  0  0  0  0
  4  6  1  0  0  0  0
  4  7  1  0  0  0  0
  7  8  1  0  0  0  0
  7  9  1  0  0  0  0
  7 10  1  0  0  0  0
 10 11  1  0  0  0  0
 10 12  1  0  0  0  0
 10 13  1  0  0  0  0
 13 14  1  0  0  0  0
 13 15  1  0  0  0  0
 13 16  1  0  0  0  0
M  END
> <VConfSearch Rank>
500

> <Conf_Id>
45

> <Delta U+W>
2.303

> <U+W>
-54.601

> <U>
11.258

> <W>
-65.860

> <W(PB)>
-67.709

> <W(SA)>
1.849

> <Valence>
8.169

> <Coulomb>
2.735

> <VdW>
0.355

> <VdW6>
-6.245

> <VdW12>
6.600

> <Bond>
0.149

> <Angle>
3.168

> <Pdih>
4.840

> <Idih>
0.011

> <Tether>
0.000

$$$$
VeraChem MOL file


 16 15  0  0  0  0  0  0  0  0999 V2000     
   19.5298   16.7923   20.5246 C   0  0  0  0  0  0  0  0  0  0  0  0
   18.8322   17.3260   19.6842 O   0  5  0  0  0  0  0  0  0  0  0  0
   19.7822   15.6042   20.5185 O   0  0  0  0  0  0  0  0  0  0  0  0
   20.1320   17.6284   21.6552 C   0  0  0  0  0  0  0  0  0  0  0  0
   21.2201   17.4999   21.6133 H   0  0  0  0  0  0  0  0  0  0  0  0
   19.7936   17.1908   22.6018 H   0  0  0  0  0  0  0  0  0  0  0  0
   19.7816   19.1398   21.6222 C   0  0  0  0  0  0  0  0  0  0  0  0
   20.1181   19.5715   20.6694 H   0  0  0  0  0  0  0  0  0  0  0  0
   18.6902   19.2620   21.6589 H   0  0  0  0  0  0  0  0  0  0  0  0
   20.4292   19.9044   22.7958 C   0  0  0  0  0  0  0  0  0  0  0  0
   21.5209   19.7845   22.7592 H   0  0  0  0  0  0  0  0  0  0  0  0
   20.0921   19.4749   23.7494 H   0  0  0  0  0  0  0  0  0  0  0  0
   20.0776   21.4048   22.7576 C   0  0  0  0  0  0  0  0  0  0  0  0
   20.4314   21.8675   21.8269 H   0  0  0  0  0  0  0  0  0  0  0  0
   20.5456   21.9333   23.5982 H   0  0  0  0  0  0  0  0  0  0  0  0
   18.9921   21.5556   22.8243 H   0  0  0  0  0  0  0  0  0  0  0  0
  1  2  1  0  0  0  0
  1  3  2  0  0  0  0
  1  4  1  0  0  0  0
  4  5  1  0  0  0  0
  4  6  1  0  0  0  0
  4  7  1  0  0  0  0
  7  8  1  0  0  0  0
  7  9  1  0  0  0  0
  7 10  1  0  0  0  0
 10 11  1  0  0  0  0
 10 12  1  0  0  0  0
 10 13  1  0  0  0  0
 13 14  1  0  0  0  0
 13 15  1  0  0  0  0
 13 16  1  0  0  0  0
M  END
> <VConfSearch Rank>
501

> <Conf_Id>
0

> <Delta U+W>
0.000

> <U+W>
-56.904

> <U>
7.329

> <W>
-64.233

> <W(PB)>
-66.148

> <W(SA)>
1.915

> <Valence>
6.755

> <Coulomb>
-0.421

> <VdW>
0.995

> <VdW6>
-4.495

> <VdW12>
5.490

> <Bond>
0.106

> <Angle>
2.715

> <Pdih>
3.934

> <Idih>
0.000

> <Tether>
0.000

$$$$
VeraChem MOL file


 16 15  0  0  0  0  0  0  0  0999 V2000     
   19.6659   21.6047   20.8612 C   0  0  0  0  0  0  0  0  0  0  0  0
   18.8237   21.6586   19.9873 O   0  5  0  0  0  0  0  0  0  0  0  0
   19.9186   22.5284   21.6088 O   0  0  0  0  0  0  0  0  0  0  0  0
   20.4349   20.3006   21.0414 C   0  0  0  0  0  0  0  0  0  0  0  0
   21.4441   20.5457   21.3939 H   0  0  0  0  0  0  0  0  0  0  0  0
   20.5413   19.8286   20.0571 H   0  0  0  0  0  0  0  0  0  0  0  0
   19.7465   19.3264   22.0289 C   0  0  0  0  0  0  0  0  0  0  0  0
   19.6360   19.8176   23.0057 H   0  0  0  0  0  0  0  0  0  0  0  0
   18.7331   19.1005   21.6689 H   0  0  0  0  0  0  0  0  0  0  0  0
   20.5444   18.0161   22.1929 C   0  0  0  0  0  0  0  0  0  0  0  0
   21.5577   18.2415   22.5535 H   0  0  0  0  0  0  0  0  0  0  0  0
   20.6546   17.5243   21.2164 H   0  0  0  0  0  0  0  0  0  0  0  0
   19.8535   17.0515   23.1769 C   0  0  0  0  0  0  0  0  0  0  0  0
   18.8486   16.7841   22.8245 H   0  0  0  0  0  0  0  0  0  0  0  0
   19.7583   17.5067   24.1715 H   0  0  0  0  0  0  0  0  0  0  0  0
   20.4334   16.1253   23.2821 H   0  0  0  0  0  0  0  0  0  0  0  0
  1  2  1  0  0  0  0
  1  3  2  0  0  0  0
  1  4  1  0  0  0  0
  4  5  1  0  0  0  0
  4  6  1  0  0  0  0
  4  7  1  0  0  0  0
  7  8  1  0  0  0  0
  7  9  1  0  0  0  0
  7 10  1  0  0  0  0
 10 11  1  0  0  0  0
 10 12  1  0  0  0  0
 10 13  1  0  0  0  0
 13 14  1  0  0  0  0
 13 15  1  0  0  0  0
 13 16  1  0  0  0  0
M  END
> <VConfSearch Rank>
502

> <Conf_Id>
22

> <Delta U+W>
-1.185

> <U+W>
-58.089

> <U>
6.298

> <W>
-64.387

> <W(PB)>
-66.329

> <W(SA)>
1.942

> <Valence>
6.246

> <Coulomb>
-0.408

> <VdW>
0.460

> <VdW6>
-4.207

> <VdW12>
4.667

> <Bond>
0.072

> <Angle>
2.246

> <Pdih>
3.928

> <Idih>
0.001

> <Tether>
0.000

$$$$
VeraChem MOL file


 16 15  0  0  0  0  0  0  0  0999 V2000     
   21.4283   19.9299   23.9741 C   0  0  0  0  0  0  0  0  0  0  0  0
   22.6422   19.9343   23.9250 O   0  5  0  0  0  0  0  0  0  0  0  0
   20.7983   19.9263   25.0129 O   0  0  0  0  0  0  0  0  0  0  0  0
   20.6542   19.9072   22.6608 C   0  0  0  0  0  0  0  0  0  0  0  0
   21.2375   20.4567   21.9122 H   0  0  0  0  0  0  0  0  0  0  0  0
   19.7197   20.4588   22.8139 H   0  0  0  0  0  0  0  0  0  0  0  0
   20.3622   18.4688   22.1599 C   0  0  0  0  0  0  0  0  0  0  0  0
   21.3102   17.9164   22.1002 H   0  0  0  0  0  0  0  0  0  0  0  0
   19.7418   17.9424   22.8984 H   0  0  0  0  0  0  0  0  0  0  0  0
   19.6748   18.4269   20.7757 C   0  0  0  0  0  0  0  0  0  0  0  0
   19.6043   17.3806   20.4479 H   0  0  0  0  0  0  0  0  0  0  0  0
   20.3007   18.9431   20.0346 H   0  0  0  0  0  0  0  0  0  0  0  0
   18.2597   19.0437   20.7799 C   0  0  0  0  0  0  0  0  0  0  0  0
   18.2920   20.1197   20.9918 H   0  0  0  0  0  0  0  0  0  0  0  0
   17.6236   18.5624   21.5342 H   0  0  0  0  0  0  0  0  0  0  0  0
   17.7811   18.9123   19.8008 H   0  0  0  0  0  0  0  0  0  0  0  0
  1  2  1  0  0  0  0
  1  3  2  0  0  0  0
  1  4  1  0  0  0  0
  4  5  1  0  0  0  0
  4  6  1  0  0  0  0
  4  7  1  0  0  0  0
  7  8  1  0  0  0  0
  7  9  1  0  0  0  0
  7 10  1  0  0  0  0
 10 11  1  0  0  0  0
 10 12  1  0  0  0  0
 10 13  1  0  0  0  0
 13 14  1  0  0  0  0
 13 15  1  0  0  0  0
 13 16  1  0  0  0  0
M  END
> <VConfSearch Rank>
503

> <Conf_Id>
36

> <Delta U+W>
-0.427

> <U+W>
-57.331

> <U>
7.263

> <W>
-64.594

> <W(PB)>
-66.513

> <W(SA)>
1.920

> <Valence>
6.734

> <Coulomb>
-0.068

> <VdW>
0.598

> <VdW6>
-4.819

> <VdW12>
5.417

> <Bond>
0.107

> <Angle>
2.469

> <Pdih>
4.157

> <Idih>
0.001

> <Tether>
0.000

$$$$
VeraChem MOL file


 16 15  0  0  0  0  0  0  0  0999 V2000     
   19.0485   21.5615   22.0572 C   0  0  0  0  0  0  0  0  0  0  0  0
   18.7307   21.8794   23.1859 O   0  5  0  0  0  0  0  0  0  0  0  0
   18.6548   22.1360   21.0617 O   0  0  0  0  0  0  0  0  0  0  0  0
   19.9756   20.3643   21.8790 C   0  0  0  0  0  0  0  0  0  0  0  0
   20.6546   20.3362   22.7388 H   0  0  0  0  0  0  0  0  0  0  0  0
   20.5882   20.5379   20.9861 H   0  0  0  0  0  0  0  0  0  0  0  0
   19.2074   19.0235   21.7473 C   0  0  0  0  0  0  0  0  0  0  0  0
   18.6312   18.8396   22.6646 H   0  0  0  0  0  0  0  0  0  0  0  0
   18.4750   19.1146   20.9333 H   0  0  0  0  0  0  0  0  0  0  0  0
   20.1257   17.8142   21.4562 C   0  0  0  0  0  0  0  0  0  0  0  0
   20.6934   17.9929   20.5326 H   0  0  0  0  0  0  0  0  0  0  0  0
   19.4986   16.9314   21.2696 H   0  0  0  0  0  0  0  0  0  0  0  0
   21.0997   17.4977   22.6112 C   0  0  0  0  0  0  0  0  0  0  0  0
   21.8228   18.3094   22.7597 H   0  0  0  0  0  0  0  0  0  0  0  0
   21.6669   16.5831   22.3949 H   0  0  0  0  0  0  0  0  0  0  0  0
   20.5561   17.3435   23.5525 H   0  0  0  0  0  0  0  0  0  0  0  0
  1  2  1  0  0  0  0
  1  3  2  0  0  0  0
  1  4  1  0  0  0  0
  4  5  1  0  0  0  0
  4  6  1  0  0  0  0
  4  7  1  0  0  0  0
  7  8  1  0  0  0  0
  7  9  1  0  0  0  0
  7 10  1  0  0  0  0
 10 11  1  0  0  0  0
 10 12  1  0  0  0  0
 10 13  1  0  0  0  0
 13 14  1  0  0  0  0
 13 15  1  0  0  0  0
 13 16  1  0  0  0  0
M  END
> <VConfSearch Rank>
504

> <Conf_Id>
17

> <Delta U+W>
-0.432

> <U+W>
-57.336

> <U>
7.263

> <W>
-64.599

> <W(PB)>
-66.503

> <W(SA)>
1.904

> <Valence>
6.734

> <Coulomb>
-0.068

> <VdW>
0.598

> <VdW6>
-4.819

> <VdW12>
5.417

> <Bond>
0.107

> <Angle>
2.469

> <Pdih>
4.157

> <Idih>
0.001

> <Tether>
0.000

$$$$
VeraChem MOL file


 16 15  0  0  0  0  0  0  0  0999 V2000     
   19.0043   21.1781   21.6977 C   0  0  0  0  0  0  0  0  0  0  0  0
   18.3662   21.1894   20.6638 O   0  5  0  0  0  0  0  0  0  0  0  0
   18.5531   21.5326   22.7687 O   0  0  0  0  0  0  0  0  0  0  0  0
   20.4579   20.7160   21.6415 C   0  0  0  0  0  0  0  0  0  0  0  0
   20.9777   21.0844   22.5343 H   0  0  0  0  0  0  0  0  0  0  0  0
   20.9246   21.2054   20.7784 H   0  0  0  0  0  0  0  0  0  0  0  0
   20.6284   19.1795   21.5192 C   0  0  0  0  0  0  0  0  0  0  0  0
   20.0792   18.8212   20.6373 H   0  0  0  0  0  0  0  0  0  0  0  0
   21.6887   18.9512   21.3456 H   0  0  0  0  0  0  0  0  0  0  0  0
   20.1453   18.4263   22.7776 C   0  0  0  0  0  0  0  0  0  0  0  0
   19.0794   18.6311   22.9496 H   0  0  0  0  0  0  0  0  0  0  0  0
   20.6864   18.7944   23.6603 H   0  0  0  0  0  0  0  0  0  0  0  0
   20.3571   16.9053   22.6434 C   0  0  0  0  0  0  0  0  0  0  0  0
   19.8010   16.5059   21.7851 H   0  0  0  0  0  0  0  0  0  0  0  0
   20.0080   16.3854   23.5451 H   0  0  0  0  0  0  0  0  0  0  0  0
   21.4198   16.6671   22.5047 H   0  0  0  0  0  0  0  0  0  0  0  0
  1  2  1  0  0  0  0
  1  3  2  0  0  0  0
  1  4  1  0  0  0  0
  4  5  1  0  0  0  0
  4  6  1  0  0  0  0
  4  7  1  0  0  0  0
  7  8  1  0  0  0  0
  7  9  1  0  0  0  0
  7 10  1  0  0  0  0
 10 11  1  0  0  0  0
 10 12  1  0  0  0  0
 10 13  1  0  0  0  0
 13 14  1  0  0  0  0
 13 15  1  0  0  0  0
 13 16  1  0  0  0  0
M  END
> <VConfSearch Rank>
505

> <Conf_Id>
19

> <Delta U+W>
0.048

> <U+W>
-56.856

> <U>
8.276

> <W>
-65.132

> <W(PB)>
-67.031

> <W(SA)>
1.899

> <Valence>
6.513

> <Coulomb>
1.428

> <VdW>
0.335

> <VdW6>
-5.021

> <VdW12>
5.356

> <Bond>
0.092

> <Angle>
2.417

> <Pdih>
4.003

> <Idih>
0.001

> <Tether>
0.000

$$$$
VeraChem MOL file


 16 15  0  0  0  0  0  0  0  0999 V2000     
   18.8212   20.9753   23.1980 C   0  0  0  0  0  0  0  0  0  0  0  0
   18.3502   20.6794   24.2783 O   0  5  0  0  0  0  0  0  0  0  0  0
   18.2126   21.5933   22.3471 O   0  0  0  0  0  0  0  0  0  0  0  0
   20.2628   20.5683   22.9055 C   0  0  0  0  0  0  0  0  0  0  0  0
   20.8605   20.8187   23.7900 H   0  0  0  0  0  0  0  0  0  0  0  0
   20.6413   21.1860   22.0819 H   0  0  0  0  0  0  0  0  0  0  0  0
   20.4396   19.0643   22.5710 C   0  0  0  0  0  0  0  0  0  0  0  0
   21.5124   18.8357   22.5135 H   0  0  0  0  0  0  0  0  0  0  0  0
   20.0306   18.4583   23.3915 H   0  0  0  0  0  0  0  0  0  0  0  0
   19.7630   18.6683   21.2408 C   0  0  0  0  0  0  0  0  0  0  0  0
   20.1640   19.2835   20.4235 H   0  0  0  0  0  0  0  0  0  0  0  0
   18.6847   18.8738   21.2941 H   0  0  0  0  0  0  0  0  0  0  0  0
   19.9824   17.1774   20.9158 C   0  0  0  0  0  0  0  0  0  0  0  0
   21.0521   16.9488   20.8220 H   0  0  0  0  0  0  0  0  0  0  0  0
   19.4949   16.9125   19.9685 H   0  0  0  0  0  0  0  0  0  0  0  0
   19.5626   16.5382   21.7035 H   0  0  0  0  0  0  0  0  0  0  0  0
  1  2  1  0  0  0  0
  1  3  2  0  0  0  0
  1  4  1  0  0  0  0
  4  5  1  0  0  0  0
  4  6  1  0  0  0  0
  4  7  1  0  0  0  0
  7  8  1  0  0  0  0
  7  9  1  0  0  0  0
  7 10  1  0  0  0  0
 10 11  1  0  0  0  0
 10 12  1  0  0  0  0
 10 13  1  0  0  0  0
 13 14  1  0  0  0  0
 13 15  1  0  0  0  0
 13 16  1  0  0  0  0
M  END
> <VConfSearch Rank>
506

> <Conf_Id>
20

> <Delta U+W>
-0.010

> <U+W>
-56.914

> <U>
8.277

> <W>
-65.191

> <W(PB)>
-67.081

> <W(SA)>
1.890

> <Valence>
6.513

> <Coulomb>
1.429

> <VdW>
0.335

> <VdW6>
-5.021

> <VdW12>
5.356

> <Bond>
0.092

> <Angle>
2.417

> <Pdih>
4.002

> <Idih>
0.001

> <Tether>
0.000

$$$$
VeraChem MOL file


 16 15  0  0  0  0  0  0  0  0999 V2000     
   18.3511   17.9993   23.1629 C   0  0  0  0  0  0  0  0  0  0  0  0
   17.2015   17.9346   22.7744 O   0  5  0  0  0  0  0  0  0  0  0  0
   18.6566   18.1821   24.3246 O   0  0  0  0  0  0  0  0  0  0  0  0
   19.4682   17.8064   22.1409 C   0  0  0  0  0  0  0  0  0  0  0  0
   19.2434   16.8904   21.5820 H   0  0  0  0  0  0  0  0  0  0  0  0
   20.4066   17.6206   22.6759 H   0  0  0  0  0  0  0  0  0  0  0  0
   19.6303   18.9876   21.1453 C   0  0  0  0  0  0  0  0  0  0  0  0
   20.3967   18.7295   20.4020 H   0  0  0  0  0  0  0  0  0  0  0  0
   18.6909   19.1113   20.5888 H   0  0  0  0  0  0  0  0  0  0  0  0
   19.9989   20.3355   21.8095 C   0  0  0  0  0  0  0  0  0  0  0  0
   19.2214   20.6225   22.5311 H   0  0  0  0  0  0  0  0  0  0  0  0
   20.0084   21.1177   21.0379 H   0  0  0  0  0  0  0  0  0  0  0  0
   21.3732   20.3123   22.5118 C   0  0  0  0  0  0  0  0  0  0  0  0
   21.3693   19.6301   23.3716 H   0  0  0  0  0  0  0  0  0  0  0  0
   21.6310   21.3124   22.8834 H   0  0  0  0  0  0  0  0  0  0  0  0
   22.1639   19.9936   21.8203 H   0  0  0  0  0  0  0  0  0  0  0  0
  1  2  1  0  0  0  0
  1  3  2  0  0  0  0
  1  4  1  0  0  0  0
  4  5  1  0  0  0  0
  4  6  1  0  0  0  0
  4  7  1  0  0  0  0
  7  8  1  0  0  0  0
  7  9  1  0  0  0  0
  7 10  1  0  0  0  0
 10 11  1  0  0  0  0
 10 12  1  0  0  0  0
 10 13  1  0  0  0  0
 13 14  1  0  0  0  0
 13 15  1  0  0  0  0
 13 16  1  0  0  0  0
M  END
> <VConfSearch Rank>
507

> <Conf_Id>
37

> <Delta U+W>
1.063

> <U+W>
-55.841

> <U>
9.719

> <W>
-65.560

> <W(PB)>
-67.414

> <W(SA)>
1.854

> <Valence>
7.002

> <Coulomb>
2.402

> <VdW>
0.314

> <VdW6>
-5.861

> <VdW12>
6.175

> <Bond>
0.134

> <Angle>
2.733

> <Pdih>
4.133

> <Idih>
0.002

> <Tether>
0.000

$$$$
VeraChem MOL file


 16 15  0  0  0  0  0  0  0  0999 V2000     
   21.2969   19.1981   23.9812 C   0  0  0  0  0  0  0  0  0  0  0  0
   22.5046   19.0641   24.0014 O   0  5  0  0  0  0  0  0  0  0  0  0
   20.7089   20.0685   24.5919 O   0  0  0  0  0  0  0  0  0  0  0  0
   20.4753   18.1977   23.1727 C   0  0  0  0  0  0  0  0  0  0  0  0
   19.4242   18.2823   23.4717 H   0  0  0  0  0  0  0  0  0  0  0  0
   20.8019   17.1938   23.4685 H   0  0  0  0  0  0  0  0  0  0  0  0
   20.6208   18.3513   21.6339 C   0  0  0  0  0  0  0  0  0  0  0  0
   21.6760   18.2075   21.3633 H   0  0  0  0  0  0  0  0  0  0  0  0
   20.0631   17.5460   21.1372 H   0  0  0  0  0  0  0  0  0  0  0  0
   20.1447   19.7159   21.0814 C   0  0  0  0  0  0  0  0  0  0  0  0
   20.3645   19.7566   20.0057 H   0  0  0  0  0  0  0  0  0  0  0  0
   20.7199   20.5291   21.5454 H   0  0  0  0  0  0  0  0  0  0  0  0
   18.6358   19.9645   21.2911 C   0  0  0  0  0  0  0  0  0  0  0  0
   18.0389   19.1467   20.8668 H   0  0  0  0  0  0  0  0  0  0  0  0
   18.3291   20.8974   20.8008 H   0  0  0  0  0  0  0  0  0  0  0  0
   18.3917   20.0546   22.3573 H   0  0  0  0  0  0  0  0  0  0  0  0
  1  2  1  0  0  0  0
  1  3  2  0  0  0  0
  1  4  1  0  0  0  0
  4  5  1  0  0  0  0
  4  6  1  0  0  0  0
  4  7  1  0  0  0  0
  7  8  1  0  0  0  0
  7  9  1  0  0  0  0
  7 10  1  0  0  0  0
 10 11  1  0  0  0  0
 10 12  1  0  0  0  0
 10 13  1  0  0  0  0
 13 14  1  0  0  0  0
 13 15  1  0  0  0  0
 13 16  1  0  0  0  0
M  END
> <VConfSearch Rank>
508

> <Conf_Id>
39

> <Delta U+W>
1.129

> <U+W>
-55.775

> <U>
9.718

> <W>
-65.493

> <W(PB)>
-67.361

> <W(SA)>
1.869

> <Valence>
7.002

> <Coulomb>
2.402

> <VdW>
0.314

> <VdW6>
-5.861

> <VdW12>
6.175

> <Bond>
0.134

> <Angle>
2.734

> <Pdih>
4.133

> <Idih>
0.002

> <Tether>
0.000

$$$$
VeraChem MOL file


 16 15  0  0  0  0  0  0  0  0999 V2000     
   18.7005   17.7776   21.3483 C   0  0  0  0  0  0  0  0  0  0  0  0
   18.5813   16.7559   21.9955 O   0  5  0  0  0  0  0  0  0  0  0  0
   18.9532   17.7903   20.1596 O   0  0  0  0  0  0  0  0  0  0  0  0
   18.4296   19.1091   22.0465 C   0  0  0  0  0  0  0  0  0  0  0  0
   18.1401   18.9143   23.0863 H   0  0  0  0  0  0  0  0  0  0  0  0
   17.5522   19.5435   21.5533 H   0  0  0  0  0  0  0  0  0  0  0  0
   19.5964   20.1351   21.9962 C   0  0  0  0  0  0  0  0  0  0  0  0
   20.0182   20.1732   20.9822 H   0  0  0  0  0  0  0  0  0  0  0  0
   19.1790   21.1328   22.1880 H   0  0  0  0  0  0  0  0  0  0  0  0
   20.7209   19.8874   23.0305 C   0  0  0  0  0  0  0  0  0  0  0  0
   20.2949   19.8481   24.0425 H   0  0  0  0  0  0  0  0  0  0  0  0
   21.4022   20.7494   23.0159 H   0  0  0  0  0  0  0  0  0  0  0  0
   21.5436   18.6098   22.7637 C   0  0  0  0  0  0  0  0  0  0  0  0
   20.9437   17.7066   22.9292 H   0  0  0  0  0  0  0  0  0  0  0  0
   22.4068   18.5608   23.4398 H   0  0  0  0  0  0  0  0  0  0  0  0
   21.9187   18.5908   21.7321 H   0  0  0  0  0  0  0  0  0  0  0  0
  1  2  1  0  0  0  0
  1  3  2  0  0  0  0
  1  4  1  0  0  0  0
  4  5  1  0  0  0  0
  4  6  1  0  0  0  0
  4  7  1  0  0  0  0
  7  8  1  0  0  0  0
  7  9  1  0  0  0  0
  7 10  1  0  0  0  0
 10 11  1  0  0  0  0
 10 12  1  0  0  0  0
 10 13  1  0  0  0  0
 13 14  1  0  0  0  0
 13 15  1  0  0  0  0
 13 16  1  0  0  0  0
M  END
> <VConfSearch Rank>
509

> <Conf_Id>
47

> <Delta U+W>
2.301

> <U+W>
-54.603

> <U>
11.258

> <W>
-65.861

> <W(PB)>
-67.702

> <W(SA)>
1.841

> <Valence>
8.169

> <Coulomb>
2.735

> <VdW>
0.355

> <VdW6>
-6.245

> <VdW12>
6.600

> <Bond>
0.149

> <Angle>
3.168

> <Pdih>
4.840

> <Idih>
0.011

> <Tether>
0.000

$$$$
VeraChem MOL file


 16 15  0  0  0  0  0  0  0  0999 V2000     
   17.9571   19.6545   22.1901 C   0  0  0  0  0  0  0  0  0  0  0  0
   17.4494   19.1500   21.2078 O   0  5  0  0  0  0  0  0  0  0  0  0
   17.8181   20.8243   22.4884 O   0  0  0  0  0  0  0  0  0  0  0  0
   18.7352   18.7538   23.1477 C   0  0  0  0  0  0  0  0  0  0  0  0
   18.0212   18.0108   23.5217 H   0  0  0  0  0  0  0  0  0  0  0  0
   19.0544   19.3456   24.0143 H   0  0  0  0  0  0  0  0  0  0  0  0
   19.9522   18.0146   22.5235 C   0  0  0  0  0  0  0  0  0  0  0  0
   20.1936   17.1568   23.1657 H   0  0  0  0  0  0  0  0  0  0  0  0
   19.6741   17.5933   21.5474 H   0  0  0  0  0  0  0  0  0  0  0  0
   21.2311   18.8755   22.3858 C   0  0  0  0  0  0  0  0  0  0  0  0
   22.0611   18.2194   22.0892 H   0  0  0  0  0  0  0  0  0  0  0  0
   21.5046   19.2962   23.3632 H   0  0  0  0  0  0  0  0  0  0  0  0
   21.1103   20.0104   21.3477 C   0  0  0  0  0  0  0  0  0  0  0  0
   22.0833   20.4942   21.1928 H   0  0  0  0  0  0  0  0  0  0  0  0
   20.4072   20.7835   21.6809 H   0  0  0  0  0  0  0  0  0  0  0  0
   20.7653   19.6241   20.3796 H   0  0  0  0  0  0  0  0  0  0  0  0
  1  2  1  0  0  0  0
  1  3  2  0  0  0  0
  1  4  1  0  0  0  0
  4  5  1  0  0  0  0
  4  6  1  0  0  0  0
  4  7  1  0  0  0  0
  7  8  1  0  0  0  0
  7  9  1  0  0  0  0
  7 10  1  0  0  0  0
 10 11  1  0  0  0  0
 10 12  1  0  0  0  0
 10 13  1  0  0  0  0
 13 14  1  0  0  0  0
 13 15  1  0  0  0  0
 13 16  1  0  0  0  0
M  END
> <VConfSearch Rank>
510

> <Conf_Id>
45

> <Delta U+W>
2.303

> <U+W>
-54.601

> <U>
11.258

> <W>
-65.860

> <W(PB)>
-67.709

> <W(SA)>
1.849

> <Valence>
8.169

> <Coulomb>
2.735

> <VdW>
0.355

> <VdW6>
-6.245

> <VdW12>
6.600

> <Bond>
0.149

> <Angle>
3.168

> <Pdih>
4.840

> <Idih>
0.011

> <Tether>
0.000

$$$$
VeraChem MOL file


 16 15  0  0  0  0  0  0  0  0999 V2000     
   22.1208   19.2874   20.1734 C   0  0  0  0  0  0  0  0  0  0  0  0
   21.4206   19.3366   19.1809 O   0  5  0  0  0  0  0  0  0  0  0  0
   23.3343   19.3184   20.1300 O   0  0  0  0  0  0  0  0  0  0  0  0
   21.4741   19.1808   21.5556 C   0  0  0  0  0  0  0  0  0  0  0  0
   21.8259   20.0337   22.1481 H   0  0  0  0  0  0  0  0  0  0  0  0
   21.8675   18.2752   22.0321 H   0  0  0  0  0  0  0  0  0  0  0  0
   19.9226   19.1437   21.5614 C   0  0  0  0  0  0  0  0  0  0  0  0
   19.5343   20.0509   21.0779 H   0  0  0  0  0  0  0  0  0  0  0  0
   19.5760   18.2905   20.9618 H   0  0  0  0  0  0  0  0  0  0  0  0
   19.3569   19.0359   22.9930 C   0  0  0  0  0  0  0  0  0  0  0  0
   19.7013   19.8895   23.5932 H   0  0  0  0  0  0  0  0  0  0  0  0
   19.7431   18.1281   23.4770 H   0  0  0  0  0  0  0  0  0  0  0  0
   17.8159   18.9994   22.9922 C   0  0  0  0  0  0  0  0  0  0  0  0
   17.4017   19.9109   22.5414 H   0  0  0  0  0  0  0  0  0  0  0  0
   17.4302   18.9227   24.0171 H   0  0  0  0  0  0  0  0  0  0  0  0
   17.4437   18.1365   22.4244 H   0  0  0  0  0  0  0  0  0  0  0  0
  1  2  1  0  0  0  0
  1  3  2  0  0  0  0
  1  4  1  0  0  0  0
  4  5  1  0  0  0  0
  4  6  1  0  0  0  0
  4  7  1  0  0  0  0
  7  8  1  0  0  0  0
  7  9  1  0  0  0  0
  7 10  1  0  0  0  0
 10 11  1  0  0  0  0
 10 12  1  0  0  0  0
 10 13  1  0  0  0  0
 13 14  1  0  0  0  0
 13 15  1  0  0  0  0
 13 16  1  0  0  0  0
M  END
> <VConfSearch Rank>
511

> <Conf_Id>
0

> <Delta U+W>
0.000

> <U+W>
-56.904

> <U>
7.329

> <W>
-64.233

> <W(PB)>
-66.148

> <W(SA)>
1.915

> <Valence>
6.755

> <Coulomb>
-0.421

> <VdW>
0.995

> <VdW6>
-4.495

> <VdW12>
5.490

> <Bond>
0.106

> <Angle>
2.715

> <Pdih>
3.934

> <Idih>
0.000

> <Tether>
0.000

$$$$
VeraChem MOL file


 16 15  0  0  0  0  0  0  0  0999 V2000     
   22.1783   17.5256   21.3654 C   0  0  0  0  0  0  0  0  0  0  0  0
   22.1860   16.4566   21.9425 O   0  5  0  0  0  0  0  0  0  0  0  0
   22.6596   17.6977   20.2633 O   0  0  0  0  0  0  0  0  0  0  0  0
   21.5121   18.7115   22.0542 C   0  0  0  0  0  0  0  0  0  0  0  0
   22.0418   19.6230   21.7519 H   0  0  0  0  0  0  0  0  0  0  0  0
   21.6513   18.5997   23.1363 H   0  0  0  0  0  0  0  0  0  0  0  0
   20.0051   18.8341   21.7197 C   0  0  0  0  0  0  0  0  0  0  0  0
   19.8814   18.9329   20.6322 H   0  0  0  0  0  0  0  0  0  0  0  0
   19.4909   17.9095   22.0166 H   0  0  0  0  0  0  0  0  0  0  0  0
   19.3559   20.0410   22.4287 C   0  0  0  0  0  0  0  0  0  0  0  0
   19.8694   20.9659   22.1315 H   0  0  0  0  0  0  0  0  0  0  0  0
   19.4788   19.9423   23.5162 H   0  0  0  0  0  0  0  0  0  0  0  0
   17.8563   20.1567   22.0912 C   0  0  0  0  0  0  0  0  0  0  0  0
   17.3121   19.2568   22.4066 H   0  0  0  0  0  0  0  0  0  0  0  0
   17.7056   20.2880   21.0116 H   0  0  0  0  0  0  0  0  0  0  0  0
   17.4101   21.0194   22.6031 H   0  0  0  0  0  0  0  0  0  0  0  0
  1  2  1  0  0  0  0
  1  3  2  0  0  0  0
  1  4  1  0  0  0  0
  4  5  1  0  0  0  0
  4  6  1  0  0  0  0
  4  7  1  0  0  0  0
  7  8  1  0  0  0  0
  7  9  1  0  0  0  0
  7 10  1  0  0  0  0
 10 11  1  0  0  0  0
 10 12  1  0  0  0  0
 10 13  1  0  0  0  0
 13 14  1  0  0  0  0
 13 15  1  0  0  0  0
 13 16  1  0  0  0  0
M  END
> <VConfSearch Rank>
512

> <Conf_Id>
22

> <Delta U+W>
-1.185

> <U+W>
-58.089

> <U>
6.298

> <W>
-64.387

> <W(PB)>
-66.329

> <W(SA)>
1.942

> <Valence>
6.246

> <Coulomb>
-0.408

> <VdW>
0.460

> <VdW6>
-4.207

> <VdW12>
4.667

> <Bond>
0.072

> <Angle>
2.246

> <Pdih>
3.928

> <Idih>
0.001

> <Tether>
0.000

$$$$
VeraChem MOL file


 16 15  0  0  0  0  0  0  0  0999 V2000     
   21.9709   20.5956   21.2334 C   0  0  0  0  0  0  0  0  0  0  0  0
   23.0313   20.1109   20.8918 O   0  5  0  0  0  0  0  0  0  0  0  0
   21.8470   21.7453   21.6058 O   0  0  0  0  0  0  0  0  0  0  0  0
   20.7325   19.7066   21.2125 C   0  0  0  0  0  0  0  0  0  0  0  0
   20.8441   18.9864   20.3931 H   0  0  0  0  0  0  0  0  0  0  0  0
   19.8703   20.3397   20.9738 H   0  0  0  0  0  0  0  0  0  0  0  0
   20.5058   18.9600   22.5528 C   0  0  0  0  0  0  0  0  0  0  0  0
   21.4193   18.4045   22.8065 H   0  0  0  0  0  0  0  0  0  0  0  0
   20.3529   19.6913   23.3584 H   0  0  0  0  0  0  0  0  0  0  0  0
   19.3181   17.9710   22.5130 C   0  0  0  0  0  0  0  0  0  0  0  0
   19.2950   17.4086   23.4567 H   0  0  0  0  0  0  0  0  0  0  0  0
   19.4764   17.2324   21.7150 H   0  0  0  0  0  0  0  0  0  0  0  0
   17.9540   18.6657   22.3142 C   0  0  0  0  0  0  0  0  0  0  0  0
   17.8891   19.1477   21.3307 H   0  0  0  0  0  0  0  0  0  0  0  0
   17.7861   19.4296   23.0846 H   0  0  0  0  0  0  0  0  0  0  0  0
   17.1379   17.9344   22.3801 H   0  0  0  0  0  0  0  0  0  0  0  0
  1  2  1  0  0  0  0
  1  3  2  0  0  0  0
  1  4  1  0  0  0  0
  4  5  1  0  0  0  0
  4  6  1  0  0  0  0
  4  7  1  0  0  0  0
  7  8  1  0  0  0  0
  7  9  1  0  0  0  0
  7 10  1  0  0  0  0
 10 11  1  0  0  0  0
 10 12  1  0  0  0  0
 10 13  1  0  0  0  0
 13 14  1  0  0  0  0
 13 15  1  0  0  0  0
 13 16  1  0  0  0  0
M  END
> <VConfSearch Rank>
513

> <Conf_Id>
36

> <Delta U+W>
-0.427

> <U+W>
-57.331

> <U>
7.263

> <W>
-64.594

> <W(PB)>
-66.513

> <W(SA)>
1.920

> <Valence>
6.734

> <Coulomb>
-0.068

> <VdW>
0.598

> <VdW6>
-4.819

> <VdW12>
5.417

> <Bond>
0.107

> <Angle>
2.469

> <Pdih>
4.157

> <Idih>
0.001

> <Tether>
0.000

$$$$
VeraChem MOL file


 16 15  0  0  0  0  0  0  0  0999 V2000     
   18.3900   20.3692   23.6368 C   0  0  0  0  0  0  0  0  0  0  0  0
   17.8780   19.5915   24.4172 O   0  5  0  0  0  0  0  0  0  0  0  0
   17.9543   21.4810   23.4136 O   0  0  0  0  0  0  0  0  0  0  0  0
   19.6353   19.9183   22.8814 C   0  0  0  0  0  0  0  0  0  0  0  0
   20.2000   19.2468   23.5382 H   0  0  0  0  0  0  0  0  0  0  0  0
   20.2620   20.7999   22.7012 H   0  0  0  0  0  0  0  0  0  0  0  0
   19.3029   19.2158   21.5394 C   0  0  0  0  0  0  0  0  0  0  0  0
   18.7111   18.3111   21.7360 H   0  0  0  0  0  0  0  0  0  0  0  0
   18.6645   19.8807   20.9413 H   0  0  0  0  0  0  0  0  0  0  0  0
   20.5551   18.8505   20.7094 C   0  0  0  0  0  0  0  0  0  0  0  0
   21.1409   19.7569   20.5026 H   0  0  0  0  0  0  0  0  0  0  0  0
   20.2312   18.4609   19.7344 H   0  0  0  0  0  0  0  0  0  0  0  0
   21.4526   17.7971   21.3932 C   0  0  0  0  0  0  0  0  0  0  0  0
   21.8924   18.1859   22.3201 H   0  0  0  0  0  0  0  0  0  0  0  0
   22.2780   17.5077   20.7299 H   0  0  0  0  0  0  0  0  0  0  0  0
   20.8809   16.8918   21.6358 H   0  0  0  0  0  0  0  0  0  0  0  0
  1  2  1  0  0  0  0
  1  3  2  0  0  0  0
  1  4  1  0  0  0  0
  4  5  1  0  0  0  0
  4  6  1  0  0  0  0
  4  7  1  0  0  0  0
  7  8  1  0  0  0  0
  7  9  1  0  0  0  0
  7 10  1  0  0  0  0
 10 11  1  0  0  0  0
 10 12  1  0  0  0  0
 10 13  1  0  0  0  0
 13 14  1  0  0  0  0
 13 15  1  0  0  0  0
 13 16  1  0  0  0  0
M  END
> <VConfSearch Rank>
514

> <Conf_Id>
17

> <Delta U+W>
-0.432

> <U+W>
-57.336

> <U>
7.263

> <W>
-64.599

> <W(PB)>
-66.503

> <W(SA)>
1.904

> <Valence>
6.734

> <Coulomb>
-0.068

> <VdW>
0.598

> <VdW6>
-4.819

> <VdW12>
5.417

> <Bond>
0.107

> <Angle>
2.469

> <Pdih>
4.157

> <Idih>
0.001

> <Tether>
0.000

$$$$
VeraChem MOL file


 16 15  0  0  0  0  0  0  0  0999 V2000     
   20.4618   21.2801   21.1409 C   0  0  0  0  0  0  0  0  0  0  0  0
   21.5327   21.7797   21.4234 O   0  5  0  0  0  0  0  0  0  0  0  0
   20.0252   21.2243   20.0084 O   0  0  0  0  0  0  0  0  0  0  0  0
   19.6101   20.7145   22.2742 C   0  0  0  0  0  0  0  0  0  0  0  0
   18.5736   20.6303   21.9253 H   0  0  0  0  0  0  0  0  0  0  0  0
   19.6124   21.4516   23.0858 H   0  0  0  0  0  0  0  0  0  0  0  0
   20.1050   19.3480   22.8153 C   0  0  0  0  0  0  0  0  0  0  0  0
   21.1525   19.4404   23.1343 H   0  0  0  0  0  0  0  0  0  0  0  0
   19.5238   19.0875   23.7103 H   0  0  0  0  0  0  0  0  0  0  0  0
   19.9730   18.2143   21.7753 C   0  0  0  0  0  0  0  0  0  0  0  0
   20.5674   18.4548   20.8828 H   0  0  0  0  0  0  0  0  0  0  0  0
   18.9273   18.1314   21.4482 H   0  0  0  0  0  0  0  0  0  0  0  0
   20.4396   16.8620   22.3495 C   0  0  0  0  0  0  0  0  0  0  0  0
   21.4928   16.9084   22.6563 H   0  0  0  0  0  0  0  0  0  0  0  0
   20.3402   16.0680   21.5980 H   0  0  0  0  0  0  0  0  0  0  0  0
   19.8396   16.5781   23.2240 H   0  0  0  0  0  0  0  0  0  0  0  0
  1  2  1  0  0  0  0
  1  3  2  0  0  0  0
  1  4  1  0  0  0  0
  4  5  1  0  0  0  0
  4  6  1  0  0  0  0
  4  7  1  0  0  0  0
  7  8  1  0  0  0  0
  7  9  1  0  0  0  0
  7 10  1  0  0  0  0
 10 11  1  0  0  0  0
 10 12  1  0  0  0  0
 10 13  1  0  0  0  0
 13 14  1  0  0  0  0
 13 15  1  0  0  0  0
 13 16  1  0  0  0  0
M  END
> <VConfSearch Rank>
515

> <Conf_Id>
19

> <Delta U+W>
0.048

> <U+W>
-56.856

> <U>
8.276

> <W>
-65.132

> <W(PB)>
-67.031

> <W(SA)>
1.899

> <Valence>
6.513

> <Coulomb>
1.428

> <VdW>
0.335

> <VdW6>
-5.021

> <VdW12>
5.356

> <Bond>
0.092

> <Angle>
2.417

> <Pdih>
4.003

> <Idih>
0.001

> <Tether>
0.000

$$$$
VeraChem MOL file


 16 15  0  0  0  0  0  0  0  0999 V2000     
   18.8328   17.8989   20.3734 C   0  0  0  0  0  0  0  0  0  0  0  0
   19.2589   16.7648   20.2807 O   0  5  0  0  0  0  0  0  0  0  0  0
   18.7061   18.6478   19.4251 O   0  0  0  0  0  0  0  0  0  0  0  0
   18.4128   18.3995   21.7527 C   0  0  0  0  0  0  0  0  0  0  0  0
   17.8159   17.6080   22.2213 H   0  0  0  0  0  0  0  0  0  0  0  0
   17.7492   19.2634   21.6250 H   0  0  0  0  0  0  0  0  0  0  0  0
   19.5999   18.7692   22.6795 C   0  0  0  0  0  0  0  0  0  0  0  0
   19.2137   18.9826   23.6854 H   0  0  0  0  0  0  0  0  0  0  0  0
   20.2705   17.9039   22.7751 H   0  0  0  0  0  0  0  0  0  0  0  0
   20.3932   19.9918   22.1693 C   0  0  0  0  0  0  0  0  0  0  0  0
   19.7190   20.8528   22.0625 H   0  0  0  0  0  0  0  0  0  0  0  0
   20.8020   19.7820   21.1710 H   0  0  0  0  0  0  0  0  0  0  0  0
   21.5456   20.3582   23.1254 C   0  0  0  0  0  0  0  0  0  0  0  0
   21.1636   20.6070   24.1243 H   0  0  0  0  0  0  0  0  0  0  0  0
   22.0993   21.2277   22.7480 H   0  0  0  0  0  0  0  0  0  0  0  0
   22.2522   19.5239   23.2262 H   0  0  0  0  0  0  0  0  0  0  0  0
  1  2  1  0  0  0  0
  1  3  2  0  0  0  0
  1  4  1  0  0  0  0
  4  5  1  0  0  0  0
  4  6  1  0  0  0  0
  4  7  1  0  0  0  0
  7  8  1  0  0  0  0
  7  9  1  0  0  0  0
  7 10  1  0  0  0  0
 10 11  1  0  0  0  0
 10 12  1  0  0  0  0
 10 13  1  0  0  0  0
 13 14  1  0  0  0  0
 13 15  1  0  0  0  0
 13 16  1  0  0  0  0
M  END
> <VConfSearch Rank>
516

> <Conf_Id>
20

> <Delta U+W>
-0.010

> <U+W>
-56.914

> <U>
8.277

> <W>
-65.191

> <W(PB)>
-67.081

> <W(SA)>
1.890

> <Valence>
6.513

> <Coulomb>
1.429

> <VdW>
0.335

> <VdW6>
-5.021

> <VdW12>
5.356

> <Bond>
0.092

> <Angle>
2.417

> <Pdih>
4.002

> <Idih>
0.001

> <Tether>
0.000

$$$$
VeraChem MOL file


 16 15  0  0  0  0  0  0  0  0999 V2000     
   19.7529   19.5787   24.2779 C   0  0  0  0  0  0  0  0  0  0  0  0
   18.9797   19.0158   25.0276 O   0  5  0  0  0  0  0  0  0  0  0  0
   19.9282   20.7810   24.2750 O   0  0  0  0  0  0  0  0  0  0  0  0
   20.5710   18.7241   23.3134 C   0  0  0  0  0  0  0  0  0  0  0  0
   21.0327   17.9218   23.9008 H   0  0  0  0  0  0  0  0  0  0  0  0
   21.3933   19.3305   22.9167 H   0  0  0  0  0  0  0  0  0  0  0  0
   19.7427   18.1008   22.1566 C   0  0  0  0  0  0  0  0  0  0  0  0
   20.3914   17.4422   21.5634 H   0  0  0  0  0  0  0  0  0  0  0  0
   18.9628   17.4580   22.5877 H   0  0  0  0  0  0  0  0  0  0  0  0
   19.0757   19.1361   21.2200 C   0  0  0  0  0  0  0  0  0  0  0  0
   18.3966   19.7797   21.7964 H   0  0  0  0  0  0  0  0  0  0  0  0
   18.4507   18.6013   20.4917 H   0  0  0  0  0  0  0  0  0  0  0  0
   20.0931   20.0103   20.4563 C   0  0  0  0  0  0  0  0  0  0  0  0
   20.6569   20.6558   21.1418 H   0  0  0  0  0  0  0  0  0  0  0  0
   19.5771   20.6603   19.7379 H   0  0  0  0  0  0  0  0  0  0  0  0
   20.8066   19.3892   19.8994 H   0  0  0  0  0  0  0  0  0  0  0  0
  1  2  1  0  0  0  0
  1  3  2  0  0  0  0
  1  4  1  0  0  0  0
  4  5  1  0  0  0  0
  4  6  1  0  0  0  0
  4  7  1  0  0  0  0
  7  8  1  0  0  0  0
  7  9  1  0  0  0  0
  7 10  1  0  0  0  0
 10 11  1  0  0  0  0
 10 12  1  0  0  0  0
 10 13  1  0  0  0  0
 13 14  1  0  0  0  0
 13 15  1  0  0  0  0
 13 16  1  0  0  0  0
M  END
> <VConfSearch Rank>
517

> <Conf_Id>
37

> <Delta U+W>
1.063

> <U+W>
-55.841

> <U>
9.719

> <W>
-65.560

> <W(PB)>
-67.414

> <W(SA)>
1.854

> <Valence>
7.002

> <Coulomb>
2.402

> <VdW>
0.314

> <VdW6>
-5.861

> <VdW12>
6.175

> <Bond>
0.134

> <Angle>
2.733

> <Pdih>
4.133

> <Idih>
0.002

> <Tether>
0.000

$$$$
VeraChem MOL file


 16 15  0  0  0  0  0  0  0  0999 V2000     
   21.6944   19.1660   20.6926 C   0  0  0  0  0  0  0  0  0  0  0  0
   22.1941   18.1582   20.2326 O   0  5  0  0  0  0  0  0  0  0  0  0
   21.3355   20.1066   20.0124 O   0  0  0  0  0  0  0  0  0  0  0  0
   21.5427   19.2670   22.2080 C   0  0  0  0  0  0  0  0  0  0  0  0
   21.3421   20.3114   22.4728 H   0  0  0  0  0  0  0  0  0  0  0  0
   22.5142   19.0162   22.6498 H   0  0  0  0  0  0  0  0  0  0  0  0
   20.4531   18.3326   22.8017 C   0  0  0  0  0  0  0  0  0  0  0  0
   20.7134   17.2918   22.5643 H   0  0  0  0  0  0  0  0  0  0  0  0
   20.4688   18.4117   23.8971 H   0  0  0  0  0  0  0  0  0  0  0  0
   19.0207   18.6185   22.2914 C   0  0  0  0  0  0  0  0  0  0  0  0
   18.3420   17.8582   22.7019 H   0  0  0  0  0  0  0  0  0  0  0  0
   18.9836   18.5083   21.1986 H   0  0  0  0  0  0  0  0  0  0  0  0
   18.5008   20.0165   22.6883 C   0  0  0  0  0  0  0  0  0  0  0  0
   18.5606   20.1656   23.7742 H   0  0  0  0  0  0  0  0  0  0  0  0
   17.4519   20.1353   22.3873 H   0  0  0  0  0  0  0  0  0  0  0  0
   19.0784   20.8101   22.1973 H   0  0  0  0  0  0  0  0  0  0  0  0
  1  2  1  0  0  0  0
  1  3  2  0  0  0  0
  1  4  1  0  0  0  0
  4  5  1  0  0  0  0
  4  6  1  0  0  0  0
  4  7  1  0  0  0  0
  7  8  1  0  0  0  0
  7  9  1  0  0  0  0
  7 10  1  0  0  0  0
 10 11  1  0  0  0  0
 10 12  1  0  0  0  0
 10 13  1  0  0  0  0
 13 14  1  0  0  0  0
 13 15  1  0  0  0  0
 13 16  1  0  0  0  0
M  END
> <VConfSearch Rank>
518

> <Conf_Id>
39

> <Delta U+W>
1.129

> <U+W>
-55.775

> <U>
9.718

> <W>
-65.493

> <W(PB)>
-67.361

> <W(SA)>
1.869

> <Valence>
7.002

> <Coulomb>
2.402

> <VdW>
0.314

> <VdW6>
-5.861

> <VdW12>
6.175

> <Bond>
0.134

> <Angle>
2.734

> <Pdih>
4.133

> <Idih>
0.002

> <Tether>
0.000

$$$$
VeraChem MOL file


 16 15  0  0  0  0  0  0  0  0999 V2000     
   21.1595   20.3492   23.1537 C   0  0  0  0  0  0  0  0  0  0  0  0
   20.7005   20.7694   24.1976 O   0  5  0  0  0  0  0  0  0  0  0  0
   21.6506   21.0651   22.3031 O   0  0  0  0  0  0  0  0  0  0  0  0
   21.2019   18.8370   22.9417 C   0  0  0  0  0  0  0  0  0  0  0  0
   20.7947   18.3404   23.8308 H   0  0  0  0  0  0  0  0  0  0  0  0
   22.2618   18.5624   22.8874 H   0  0  0  0  0  0  0  0  0  0  0  0
   20.4818   18.3249   21.6625 C   0  0  0  0  0  0  0  0  0  0  0  0
   20.7415   18.9625   20.8060 H   0  0  0  0  0  0  0  0  0  0  0  0
   20.8766   17.3272   21.4277 H   0  0  0  0  0  0  0  0  0  0  0  0
   18.9439   18.2060   21.7895 C   0  0  0  0  0  0  0  0  0  0  0  0
   18.6885   17.5695   22.6479 H   0  0  0  0  0  0  0  0  0  0  0  0
   18.5607   17.6900   20.8983 H   0  0  0  0  0  0  0  0  0  0  0  0
   18.2216   19.5633   21.9167 C   0  0  0  0  0  0  0  0  0  0  0  0
   18.4452   20.0465   22.8756 H   0  0  0  0  0  0  0  0  0  0  0  0
   17.1340   19.4260   21.8623 H   0  0  0  0  0  0  0  0  0  0  0  0
   18.5186   20.2451   21.1090 H   0  0  0  0  0  0  0  0  0  0  0  0
  1  2  1  0  0  0  0
  1  3  2  0  0  0  0
  1  4  1  0  0  0  0
  4  5  1  0  0  0  0
  4  6  1  0  0  0  0
  4  7  1  0  0  0  0
  7  8  1  0  0  0  0
  7  9  1  0  0  0  0
  7 10  1  0  0  0  0
 10 11  1  0  0  0  0
 10 12  1  0  0  0  0
 10 13  1  0  0  0  0
 13 14  1  0  0  0  0
 13 15  1  0  0  0  0
 13 16  1  0  0  0  0
M  END
> <VConfSearch Rank>
519

> <Conf_Id>
47

> <Delta U+W>
2.301

> <U+W>
-54.603

> <U>
11.258

> <W>
-65.861

> <W(PB)>
-67.702

> <W(SA)>
1.841

> <Valence>
8.169

> <Coulomb>
2.735

> <VdW>
0.355

> <VdW6>
-6.245

> <VdW12>
6.600

> <Bond>
0.149

> <Angle>
3.168

> <Pdih>
4.840

> <Idih>
0.011

> <Tether>
0.000

$$$$
VeraChem MOL file


 16 15  0  0  0  0  0  0  0  0999 V2000     
   20.2305   19.1624   24.2284 C   0  0  0  0  0  0  0  0  0  0  0  0
   21.1814   19.8912   24.4332 O   0  5  0  0  0  0  0  0  0  0  0  0
   20.1150   18.0589   24.7242 O   0  0  0  0  0  0  0  0  0  0  0  0
   19.0792   19.6945   23.3770 C   0  0  0  0  0  0  0  0  0  0  0  0
   18.6835   20.5699   23.9051 H   0  0  0  0  0  0  0  0  0  0  0  0
   18.2746   18.9494   23.3591 H   0  0  0  0  0  0  0  0  0  0  0  0
   19.4607   20.1091   21.9280 C   0  0  0  0  0  0  0  0  0  0  0  0
   18.6831   20.7888   21.5541 H   0  0  0  0  0  0  0  0  0  0  0  0
   20.3925   20.6915   21.9382 H   0  0  0  0  0  0  0  0  0  0  0  0
   19.5799   18.9332   20.9287 C   0  0  0  0  0  0  0  0  0  0  0  0
   19.6917   19.3471   19.9171 H   0  0  0  0  0  0  0  0  0  0  0  0
   18.6471   18.3525   20.9229 H   0  0  0  0  0  0  0  0  0  0  0  0
   20.7731   17.9958   21.2079 C   0  0  0  0  0  0  0  0  0  0  0  0
   20.8892   17.2692   20.3934 H   0  0  0  0  0  0  0  0  0  0  0  0
   20.6278   17.4299   22.1361 H   0  0  0  0  0  0  0  0  0  0  0  0
   21.7090   18.5635   21.2924 H   0  0  0  0  0  0  0  0  0  0  0  0
  1  2  1  0  0  0  0
  1  3  2  0  0  0  0
  1  4  1  0  0  0  0
  4  5  1  0  0  0  0
  4  6  1  0  0  0  0
  4  7  1  0  0  0  0
  7  8  1  0  0  0  0
  7  9  1  0  0  0  0
  7 10  1  0  0  0  0
 10 11  1  0  0  0  0
 10 12  1  0  0  0  0
 10 13  1  0  0  0  0
 13 14  1  0  0  0  0
 13 15  1  0  0  0  0
 13 16  1  0  0  0  0
M  END
> <VConfSearch Rank>
520

> <Conf_Id>
45

> <Delta U+W>
2.303

> <U+W>
-54.601

> <U>
11.258

> <W>
-65.860

> <W(PB)>
-67.709

> <W(SA)>
1.849

> <Valence>
8.169

> <Coulomb>
2.735

> <VdW>
0.355

> <VdW6>
-6.245

> <VdW12>
6.600

> <Bond>
0.149

> <Angle>
3.168

> <Pdih>
4.840

> <Idih>
0.011

> <Tether>
0.000

$$$$
VeraChem MOL file


 16 15  0  0  0  0  0  0  0  0999 V2000     
   17.6620   18.9975   20.4651 C   0  0  0  0  0  0  0  0  0  0  0  0
   18.2243   18.9974   19.3873 O   0  5  0  0  0  0  0  0  0  0  0  0
   16.4538   18.9521   20.5818 O   0  0  0  0  0  0  0  0  0  0  0  0
   18.4860   19.0570   21.7525 C   0  0  0  0  0  0  0  0  0  0  0  0
   18.2229   18.1765   22.3505 H   0  0  0  0  0  0  0  0  0  0  0  0
   18.1524   19.9375   22.3142 H   0  0  0  0  0  0  0  0  0  0  0  0
   20.0241   19.1146   21.5540 C   0  0  0  0  0  0  0  0  0  0  0  0
   20.3517   18.2328   20.9860 H   0  0  0  0  0  0  0  0  0  0  0  0
   20.2811   19.9957   20.9497 H   0  0  0  0  0  0  0  0  0  0  0  0
   20.7745   19.1724   22.9012 C   0  0  0  0  0  0  0  0  0  0  0  0
   20.5197   18.2909   23.5058 H   0  0  0  0  0  0  0  0  0  0  0  0
   20.4490   20.0548   23.4695 H   0  0  0  0  0  0  0  0  0  0  0  0
   22.3013   19.2294   22.6975 C   0  0  0  0  0  0  0  0  0  0  0  0
   22.6590   18.3424   22.1583 H   0  0  0  0  0  0  0  0  0  0  0  0
   22.8194   19.2700   23.6645 H   0  0  0  0  0  0  0  0  0  0  0  0
   22.5878   20.1193   22.1217 H   0  0  0  0  0  0  0  0  0  0  0  0
  1  2  1  0  0  0  0
  1  3  2  0  0  0  0
  1  4  1  0  0  0  0
  4  5  1  0  0  0  0
  4  6  1  0  0  0  0
  4  7  1  0  0  0  0
  7  8  1  0  0  0  0
  7  9  1  0  0  0  0
  7 10  1  0  0  0  0
 10 11  1  0  0  0  0
 10 12  1  0  0  0  0
 10 13  1  0  0  0  0
 13 14  1  0  0  0  0
 13 15  1  0  0  0  0
 13 16  1  0  0  0  0
M  END
> <VConfSearch Rank>
521

> <Conf_Id>
0

> <Delta U+W>
0.000

> <U+W>
-56.904

> <U>
7.329

> <W>
-64.233

> <W(PB)>
-66.148

> <W(SA)>
1.915

> <Valence>
6.755

> <Coulomb>
-0.421

> <VdW>
0.995

> <VdW6>
-4.495

> <VdW12>
5.490

> <Bond>
0.106

> <Angle>
2.715

> <Pdih>
3.934

> <Idih>
0.000

> <Tether>
0.000

$$$$
VeraChem MOL file


 16 15  0  0  0  0  0  0  0  0999 V2000     
   22.6461   19.8861   21.6639 C   0  0  0  0  0  0  0  0  0  0  0  0
   22.8084   20.9441   21.0893 O   0  5  0  0  0  0  0  0  0  0  0  0
   23.3935   19.4679   22.5255 O   0  0  0  0  0  0  0  0  0  0  0  0
   21.4281   19.0460   21.2965 C   0  0  0  0  0  0  0  0  0  0  0  0
   21.6939   17.9888   21.4173 H   0  0  0  0  0  0  0  0  0  0  0  0
   21.2115   19.2060   20.2333 H   0  0  0  0  0  0  0  0  0  0  0  0
   20.1823   19.3842   22.1519 C   0  0  0  0  0  0  0  0  0  0  0  0
   20.4187   19.2310   23.2140 H   0  0  0  0  0  0  0  0  0  0  0  0
   19.9363   20.4483   22.0300 H   0  0  0  0  0  0  0  0  0  0  0  0
   18.9651   18.5208   21.7601 C   0  0  0  0  0  0  0  0  0  0  0  0
   19.2105   17.4567   21.8825 H   0  0  0  0  0  0  0  0  0  0  0  0
   18.7279   18.6742   20.6982 H   0  0  0  0  0  0  0  0  0  0  0  0
   17.7291   18.8629   22.6154 C   0  0  0  0  0  0  0  0  0  0  0  0
   17.4422   19.9149   22.4879 H   0  0  0  0  0  0  0  0  0  0  0  0
   17.9283   18.6884   23.6809 H   0  0  0  0  0  0  0  0  0  0  0  0
   16.8730   18.2404   22.3243 H   0  0  0  0  0  0  0  0  0  0  0  0
  1  2  1  0  0  0  0
  1  3  2  0  0  0  0
  1  4  1  0  0  0  0
  4  5  1  0  0  0  0
  4  6  1  0  0  0  0
  4  7  1  0  0  0  0
  7  8  1  0  0  0  0
  7  9  1  0  0  0  0
  7 10  1  0  0  0  0
 10 11  1  0  0  0  0
 10 12  1  0  0  0  0
 10 13  1  0  0  0  0
 13 14  1  0  0  0  0
 13 15  1  0  0  0  0
 13 16  1  0  0  0  0
M  END
> <VConfSearch Rank>
522

> <Conf_Id>
22

> <Delta U+W>
-1.185

> <U+W>
-58.089

> <U>
6.298

> <W>
-64.387

> <W(PB)>
-66.329

> <W(SA)>
1.942

> <Valence>
6.246

> <Coulomb>
-0.408

> <VdW>
0.460

> <VdW6>
-4.207

> <VdW12>
4.667

> <Bond>
0.072

> <Angle>
2.246

> <Pdih>
3.928

> <Idih>
0.001

> <Tether>
0.000

$$$$
VeraChem MOL file


 16 15  0  0  0  0  0  0  0  0999 V2000     
   17.9108   19.2729   20.4186 C   0  0  0  0  0  0  0  0  0  0  0  0
   17.6356   20.2741   19.7879 O   0  5  0  0  0  0  0  0  0  0  0  0
   17.1073   18.3983   20.6744 O   0  0  0  0  0  0  0  0  0  0  0  0
   19.3371   19.1154   20.9340 C   0  0  0  0  0  0  0  0  0  0  0  0
   20.0133   19.5959   20.2167 H   0  0  0  0  0  0  0  0  0  0  0  0
   19.5748   18.0456   20.9385 H   0  0  0  0  0  0  0  0  0  0  0  0
   19.5365   19.7240   22.3464 C   0  0  0  0  0  0  0  0  0  0  0  0
   19.2078   20.7724   22.3289 H   0  0  0  0  0  0  0  0  0  0  0  0
   18.8851   19.2061   23.0639 H   0  0  0  0  0  0  0  0  0  0  0  0
   21.0013   19.6708   22.8382 C   0  0  0  0  0  0  0  0  0  0  0  0
   21.0745   20.2159   23.7894 H   0  0  0  0  0  0  0  0  0  0  0  0
   21.6512   20.1988   22.1267 H   0  0  0  0  0  0  0  0  0  0  0  0
   21.5212   18.2325   23.0476 C   0  0  0  0  0  0  0  0  0  0  0  0
   21.5734   17.6831   22.0993 H   0  0  0  0  0  0  0  0  0  0  0  0
   20.8700   17.6753   23.7337 H   0  0  0  0  0  0  0  0  0  0  0  0
   22.5308   18.2485   23.4782 H   0  0  0  0  0  0  0  0  0  0  0  0
  1  2  1  0  0  0  0
  1  3  2  0  0  0  0
  1  4  1  0  0  0  0
  4  5  1  0  0  0  0
  4  6  1  0  0  0  0
  4  7  1  0  0  0  0
  7  8  1  0  0  0  0
  7  9  1  0  0  0  0
  7 10  1  0  0  0  0
 10 11  1  0  0  0  0
 10 12  1  0  0  0  0
 10 13  1  0  0  0  0
 13 14  1  0  0  0  0
 13 15  1  0  0  0  0
 13 16  1  0  0  0  0
M  END
> <VConfSearch Rank>
523

> <Conf_Id>
36

> <Delta U+W>
-0.427

> <U+W>
-57.331

> <U>
7.263

> <W>
-64.594

> <W(PB)>
-66.513

> <W(SA)>
1.920

> <Valence>
6.734

> <Coulomb>
-0.068

> <VdW>
0.598

> <VdW6>
-4.819

> <VdW12>
5.417

> <Bond>
0.107

> <Angle>
2.469

> <Pdih>
4.157

> <Idih>
0.001

> <Tether>
0.000

$$$$
VeraChem MOL file


 16 15  0  0  0  0  0  0  0  0999 V2000     
   17.9869   19.2651   20.3240 C   0  0  0  0  0  0  0  0  0  0  0  0
   18.3606   19.0760   19.1835 O   0  5  0  0  0  0  0  0  0  0  0  0
   16.9320   19.7982   20.6053 O   0  0  0  0  0  0  0  0  0  0  0  0
   18.8999   18.8280   21.4641 C   0  0  0  0  0  0  0  0  0  0  0  0
   19.4399   17.9327   21.1357 H   0  0  0  0  0  0  0  0  0  0  0  0
   18.2693   18.5348   22.3120 H   0  0  0  0  0  0  0  0  0  0  0  0
   19.8946   19.9365   21.8963 C   0  0  0  0  0  0  0  0  0  0  0  0
   20.5489   20.1916   21.0513 H   0  0  0  0  0  0  0  0  0  0  0  0
   19.3271   20.8465   22.1357 H   0  0  0  0  0  0  0  0  0  0  0  0
   20.7526   19.5493   23.1228 C   0  0  0  0  0  0  0  0  0  0  0  0
   20.0986   19.3055   23.9715 H   0  0  0  0  0  0  0  0  0  0  0  0
   21.3459   20.4221   23.4286 H   0  0  0  0  0  0  0  0  0  0  0  0
   21.7088   18.3689   22.8485 C   0  0  0  0  0  0  0  0  0  0  0  0
   21.1554   17.4427   22.6490 H   0  0  0  0  0  0  0  0  0  0  0  0
   22.3552   18.1890   23.7172 H   0  0  0  0  0  0  0  0  0  0  0  0
   22.3537   18.5782   21.9850 H   0  0  0  0  0  0  0  0  0  0  0  0
  1  2  1  0  0  0  0
  1  3  2  0  0  0  0
  1  4  1  0  0  0  0
  4  5  1  0  0  0  0
  4  6  1  0  0  0  0
  4  7  1  0  0  0  0
  7  8  1  0  0  0  0
  7  9  1  0  0  0  0
  7 10  1  0  0  0  0
 10 11  1  0  0  0  0
 10 12  1  0  0  0  0
 10 13  1  0  0  0  0
 13 14  1  0  0  0  0
 13 15  1  0  0  0  0
 13 16  1  0  0  0  0
M  END
> <VConfSearch Rank>
524

> <Conf_Id>
17

> <Delta U+W>
-0.432

> <U+W>
-57.336

> <U>
7.263

> <W>
-64.599

> <W(PB)>
-66.503

> <W(SA)>
1.904

> <Valence>
6.734

> <Coulomb>
-0.068

> <VdW>
0.598

> <VdW6>
-4.819

> <VdW12>
5.417

> <Bond>
0.107

> <Angle>
2.469

> <Pdih>
4.157

> <Idih>
0.001

> <Tether>
0.000

$$$$
VeraChem MOL file


 16 15  0  0  0  0  0  0  0  0999 V2000     
   17.7814   18.9276   21.9553 C   0  0  0  0  0  0  0  0  0  0  0  0
   17.4022   18.3262   20.9699 O   0  5  0  0  0  0  0  0  0  0  0  0
   17.3925   18.6851   23.0805 O   0  0  0  0  0  0  0  0  0  0  0  0
   18.7819   20.0642   21.7640 C   0  0  0  0  0  0  0  0  0  0  0  0
   18.7532   20.7094   22.6505 H   0  0  0  0  0  0  0  0  0  0  0  0
   18.4327   20.6702   20.9195 H   0  0  0  0  0  0  0  0  0  0  0  0
   20.2336   19.5898   21.4946 C   0  0  0  0  0  0  0  0  0  0  0  0
   20.2425   18.9222   20.6218 H   0  0  0  0  0  0  0  0  0  0  0  0
   20.8503   20.4603   21.2331 H   0  0  0  0  0  0  0  0  0  0  0  0
   20.8584   18.8704   22.7097 C   0  0  0  0  0  0  0  0  0  0  0  0
   20.2606   17.9852   22.9679 H   0  0  0  0  0  0  0  0  0  0  0  0
   20.8375   19.5347   23.5847 H   0  0  0  0  0  0  0  0  0  0  0  0
   22.3113   18.4397   22.4272 C   0  0  0  0  0  0  0  0  0  0  0  0
   22.3573   17.7495   21.5746 H   0  0  0  0  0  0  0  0  0  0  0  0
   22.7399   17.9297   23.2997 H   0  0  0  0  0  0  0  0  0  0  0  0
   22.9418   19.3092   22.1992 H   0  0  0  0  0  0  0  0  0  0  0  0
  1  2  1  0  0  0  0
  1  3  2  0  0  0  0
  1  4  1  0  0  0  0
  4  5  1  0  0  0  0
  4  6  1  0  0  0  0
  4  7  1  0  0  0  0
  7  8  1  0  0  0  0
  7  9  1  0  0  0  0
  7 10  1  0  0  0  0
 10 11  1  0  0  0  0
 10 12  1  0  0  0  0
 10 13  1  0  0  0  0
 13 14  1  0  0  0  0
 13 15  1  0  0  0  0
 13 16  1  0  0  0  0
M  END
> <VConfSearch Rank>
525

> <Conf_Id>
19

> <Delta U+W>
0.048

> <U+W>
-56.856

> <U>
8.276

> <W>
-65.132

> <W(PB)>
-67.031

> <W(SA)>
1.899

> <Valence>
6.513

> <Coulomb>
1.428

> <VdW>
0.335

> <VdW6>
-5.021

> <VdW12>
5.356

> <Bond>
0.092

> <Angle>
2.417

> <Pdih>
4.003

> <Idih>
0.001

> <Tether>
0.000

$$$$
VeraChem MOL file


 16 15  0  0  0  0  0  0  0  0999 V2000     
   19.8875   21.5256   21.9634 C   0  0  0  0  0  0  0  0  0  0  0  0
   19.1794   21.9721   21.0827 O   0  5  0  0  0  0  0  0  0  0  0  0
   21.0405   21.8678   22.1357 O   0  0  0  0  0  0  0  0  0  0  0  0
   19.2869   20.4970   22.9178 C   0  0  0  0  0  0  0  0  0  0  0  0
   18.2988   20.8655   23.2179 H   0  0  0  0  0  0  0  0  0  0  0  0
   19.9011   20.4608   23.8259 H   0  0  0  0  0  0  0  0  0  0  0  0
   19.1466   19.0771   22.3101 C   0  0  0  0  0  0  0  0  0  0  0  0
   18.5836   18.4442   23.0094 H   0  0  0  0  0  0  0  0  0  0  0  0
   18.5536   19.1332   21.3866 H   0  0  0  0  0  0  0  0  0  0  0  0
   20.5123   18.4196   22.0155 C   0  0  0  0  0  0  0  0  0  0  0  0
   21.1089   18.3755   22.9372 H   0  0  0  0  0  0  0  0  0  0  0  0
   21.0766   19.0343   21.3004 H   0  0  0  0  0  0  0  0  0  0  0  0
   20.3447   16.9976   21.4443 C   0  0  0  0  0  0  0  0  0  0  0  0
   19.8132   16.3493   22.1533 H   0  0  0  0  0  0  0  0  0  0  0  0
   21.3238   16.5453   21.2399 H   0  0  0  0  0  0  0  0  0  0  0  0
   19.7771   17.0166   20.5047 H   0  0  0  0  0  0  0  0  0  0  0  0
  1  2  1  0  0  0  0
  1  3  2  0  0  0  0
  1  4  1  0  0  0  0
  4  5  1  0  0  0  0
  4  6  1  0  0  0  0
  4  7  1  0  0  0  0
  7  8  1  0  0  0  0
  7  9  1  0  0  0  0
  7 10  1  0  0  0  0
 10 11  1  0  0  0  0
 10 12  1  0  0  0  0
 10 13  1  0  0  0  0
 13 14  1  0  0  0  0
 13 15  1  0  0  0  0
 13 16  1  0  0  0  0
M  END
> <VConfSearch Rank>
526

> <Conf_Id>
20

> <Delta U+W>
-0.010

> <U+W>
-56.914

> <U>
8.277

> <W>
-65.191

> <W(PB)>
-67.081

> <W(SA)>
1.890

> <Valence>
6.513

> <Coulomb>
1.429

> <VdW>
0.335

> <VdW6>
-5.021

> <VdW12>
5.356

> <Bond>
0.092

> <Angle>
2.417

> <Pdih>
4.002

> <Idih>
0.001

> <Tether>
0.000

$$$$
VeraChem MOL file


 16 15  0  0  0  0  0  0  0  0999 V2000     
   19.9200   18.7605   20.0622 C   0  0  0  0  0  0  0  0  0  0  0  0
   20.8241   18.1512   19.5254 O   0  5  0  0  0  0  0  0  0  0  0  0
   19.4597   19.7974   19.6272 O   0  0  0  0  0  0  0  0  0  0  0  0
   19.3096   18.1720   21.3314 C   0  0  0  0  0  0  0  0  0  0  0  0
   19.0695   17.1232   21.1210 H   0  0  0  0  0  0  0  0  0  0  0  0
   18.3559   18.6747   21.5291 H   0  0  0  0  0  0  0  0  0  0  0  0
   20.2359   18.2459   22.5760 C   0  0  0  0  0  0  0  0  0  0  0  0
   19.7514   17.7311   23.4166 H   0  0  0  0  0  0  0  0  0  0  0  0
   21.1580   17.6877   22.3632 H   0  0  0  0  0  0  0  0  0  0  0  0
   20.6105   19.6838   23.0077 C   0  0  0  0  0  0  0  0  0  0  0  0
   21.1277   20.1986   22.1861 H   0  0  0  0  0  0  0  0  0  0  0  0
   21.3285   19.6269   23.8374 H   0  0  0  0  0  0  0  0  0  0  0  0
   19.3942   20.5204   23.4582 C   0  0  0  0  0  0  0  0  0  0  0  0
   18.7078   20.7069   22.6224 H   0  0  0  0  0  0  0  0  0  0  0  0
   19.7205   21.4953   23.8429 H   0  0  0  0  0  0  0  0  0  0  0  0
   18.8385   20.0103   24.2557 H   0  0  0  0  0  0  0  0  0  0  0  0
  1  2  1  0  0  0  0
  1  3  2  0  0  0  0
  1  4  1  0  0  0  0
  4  5  1  0  0  0  0
  4  6  1  0  0  0  0
  4  7  1  0  0  0  0
  7  8  1  0  0  0  0
  7  9  1  0  0  0  0
  7 10  1  0  0  0  0
 10 11  1  0  0  0  0
 10 12  1  0  0  0  0
 10 13  1  0  0  0  0
 13 14  1  0  0  0  0
 13 15  1  0  0  0  0
 13 16  1  0  0  0  0
M  END
> <VConfSearch Rank>
527

> <Conf_Id>
37

> <Delta U+W>
1.063

> <U+W>
-55.841

> <U>
9.719

> <W>
-65.560

> <W(PB)>
-67.414

> <W(SA)>
1.854

> <Valence>
7.002

> <Coulomb>
2.402

> <VdW>
0.314

> <VdW6>
-5.861

> <VdW12>
6.175

> <Bond>
0.134

> <Angle>
2.733

> <Pdih>
4.133

> <Idih>
0.002

> <Tether>
0.000

$$$$
VeraChem MOL file


 16 15  0  0  0  0  0  0  0  0999 V2000     
   22.1364   19.9012   21.9854 C   0  0  0  0  0  0  0  0  0  0  0  0
   22.4192   20.8597   21.2940 O   0  5  0  0  0  0  0  0  0  0  0  0
   22.5382   19.7533   23.1225 O   0  0  0  0  0  0  0  0  0  0  0  0
   21.2582   18.8102   21.3787 C   0  0  0  0  0  0  0  0  0  0  0  0
   21.3232   17.9154   22.0082 H   0  0  0  0  0  0  0  0  0  0  0  0
   21.6962   18.5407   20.4105 H   0  0  0  0  0  0  0  0  0  0  0  0
   19.7764   19.2280   21.1724 C   0  0  0  0  0  0  0  0  0  0  0  0
   19.7447   20.0925   20.4950 H   0  0  0  0  0  0  0  0  0  0  0  0
   19.2413   18.4165   20.6612 H   0  0  0  0  0  0  0  0  0  0  0  0
   19.0277   19.5881   22.4777 C   0  0  0  0  0  0  0  0  0  0  0  0
   18.0219   19.9471   22.2195 H   0  0  0  0  0  0  0  0  0  0  0  0
   19.5341   20.4231   22.9817 H   0  0  0  0  0  0  0  0  0  0  0  0
   18.8968   18.3985   23.4524 C   0  0  0  0  0  0  0  0  0  0  0  0
   18.4251   17.5371   22.9619 H   0  0  0  0  0  0  0  0  0  0  0  0
   18.2792   18.6765   24.3161 H   0  0  0  0  0  0  0  0  0  0  0  0
   19.8776   18.0861   23.8331 H   0  0  0  0  0  0  0  0  0  0  0  0
  1  2  1  0  0  0  0
  1  3  2  0  0  0  0
  1  4  1  0  0  0  0
  4  5  1  0  0  0  0
  4  6  1  0  0  0  0
  4  7  1  0  0  0  0
  7  8  1  0  0  0  0
  7  9  1  0  0  0  0
  7 10  1  0  0  0  0
 10 11  1  0  0  0  0
 10 12  1  0  0  0  0
 10 13  1  0  0  0  0
 13 14  1  0  0  0  0
 13 15  1  0  0  0  0
 13 16  1  0  0  0  0
M  END
> <VConfSearch Rank>
528

> <Conf_Id>
39

> <Delta U+W>
1.129

> <U+W>
-55.775

> <U>
9.718

> <W>
-65.493

> <W(PB)>
-67.361

> <W(SA)>
1.869

> <Valence>
7.002

> <Coulomb>
2.402

> <VdW>
0.314

> <VdW6>
-5.861

> <VdW12>
6.175

> <Bond>
0.134

> <Angle>
2.734

> <Pdih>
4.133

> <Idih>
0.002

> <Tether>
0.000

$$$$
VeraChem MOL file


 16 15  0  0  0  0  0  0  0  0999 V2000     
   17.9943   19.2540   22.8388 C   0  0  0  0  0  0  0  0  0  0  0  0
   17.8905   19.2029   24.0485 O   0  5  0  0  0  0  0  0  0  0  0  0
   17.3012   18.6049   22.0802 O   0  0  0  0  0  0  0  0  0  0  0  0
   18.9848   20.2521   22.2417 C   0  0  0  0  0  0  0  0  0  0  0  0
   19.4664   20.8074   23.0558 H   0  0  0  0  0  0  0  0  0  0  0  0
   18.3888   20.9784   21.6769 H   0  0  0  0  0  0  0  0  0  0  0  0
   20.0591   19.6394   21.2996 C   0  0  0  0  0  0  0  0  0  0  0  0
   19.5893   18.9216   20.6127 H   0  0  0  0  0  0  0  0  0  0  0  0
   20.4566   20.4460   20.6689 H   0  0  0  0  0  0  0  0  0  0  0  0
   21.2540   18.9758   22.0258 C   0  0  0  0  0  0  0  0  0  0  0  0
   21.7195   19.6959   22.7128 H   0  0  0  0  0  0  0  0  0  0  0  0
   22.0187   18.7244   21.2780 H   0  0  0  0  0  0  0  0  0  0  0  0
   20.8813   17.6912   22.7947 C   0  0  0  0  0  0  0  0  0  0  0  0
   20.2451   17.9139   23.6600 H   0  0  0  0  0  0  0  0  0  0  0  0
   21.7844   17.1923   23.1692 H   0  0  0  0  0  0  0  0  0  0  0  0
   20.3472   16.9845   22.1462 H   0  0  0  0  0  0  0  0  0  0  0  0
  1  2  1  0  0  0  0
  1  3  2  0  0  0  0
  1  4  1  0  0  0  0
  4  5  1  0  0  0  0
  4  6  1  0  0  0  0
  4  7  1  0  0  0  0
  7  8  1  0  0  0  0
  7  9  1  0  0  0  0
  7 10  1  0  0  0  0
 10 11  1  0  0  0  0
 10 12  1  0  0  0  0
 10 13  1  0  0  0  0
 13 14  1  0  0  0  0
 13 15  1  0  0  0  0
 13 16  1  0  0  0  0
M  END
> <VConfSearch Rank>
529

> <Conf_Id>
47

> <Delta U+W>
2.301

> <U+W>
-54.603

> <U>
11.258

> <W>
-65.861

> <W(PB)>
-67.702

> <W(SA)>
1.841

> <Valence>
8.169

> <Coulomb>
2.735

> <VdW>
0.355

> <VdW6>
-6.245

> <VdW12>
6.600

> <Bond>
0.149

> <Angle>
3.168

> <Pdih>
4.840

> <Idih>
0.011

> <Tether>
0.000

$$$$
VeraChem MOL file


 16 15  0  0  0  0  0  0  0  0999 V2000     
   21.3420   20.2407   23.0143 C   0  0  0  0  0  0  0  0  0  0  0  0
   20.8460   21.1656   23.6273 O   0  5  0  0  0  0  0  0  0  0  0  0
   22.2450   20.3777   22.2127 O   0  0  0  0  0  0  0  0  0  0  0  0
   20.8693   18.8233   23.3326 C   0  0  0  0  0  0  0  0  0  0  0  0
   21.1044   18.6493   24.3891 H   0  0  0  0  0  0  0  0  0  0  0  0
   21.4696   18.1090   22.7562 H   0  0  0  0  0  0  0  0  0  0  0  0
   19.3542   18.5610   23.1030 C   0  0  0  0  0  0  0  0  0  0  0  0
   19.0711   17.6752   23.6876 H   0  0  0  0  0  0  0  0  0  0  0  0
   18.7640   19.3937   23.5103 H   0  0  0  0  0  0  0  0  0  0  0  0
   18.9587   18.3001   21.6296 C   0  0  0  0  0  0  0  0  0  0  0  0
   17.9104   17.9719   21.6043 H   0  0  0  0  0  0  0  0  0  0  0  0
   19.5521   17.4683   21.2257 H   0  0  0  0  0  0  0  0  0  0  0  0
   19.1064   19.5346   20.7161 C   0  0  0  0  0  0  0  0  0  0  0  0
   18.6825   19.3311   19.7242 H   0  0  0  0  0  0  0  0  0  0  0  0
   20.1603   19.8035   20.5752 H   0  0  0  0  0  0  0  0  0  0  0  0
   18.5821   20.4021   21.1378 H   0  0  0  0  0  0  0  0  0  0  0  0
  1  2  1  0  0  0  0
  1  3  2  0  0  0  0
  1  4  1  0  0  0  0
  4  5  1  0  0  0  0
  4  6  1  0  0  0  0
  4  7  1  0  0  0  0
  7  8  1  0  0  0  0
  7  9  1  0  0  0  0
  7 10  1  0  0  0  0
 10 11  1  0  0  0  0
 10 12  1  0  0  0  0
 10 13  1  0  0  0  0
 13 14  1  0  0  0  0
 13 15  1  0  0  0  0
 13 16  1  0  0  0  0
M  END
> <VConfSearch Rank>
530

> <Conf_Id>
45

> <Delta U+W>
2.303

> <U+W>
-54.601

> <U>
11.258

> <W>
-65.860

> <W(PB)>
-67.709

> <W(SA)>
1.849

> <Valence>
8.169

> <Coulomb>
2.735

> <VdW>
0.355

> <VdW6>
-6.245

> <VdW12>
6.600

> <Bond>
0.149

> <Angle>
3.168

> <Pdih>
4.840

> <Idih>
0.011

> <Tether>
0.000

$$$$
VeraChem MOL file


 16 15  0  0  0  0  0  0  0  0999 V2000     
   19.4685   21.5712   20.7745 C   0  0  0  0  0  0  0  0  0  0  0  0
   19.1595   22.1055   21.8218 O   0  5  0  0  0  0  0  0  0  0  0  0
   19.4609   22.1515   19.7075 O   0  0  0  0  0  0  0  0  0  0  0  0
   19.8908   20.1010   20.7668 C   0  0  0  0  0  0  0  0  0  0  0  0
   20.8961   20.0515   20.3320 H   0  0  0  0  0  0  0  0  0  0  0  0
   19.2186   19.5710   20.0816 H   0  0  0  0  0  0  0  0  0  0  0  0
   19.8845   19.4013   22.1520 C   0  0  0  0  0  0  0  0  0  0  0  0
   20.5554   19.9398   22.8356 H   0  0  0  0  0  0  0  0  0  0  0  0
   18.8762   19.4587   22.5850 H   0  0  0  0  0  0  0  0  0  0  0  0
   20.3225   17.9251   22.0508 C   0  0  0  0  0  0  0  0  0  0  0  0
   21.3315   17.8662   21.6195 H   0  0  0  0  0  0  0  0  0  0  0  0
   19.6513   17.3849   21.3688 H   0  0  0  0  0  0  0  0  0  0  0  0
   20.3143   17.2357   23.4295 C   0  0  0  0  0  0  0  0  0  0  0  0
   21.0017   17.7371   24.1234 H   0  0  0  0  0  0  0  0  0  0  0  0
   20.6279   16.1875   23.3398 H   0  0  0  0  0  0  0  0  0  0  0  0
   19.3091   17.2522   23.8708 H   0  0  0  0  0  0  0  0  0  0  0  0
  1  2  1  0  0  0  0
  1  3  2  0  0  0  0
  1  4  1  0  0  0  0
  4  5  1  0  0  0  0
  4  6  1  0  0  0  0
  4  7  1  0  0  0  0
  7  8  1  0  0  0  0
  7  9  1  0  0  0  0
  7 10  1  0  0  0  0
 10 11  1  0  0  0  0
 10 12  1  0  0  0  0
 10 13  1  0  0  0  0
 13 14  1  0  0  0  0
 13 15  1  0  0  0  0
 13 16  1  0  0  0  0
M  END
> <VConfSearch Rank>
531

> <Conf_Id>
0

> <Delta U+W>
0.000

> <U+W>
-56.904

> <U>
7.329

> <W>
-64.233

> <W(PB)>
-66.148

> <W(SA)>
1.915

> <Valence>
6.755

> <Coulomb>
-0.421

> <VdW>
0.995

> <VdW6>
-4.495

> <VdW12>
5.490

> <Bond>
0.106

> <Angle>
2.715

> <Pdih>
3.934

> <Idih>
0.000

> <Tether>
0.000

$$$$
VeraChem MOL file


 16 15  0  0  0  0  0  0  0  0999 V2000     
   18.4956   19.1449   24.1981 C   0  0  0  0  0  0  0  0  0  0  0  0
   17.9362   18.0946   24.4428 O   0  5  0  0  0  0  0  0  0  0  0  0
   18.8556   19.9296   25.0528 O   0  0  0  0  0  0  0  0  0  0  0  0
   18.7775   19.4885   22.7396 C   0  0  0  0  0  0  0  0  0  0  0  0
   18.7293   20.5787   22.6306 H   0  0  0  0  0  0  0  0  0  0  0  0
   17.9714   19.0659   22.1277 H   0  0  0  0  0  0  0  0  0  0  0  0
   20.1499   18.9633   22.2511 C   0  0  0  0  0  0  0  0  0  0  0  0
   20.9453   19.3854   22.8810 H   0  0  0  0  0  0  0  0  0  0  0  0
   20.1874   17.8725   22.3781 H   0  0  0  0  0  0  0  0  0  0  0  0
   20.4099   19.3241   20.7736 C   0  0  0  0  0  0  0  0  0  0  0  0
   20.3732   20.4150   20.6463 H   0  0  0  0  0  0  0  0  0  0  0  0
   19.6151   18.9017   20.1433 H   0  0  0  0  0  0  0  0  0  0  0  0
   21.7774   18.7984   20.2943 C   0  0  0  0  0  0  0  0  0  0  0  0
   21.8303   17.7052   20.3813 H   0  0  0  0  0  0  0  0  0  0  0  0
   22.5941   19.2296   20.8880 H   0  0  0  0  0  0  0  0  0  0  0  0
   21.9465   19.0633   19.2425 H   0  0  0  0  0  0  0  0  0  0  0  0
  1  2  1  0  0  0  0
  1  3  2  0  0  0  0
  1  4  1  0  0  0  0
  4  5  1  0  0  0  0
  4  6  1  0  0  0  0
  4  7  1  0  0  0  0
  7  8  1  0  0  0  0
  7  9  1  0  0  0  0
  7 10  1  0  0  0  0
 10 11  1  0  0  0  0
 10 12  1  0  0  0  0
 10 13  1  0  0  0  0
 13 14  1  0  0  0  0
 13 15  1  0  0  0  0
 13 16  1  0  0  0  0
M  END
> <VConfSearch Rank>
532

> <Conf_Id>
22

> <Delta U+W>
-1.185

> <U+W>
-58.089

> <U>
6.298

> <W>
-64.387

> <W(PB)>
-66.329

> <W(SA)>
1.942

> <Valence>
6.246

> <Coulomb>
-0.408

> <VdW>
0.460

> <VdW6>
-4.207

> <VdW12>
4.667

> <Bond>
0.072

> <Angle>
2.246

> <Pdih>
3.928

> <Idih>
0.001

> <Tether>
0.000

$$$$
VeraChem MOL file


 16 15  0  0  0  0  0  0  0  0999 V2000     
   22.0196   19.4744   20.4502 C   0  0  0  0  0  0  0  0  0  0  0  0
   23.1119   19.0145   20.7172 O   0  5  0  0  0  0  0  0  0  0  0  0
   21.8504   20.4012   19.6833 O   0  0  0  0  0  0  0  0  0  0  0  0
   20.7970   18.8683   21.1302 C   0  0  0  0  0  0  0  0  0  0  0  0
   20.9920   17.8016   21.2936 H   0  0  0  0  0  0  0  0  0  0  0  0
   19.9553   18.9417   20.4321 H   0  0  0  0  0  0  0  0  0  0  0  0
   20.4519   19.5603   22.4745 C   0  0  0  0  0  0  0  0  0  0  0  0
   21.3426   19.5461   23.1179 H   0  0  0  0  0  0  0  0  0  0  0  0
   20.2170   20.6181   22.2925 H   0  0  0  0  0  0  0  0  0  0  0  0
   19.2825   18.8882   23.2303 C   0  0  0  0  0  0  0  0  0  0  0  0
   19.1759   19.3670   24.2135 H   0  0  0  0  0  0  0  0  0  0  0  0
   19.5223   17.8333   23.4228 H   0  0  0  0  0  0  0  0  0  0  0  0
   17.9368   18.9863   22.4804 C   0  0  0  0  0  0  0  0  0  0  0  0
   17.9604   18.4232   21.5390 H   0  0  0  0  0  0  0  0  0  0  0  0
   17.6900   20.0312   22.2512 H   0  0  0  0  0  0  0  0  0  0  0  0
   17.1250   18.5741   23.0937 H   0  0  0  0  0  0  0  0  0  0  0  0
  1  2  1  0  0  0  0
  1  3  2  0  0  0  0
  1  4  1  0  0  0  0
  4  5  1  0  0  0  0
  4  6  1  0  0  0  0
  4  7  1  0  0  0  0
  7  8  1  0  0  0  0
  7  9  1  0  0  0  0
  7 10  1  0  0  0  0
 10 11  1  0  0  0  0
 10 12  1  0  0  0  0
 10 13  1  0  0  0  0
 13 14  1  0  0  0  0
 13 15  1  0  0  0  0
 13 16  1  0  0  0  0
M  END
> <VConfSearch Rank>
533

> <Conf_Id>
36

> <Delta U+W>
-0.427

> <U+W>
-57.331

> <U>
7.263

> <W>
-64.594

> <W(PB)>
-66.513

> <W(SA)>
1.920

> <Valence>
6.734

> <Coulomb>
-0.068

> <VdW>
0.598

> <VdW6>
-4.819

> <VdW12>
5.417

> <Bond>
0.107

> <Angle>
2.469

> <Pdih>
4.157

> <Idih>
0.001

> <Tether>
0.000

$$$$
VeraChem MOL file


 16 15  0  0  0  0  0  0  0  0999 V2000     
   18.5355   20.0448   20.0293 C   0  0  0  0  0  0  0  0  0  0  0  0
   17.8650   19.1625   19.5315 O   0  5  0  0  0  0  0  0  0  0  0  0
   18.7877   21.0934   19.4699 O   0  0  0  0  0  0  0  0  0  0  0  0
   19.1086   19.8159   21.4235 C   0  0  0  0  0  0  0  0  0  0  0  0
   18.3953   19.1983   21.9810 H   0  0  0  0  0  0  0  0  0  0  0  0
   19.1657   20.7860   21.9316 H   0  0  0  0  0  0  0  0  0  0  0  0
   20.5061   19.1442   21.3961 C   0  0  0  0  0  0  0  0  0  0  0  0
   20.4283   18.1554   20.9233 H   0  0  0  0  0  0  0  0  0  0  0  0
   21.1728   19.7417   20.7590 H   0  0  0  0  0  0  0  0  0  0  0  0
   21.1493   19.0048   22.7952 C   0  0  0  0  0  0  0  0  0  0  0  0
   21.2380   19.9949   23.2634 H   0  0  0  0  0  0  0  0  0  0  0  0
   22.1733   18.6244   22.6768 H   0  0  0  0  0  0  0  0  0  0  0  0
   20.3709   18.0557   23.7312 C   0  0  0  0  0  0  0  0  0  0  0  0
   19.3770   18.4544   23.9700 H   0  0  0  0  0  0  0  0  0  0  0  0
   20.9112   17.9219   24.6774 H   0  0  0  0  0  0  0  0  0  0  0  0
   20.2446   17.0668   23.2714 H   0  0  0  0  0  0  0  0  0  0  0  0
  1  2  1  0  0  0  0
  1  3  2  0  0  0  0
  1  4  1  0  0  0  0
  4  5  1  0  0  0  0
  4  6  1  0  0  0  0
  4  7  1  0  0  0  0
  7  8  1  0  0  0  0
  7  9  1  0  0  0  0
  7 10  1  0  0  0  0
 10 11  1  0  0  0  0
 10 12  1  0  0  0  0
 10 13  1  0  0  0  0
 13 14  1  0  0  0  0
 13 15  1  0  0  0  0
 13 16  1  0  0  0  0
M  END
> <VConfSearch Rank>
534

> <Conf_Id>
17

> <Delta U+W>
-0.432

> <U+W>
-57.336

> <U>
7.263

> <W>
-64.599

> <W(PB)>
-66.503

> <W(SA)>
1.904

> <Valence>
6.734

> <Coulomb>
-0.068

> <VdW>
0.598

> <VdW6>
-4.819

> <VdW12>
5.417

> <Bond>
0.107

> <Angle>
2.469

> <Pdih>
4.157

> <Idih>
0.001

> <Tether>
0.000

$$$$
VeraChem MOL file


 16 15  0  0  0  0  0  0  0  0999 V2000     
   20.5155   21.2764   21.1526 C   0  0  0  0  0  0  0  0  0  0  0  0
   21.0087   22.0682   21.9311 O   0  5  0  0  0  0  0  0  0  0  0  0
   20.9371   21.0892   20.0285 O   0  0  0  0  0  0  0  0  0  0  0  0
   19.2858   20.4934   21.6046 C   0  0  0  0  0  0  0  0  0  0  0  0
   18.7693   20.1086   20.7168 H   0  0  0  0  0  0  0  0  0  0  0  0
   18.6029   21.2038   22.0855 H   0  0  0  0  0  0  0  0  0  0  0  0
   19.6001   19.3338   22.5852 C   0  0  0  0  0  0  0  0  0  0  0  0
   20.1421   19.7296   23.4554 H   0  0  0  0  0  0  0  0  0  0  0  0
   18.6551   18.9203   22.9627 H   0  0  0  0  0  0  0  0  0  0  0  0
   20.4221   18.2051   21.9262 C   0  0  0  0  0  0  0  0  0  0  0  0
   21.3796   18.6033   21.5626 H   0  0  0  0  0  0  0  0  0  0  0  0
   19.8846   17.8189   21.0490 H   0  0  0  0  0  0  0  0  0  0  0  0
   20.6913   17.0509   22.9120 C   0  0  0  0  0  0  0  0  0  0  0  0
   21.2554   17.4042   23.7852 H   0  0  0  0  0  0  0  0  0  0  0  0
   21.2768   16.2581   22.4284 H   0  0  0  0  0  0  0  0  0  0  0  0
   19.7508   16.6094   23.2666 H   0  0  0  0  0  0  0  0  0  0  0  0
  1  2  1  0  0  0  0
  1  3  2  0  0  0  0
  1  4  1  0  0  0  0
  4  5  1  0  0  0  0
  4  6  1  0  0  0  0
  4  7  1  0  0  0  0
  7  8  1  0  0  0  0
  7  9  1  0  0  0  0
  7 10  1  0  0  0  0
 10 11  1  0  0  0  0
 10 12  1  0  0  0  0
 10 13  1  0  0  0  0
 13 14  1  0  0  0  0
 13 15  1  0  0  0  0
 13 16  1  0  0  0  0
M  END
> <VConfSearch Rank>
535

> <Conf_Id>
19

> <Delta U+W>
0.048

> <U+W>
-56.856

> <U>
8.276

> <W>
-65.132

> <W(PB)>
-67.031

> <W(SA)>
1.899

> <Valence>
6.513

> <Coulomb>
1.428

> <VdW>
0.335

> <VdW6>
-5.021

> <VdW12>
5.356

> <Bond>
0.092

> <Angle>
2.417

> <Pdih>
4.003

> <Idih>
0.001

> <Tether>
0.000

$$$$
VeraChem MOL file


 16 15  0  0  0  0  0  0  0  0999 V2000     
   18.4225   17.4185   22.7894 C   0  0  0  0  0  0  0  0  0  0  0  0
   18.6462   17.0250   23.9170 O   0  5  0  0  0  0  0  0  0  0  0  0
   18.2894   16.6789   21.8346 O   0  0  0  0  0  0  0  0  0  0  0  0
   18.2779   18.9215   22.5669 C   0  0  0  0  0  0  0  0  0  0  0  0
   17.6318   19.3104   23.3628 H   0  0  0  0  0  0  0  0  0  0  0  0
   17.7491   19.0865   21.6202 H   0  0  0  0  0  0  0  0  0  0  0  0
   19.6231   19.6932   22.5697 C   0  0  0  0  0  0  0  0  0  0  0  0
   19.4154   20.7715   22.5439 H   0  0  0  0  0  0  0  0  0  0  0  0
   20.1542   19.4958   23.5113 H   0  0  0  0  0  0  0  0  0  0  0  0
   20.5243   19.3200   21.3728 C   0  0  0  0  0  0  0  0  0  0  0  0
   19.9874   19.5062   20.4323 H   0  0  0  0  0  0  0  0  0  0  0  0
   20.7557   18.2460   21.3997 H   0  0  0  0  0  0  0  0  0  0  0  0
   21.8389   20.1250   21.3811 C   0  0  0  0  0  0  0  0  0  0  0  0
   21.6401   21.2030   21.3200 H   0  0  0  0  0  0  0  0  0  0  0  0
   22.4677   19.8473   20.5251 H   0  0  0  0  0  0  0  0  0  0  0  0
   22.4109   19.9329   22.2983 H   0  0  0  0  0  0  0  0  0  0  0  0
  1  2  1  0  0  0  0
  1  3  2  0  0  0  0
  1  4  1  0  0  0  0
  4  5  1  0  0  0  0
  4  6  1  0  0  0  0
  4  7  1  0  0  0  0
  7  8  1  0  0  0  0
  7  9  1  0  0  0  0
  7 10  1  0  0  0  0
 10 11  1  0  0  0  0
 10 12  1  0  0  0  0
 10 13  1  0  0  0  0
 13 14  1  0  0  0  0
 13 15  1  0  0  0  0
 13 16  1  0  0  0  0
M  END
> <VConfSearch Rank>
536

> <Conf_Id>
20

> <Delta U+W>
-0.010

> <U+W>
-56.914

> <U>
8.277

> <W>
-65.191

> <W(PB)>
-67.081

> <W(SA)>
1.890

> <Valence>
6.513

> <Coulomb>
1.429

> <VdW>
0.335

> <VdW6>
-5.021

> <VdW12>
5.356

> <Bond>
0.092

> <Angle>
2.417

> <Pdih>
4.002

> <Idih>
0.001

> <Tether>
0.000

$$$$
VeraChem MOL file


 16 15  0  0  0  0  0  0  0  0999 V2000     
   21.1839   17.4732   22.3247 C   0  0  0  0  0  0  0  0  0  0  0  0
   21.8058   17.2043   23.3335 O   0  5  0  0  0  0  0  0  0  0  0  0
   21.6771   17.4771   21.2143 O   0  0  0  0  0  0  0  0  0  0  0  0
   19.6966   17.7890   22.4588 C   0  0  0  0  0  0  0  0  0  0  0  0
   19.2456   16.9856   23.0530 H   0  0  0  0  0  0  0  0  0  0  0  0
   19.2349   17.7371   21.4662 H   0  0  0  0  0  0  0  0  0  0  0  0
   19.3949   19.1558   23.1322 C   0  0  0  0  0  0  0  0  0  0  0  0
   18.3092   19.2627   23.2595 H   0  0  0  0  0  0  0  0  0  0  0  0
   19.8248   19.1534   24.1434 H   0  0  0  0  0  0  0  0  0  0  0  0
   19.9399   20.3811   22.3604 C   0  0  0  0  0  0  0  0  0  0  0  0
   21.0311   20.3033   22.2566 H   0  0  0  0  0  0  0  0  0  0  0  0
   19.7496   21.2853   22.9549 H   0  0  0  0  0  0  0  0  0  0  0  0
   19.2991   20.5572   20.9673 C   0  0  0  0  0  0  0  0  0  0  0  0
   19.5684   19.7303   20.2979 H   0  0  0  0  0  0  0  0  0  0  0  0
   19.6460   21.4881   20.5004 H   0  0  0  0  0  0  0  0  0  0  0  0
   18.2046   20.6021   21.0397 H   0  0  0  0  0  0  0  0  0  0  0  0
  1  2  1  0  0  0  0
  1  3  2  0  0  0  0
  1  4  1  0  0  0  0
  4  5  1  0  0  0  0
  4  6  1  0  0  0  0
  4  7  1  0  0  0  0
  7  8  1  0  0  0  0
  7  9  1  0  0  0  0
  7 10  1  0  0  0  0
 10 11  1  0  0  0  0
 10 12  1  0  0  0  0
 10 13  1  0  0  0  0
 13 14  1  0  0  0  0
 13 15  1  0  0  0  0
 13 16  1  0  0  0  0
M  END
> <VConfSearch Rank>
537

> <Conf_Id>
37

> <Delta U+W>
1.063

> <U+W>
-55.841

> <U>
9.719

> <W>
-65.560

> <W(PB)>
-67.414

> <W(SA)>
1.854

> <Valence>
7.002

> <Coulomb>
2.402

> <VdW>
0.314

> <VdW6>
-5.861

> <VdW12>
6.175

> <Bond>
0.134

> <Angle>
2.733

> <Pdih>
4.133

> <Idih>
0.002

> <Tether>
0.000

$$$$
VeraChem MOL file


 16 15  0  0  0  0  0  0  0  0999 V2000     
   19.6236   17.0763   22.5080 C   0  0  0  0  0  0  0  0  0  0  0  0
   19.0024   16.4072   21.7061 O   0  5  0  0  0  0  0  0  0  0  0  0
   20.6269   16.6865   23.0718 O   0  0  0  0  0  0  0  0  0  0  0  0
   19.0938   18.4665   22.8490 C   0  0  0  0  0  0  0  0  0  0  0  0
   19.5893   18.8180   23.7612 H   0  0  0  0  0  0  0  0  0  0  0  0
   18.0310   18.3584   23.0954 H   0  0  0  0  0  0  0  0  0  0  0  0
   19.2516   19.5055   21.7051 C   0  0  0  0  0  0  0  0  0  0  0  0
   18.6991   19.1480   20.8252 H   0  0  0  0  0  0  0  0  0  0  0  0
   18.7744   20.4479   22.0062 H   0  0  0  0  0  0  0  0  0  0  0  0
   20.7171   19.7853   21.2954 C   0  0  0  0  0  0  0  0  0  0  0  0
   20.7180   20.4639   20.4313 H   0  0  0  0  0  0  0  0  0  0  0  0
   21.1958   18.8553   20.9585 H   0  0  0  0  0  0  0  0  0  0  0  0
   21.5552   20.4182   22.4265 C   0  0  0  0  0  0  0  0  0  0  0  0
   21.0792   21.3318   22.8058 H   0  0  0  0  0  0  0  0  0  0  0  0
   22.5551   20.6842   22.0602 H   0  0  0  0  0  0  0  0  0  0  0  0
   21.6837   19.7211   23.2644 H   0  0  0  0  0  0  0  0  0  0  0  0
  1  2  1  0  0  0  0
  1  3  2  0  0  0  0
  1  4  1  0  0  0  0
  4  5  1  0  0  0  0
  4  6  1  0  0  0  0
  4  7  1  0  0  0  0
  7  8  1  0  0  0  0
  7  9  1  0  0  0  0
  7 10  1  0  0  0  0
 10 11  1  0  0  0  0
 10 12  1  0  0  0  0
 10 13  1  0  0  0  0
 13 14  1  0  0  0  0
 13 15  1  0  0  0  0
 13 16  1  0  0  0  0
M  END
> <VConfSearch Rank>
538

> <Conf_Id>
39

> <Delta U+W>
1.129

> <U+W>
-55.775

> <U>
9.718

> <W>
-65.493

> <W(PB)>
-67.361

> <W(SA)>
1.869

> <Valence>
7.002

> <Coulomb>
2.402

> <VdW>
0.314

> <VdW6>
-5.861

> <VdW12>
6.175

> <Bond>
0.134

> <Angle>
2.734

> <Pdih>
4.133

> <Idih>
0.002

> <Tether>
0.000

$$$$
VeraChem MOL file


 16 15  0  0  0  0  0  0  0  0999 V2000     
   21.1870   20.5859   22.5046 C   0  0  0  0  0  0  0  0  0  0  0  0
   21.0798   21.0883   23.6059 O   0  5  0  0  0  0  0  0  0  0  0  0
   21.2220   21.2317   21.4756 O   0  0  0  0  0  0  0  0  0  0  0  0
   21.3777   19.0727   22.4180 C   0  0  0  0  0  0  0  0  0  0  0  0
   21.4007   18.6572   23.4328 H   0  0  0  0  0  0  0  0  0  0  0  0
   22.3743   18.9110   21.9908 H   0  0  0  0  0  0  0  0  0  0  0  0
   20.3291   18.3193   21.5521 C   0  0  0  0  0  0  0  0  0  0  0  0
   20.1609   18.8619   20.6114 H   0  0  0  0  0  0  0  0  0  0  0  0
   20.7578   17.3485   21.2690 H   0  0  0  0  0  0  0  0  0  0  0  0
   18.9788   18.0507   22.2592 C   0  0  0  0  0  0  0  0  0  0  0  0
   19.1514   17.5100   23.2000 H   0  0  0  0  0  0  0  0  0  0  0  0
   18.3813   17.3820   21.6243 H   0  0  0  0  0  0  0  0  0  0  0  0
   18.1555   19.3256   22.5369 C   0  0  0  0  0  0  0  0  0  0  0  0
   18.6358   19.9536   23.2972 H   0  0  0  0  0  0  0  0  0  0  0  0
   17.1563   19.0641   22.9083 H   0  0  0  0  0  0  0  0  0  0  0  0
   18.0327   19.9223   21.6235 H   0  0  0  0  0  0  0  0  0  0  0  0
  1  2  1  0  0  0  0
  1  3  2  0  0  0  0
  1  4  1  0  0  0  0
  4  5  1  0  0  0  0
  4  6  1  0  0  0  0
  4  7  1  0  0  0  0
  7  8  1  0  0  0  0
  7  9  1  0  0  0  0
  7 10  1  0  0  0  0
 10 11  1  0  0  0  0
 10 12  1  0  0  0  0
 10 13  1  0  0  0  0
 13 14  1  0  0  0  0
 13 15  1  0  0  0  0
 13 16  1  0  0  0  0
M  END
> <VConfSearch Rank>
539

> <Conf_Id>
47

> <Delta U+W>
2.301

> <U+W>
-54.603

> <U>
11.258

> <W>
-65.861

> <W(PB)>
-67.702

> <W(SA)>
1.841

> <Valence>
8.169

> <Coulomb>
2.735

> <VdW>
0.355

> <VdW6>
-6.245

> <VdW12>
6.600

> <Bond>
0.149

> <Angle>
3.168

> <Pdih>
4.840

> <Idih>
0.011

> <Tether>
0.000

$$$$
VeraChem MOL file


 16 15  0  0  0  0  0  0  0  0999 V2000     
   19.0347   17.3060   22.3584 C   0  0  0  0  0  0  0  0  0  0  0  0
   19.7331   16.5873   23.0459 O   0  5  0  0  0  0  0  0  0  0  0  0
   18.5907   16.9714   21.2778 O   0  0  0  0  0  0  0  0  0  0  0  0
   18.6189   18.6648   22.9194 C   0  0  0  0  0  0  0  0  0  0  0  0
   18.0424   18.4600   23.8290 H   0  0  0  0  0  0  0  0  0  0  0  0
   17.9308   19.1466   22.2141 H   0  0  0  0  0  0  0  0  0  0  0  0
   19.7899   19.6255   23.2697 C   0  0  0  0  0  0  0  0  0  0  0  0
   19.4116   20.3781   23.9745 H   0  0  0  0  0  0  0  0  0  0  0  0
   20.5767   19.0770   23.8059 H   0  0  0  0  0  0  0  0  0  0  0  0
   20.3959   20.3754   22.0589 C   0  0  0  0  0  0  0  0  0  0  0  0
   21.0948   21.1351   22.4353 H   0  0  0  0  0  0  0  0  0  0  0  0
   19.6059   20.9210   21.5245 H   0  0  0  0  0  0  0  0  0  0  0  0
   21.1526   19.4607   21.0736 C   0  0  0  0  0  0  0  0  0  0  0  0
   21.6753   20.0603   20.3172 H   0  0  0  0  0  0  0  0  0  0  0  0
   20.4659   18.7887   20.5445 H   0  0  0  0  0  0  0  0  0  0  0  0
   21.8990   18.8492   21.5973 H   0  0  0  0  0  0  0  0  0  0  0  0
  1  2  1  0  0  0  0
  1  3  2  0  0  0  0
  1  4  1  0  0  0  0
  4  5  1  0  0  0  0
  4  6  1  0  0  0  0
  4  7  1  0  0  0  0
  7  8  1  0  0  0  0
  7  9  1  0  0  0  0
  7 10  1  0  0  0  0
 10 11  1  0  0  0  0
 10 12  1  0  0  0  0
 10 13  1  0  0  0  0
 13 14  1  0  0  0  0
 13 15  1  0  0  0  0
 13 16  1  0  0  0  0
M  END
> <VConfSearch Rank>
540

> <Conf_Id>
45

> <Delta U+W>
2.303

> <U+W>
-54.601

> <U>
11.258

> <W>
-65.860

> <W(PB)>
-67.709

> <W(SA)>
1.849

> <Valence>
8.169

> <Coulomb>
2.735

> <VdW>
0.355

> <VdW6>
-6.245

> <VdW12>
6.600

> <Bond>
0.149

> <Angle>
3.168

> <Pdih>
4.840

> <Idih>
0.011

> <Tether>
0.000

$$$$
VeraChem MOL file


 16 15  0  0  0  0  0  0  0  0999 V2000     
   19.3004   16.8031   23.2532 C   0  0  0  0  0  0  0  0  0  0  0  0
   19.9799   17.0440   24.2320 O   0  5  0  0  0  0  0  0  0  0  0  0
   18.6273   15.7978   23.1454 O   0  0  0  0  0  0  0  0  0  0  0  0
   19.2705   17.7919   22.0864 C   0  0  0  0  0  0  0  0  0  0  0  0
   18.2249   18.0832   21.9310 H   0  0  0  0  0  0  0  0  0  0  0  0
   19.5888   17.2486   21.1888 H   0  0  0  0  0  0  0  0  0  0  0  0
   20.1458   19.0603   22.2687 C   0  0  0  0  0  0  0  0  0  0  0  0
   19.8258   19.5975   23.1724 H   0  0  0  0  0  0  0  0  0  0  0  0
   21.1911   18.7621   22.4294 H   0  0  0  0  0  0  0  0  0  0  0  0
   20.0559   19.9995   21.0476 C   0  0  0  0  0  0  0  0  0  0  0  0
   19.0113   20.3000   20.8868 H   0  0  0  0  0  0  0  0  0  0  0  0
   20.3774   19.4641   20.1434 H   0  0  0  0  0  0  0  0  0  0  0  0
   20.9273   21.2573   21.2346 C   0  0  0  0  0  0  0  0  0  0  0  0
   20.6071   21.8294   22.1153 H   0  0  0  0  0  0  0  0  0  0  0  0
   20.8520   21.9138   20.3580 H   0  0  0  0  0  0  0  0  0  0  0  0
   21.9833   20.9874   21.3664 H   0  0  0  0  0  0  0  0  0  0  0  0
  1  2  1  0  0  0  0
  1  3  2  0  0  0  0
  1  4  1  0  0  0  0
  4  5  1  0  0  0  0
  4  6  1  0  0  0  0
  4  7  1  0  0  0  0
  7  8  1  0  0  0  0
  7  9  1  0  0  0  0
  7 10  1  0  0  0  0
 10 11  1  0  0  0  0
 10 12  1  0  0  0  0
 10 13  1  0  0  0  0
 13 14  1  0  0  0  0
 13 15  1  0  0  0  0
 13 16  1  0  0  0  0
M  END
> <VConfSearch Rank>
541

> <Conf_Id>
0

> <Delta U+W>
0.000

> <U+W>
-56.904

> <U>
7.329

> <W>
-64.233

> <W(PB)>
-66.148

> <W(SA)>
1.915

> <Valence>
6.755

> <Coulomb>
-0.421

> <VdW>
0.995

> <VdW6>
-4.495

> <VdW12>
5.490

> <Bond>
0.106

> <Angle>
2.715

> <Pdih>
3.934

> <Idih>
0.000

> <Tether>
0.000

$$$$
VeraChem MOL file


 16 15  0  0  0  0  0  0  0  0999 V2000     
   22.7003   19.1414   22.5540 C   0  0  0  0  0  0  0  0  0  0  0  0
   23.3764   19.8762   21.8621 O   0  5  0  0  0  0  0  0  0  0  0  0
   22.9580   18.8847   23.7131 O   0  0  0  0  0  0  0  0  0  0  0  0
   21.4500   18.5218   21.9395 C   0  0  0  0  0  0  0  0  0  0  0  0
   21.2962   17.5377   22.3985 H   0  0  0  0  0  0  0  0  0  0  0  0
   21.6411   18.3552   20.8725 H   0  0  0  0  0  0  0  0  0  0  0  0
   20.1884   19.4004   22.1250 C   0  0  0  0  0  0  0  0  0  0  0  0
   20.0175   19.5685   23.1974 H   0  0  0  0  0  0  0  0  0  0  0  0
   20.3625   20.3860   21.6714 H   0  0  0  0  0  0  0  0  0  0  0  0
   18.9387   18.7511   21.4947 C   0  0  0  0  0  0  0  0  0  0  0  0
   18.7639   17.7658   21.9486 H   0  0  0  0  0  0  0  0  0  0  0  0
   19.1090   18.5835   20.4221 H   0  0  0  0  0  0  0  0  0  0  0  0
   17.6872   19.6310   21.6831 C   0  0  0  0  0  0  0  0  0  0  0  0
   17.8226   20.6129   21.2109 H   0  0  0  0  0  0  0  0  0  0  0  0
   17.4750   19.7892   22.7487 H   0  0  0  0  0  0  0  0  0  0  0  0
   16.8080   19.1552   21.2295 H   0  0  0  0  0  0  0  0  0  0  0  0
  1  2  1  0  0  0  0
  1  3  2  0  0  0  0
  1  4  1  0  0  0  0
  4  5  1  0  0  0  0
  4  6  1  0  0  0  0
  4  7  1  0  0  0  0
  7  8  1  0  0  0  0
  7  9  1  0  0  0  0
  7 10  1  0  0  0  0
 10 11  1  0  0  0  0
 10 12  1  0  0  0  0
 10 13  1  0  0  0  0
 13 14  1  0  0  0  0
 13 15  1  0  0  0  0
 13 16  1  0  0  0  0
M  END
> <VConfSearch Rank>
542

> <Conf_Id>
22

> <Delta U+W>
-1.185

> <U+W>
-58.089

> <U>
6.298

> <W>
-64.387

> <W(PB)>
-66.329

> <W(SA)>
1.942

> <Valence>
6.246

> <Coulomb>
-0.408

> <VdW>
0.460

> <VdW6>
-4.207

> <VdW12>
4.667

> <Bond>
0.072

> <Angle>
2.246

> <Pdih>
3.928

> <Idih>
0.001

> <Tether>
0.000

$$$$
VeraChem MOL file


 16 15  0  0  0  0  0  0  0  0999 V2000     
   18.6981   20.2367   23.9650 C   0  0  0  0  0  0  0  0  0  0  0  0
   19.0969   20.1675   25.1105 O   0  5  0  0  0  0  0  0  0  0  0  0
   17.5444   20.4761   23.6690 O   0  0  0  0  0  0  0  0  0  0  0  0
   19.6956   19.9899   22.8387 C   0  0  0  0  0  0  0  0  0  0  0  0
   20.6785   20.3456   23.1703 H   0  0  0  0  0  0  0  0  0  0  0  0
   19.3966   20.6094   21.9855 H   0  0  0  0  0  0  0  0  0  0  0  0
   19.7790   18.4974   22.4259 C   0  0  0  0  0  0  0  0  0  0  0  0
   19.9945   17.8953   23.3194 H   0  0  0  0  0  0  0  0  0  0  0  0
   18.7996   18.1643   22.0556 H   0  0  0  0  0  0  0  0  0  0  0  0
   20.8639   18.2129   21.3617 C   0  0  0  0  0  0  0  0  0  0  0  0
   20.9315   17.1271   21.2078 H   0  0  0  0  0  0  0  0  0  0  0  0
   21.8452   18.5353   21.7365 H   0  0  0  0  0  0  0  0  0  0  0  0
   20.5781   18.8911   20.0048 C   0  0  0  0  0  0  0  0  0  0  0  0
   20.6138   19.9846   20.0877 H   0  0  0  0  0  0  0  0  0  0  0  0
   19.5888   18.6061   19.6237 H   0  0  0  0  0  0  0  0  0  0  0  0
   21.3265   18.5900   19.2603 H   0  0  0  0  0  0  0  0  0  0  0  0
  1  2  1  0  0  0  0
  1  3  2  0  0  0  0
  1  4  1  0  0  0  0
  4  5  1  0  0  0  0
  4  6  1  0  0  0  0
  4  7  1  0  0  0  0
  7  8  1  0  0  0  0
  7  9  1  0  0  0  0
  7 10  1  0  0  0  0
 10 11  1  0  0  0  0
 10 12  1  0  0  0  0
 10 13  1  0  0  0  0
 13 14  1  0  0  0  0
 13 15  1  0  0  0  0
 13 16  1  0  0  0  0
M  END
> <VConfSearch Rank>
543

> <Conf_Id>
36

> <Delta U+W>
-0.427

> <U+W>
-57.331

> <U>
7.263

> <W>
-64.594

> <W(PB)>
-66.513

> <W(SA)>
1.920

> <Valence>
6.734

> <Coulomb>
-0.068

> <VdW>
0.598

> <VdW6>
-4.819

> <VdW12>
5.417

> <Bond>
0.107

> <Angle>
2.469

> <Pdih>
4.157

> <Idih>
0.001

> <Tether>
0.000

$$$$
VeraChem MOL file


 16 15  0  0  0  0  0  0  0  0999 V2000     
   20.0420   21.7121   22.2825 C   0  0  0  0  0  0  0  0  0  0  0  0
   18.9235   22.1781   22.3712 O   0  5  0  0  0  0  0  0  0  0  0  0
   21.0228   22.3698   21.9972 O   0  0  0  0  0  0  0  0  0  0  0  0
   20.2218   20.2172   22.5224 C   0  0  0  0  0  0  0  0  0  0  0  0
   19.4859   19.9081   23.2734 H   0  0  0  0  0  0  0  0  0  0  0  0
   21.2161   20.0593   22.9571 H   0  0  0  0  0  0  0  0  0  0  0  0
   20.0651   19.3775   21.2280 C   0  0  0  0  0  0  0  0  0  0  0  0
   19.0514   19.5104   20.8254 H   0  0  0  0  0  0  0  0  0  0  0  0
   20.7552   19.7686   20.4676 H   0  0  0  0  0  0  0  0  0  0  0  0
   20.3525   17.8722   21.4325 C   0  0  0  0  0  0  0  0  0  0  0  0
   21.3704   17.7384   21.8241 H   0  0  0  0  0  0  0  0  0  0  0  0
   20.3276   17.3719   20.4546 H   0  0  0  0  0  0  0  0  0  0  0  0
   19.3402   17.1812   22.3710 C   0  0  0  0  0  0  0  0  0  0  0  0
   19.4095   17.5729   23.3935 H   0  0  0  0  0  0  0  0  0  0  0  0
   19.5334   16.1015   22.4152 H   0  0  0  0  0  0  0  0  0  0  0  0
   18.3120   17.3262   22.0148 H   0  0  0  0  0  0  0  0  0  0  0  0
  1  2  1  0  0  0  0
  1  3  2  0  0  0  0
  1  4  1  0  0  0  0
  4  5  1  0  0  0  0
  4  6  1  0  0  0  0
  4  7  1  0  0  0  0
  7  8  1  0  0  0  0
  7  9  1  0  0  0  0
  7 10  1  0  0  0  0
 10 11  1  0  0  0  0
 10 12  1  0  0  0  0
 10 13  1  0  0  0  0
 13 14  1  0  0  0  0
 13 15  1  0  0  0  0
 13 16  1  0  0  0  0
M  END
> <VConfSearch Rank>
544

> <Conf_Id>
17

> <Delta U+W>
-0.432

> <U+W>
-57.336

> <U>
7.263

> <W>
-64.599

> <W(PB)>
-66.503

> <W(SA)>
1.904

> <Valence>
6.734

> <Coulomb>
-0.068

> <VdW>
0.598

> <VdW6>
-4.819

> <VdW12>
5.417

> <Bond>
0.107

> <Angle>
2.469

> <Pdih>
4.157

> <Idih>
0.001

> <Tether>
0.000

$$$$
VeraChem MOL file


 16 15  0  0  0  0  0  0  0  0999 V2000     
   20.6752   18.6659   19.8336 C   0  0  0  0  0  0  0  0  0  0  0  0
   21.7503   18.1171   19.6944 O   0  5  0  0  0  0  0  0  0  0  0  0
   19.6504   18.2772   19.3093 O   0  0  0  0  0  0  0  0  0  0  0  0
   20.6159   19.9248   20.6945 C   0  0  0  0  0  0  0  0  0  0  0  0
   19.7026   20.4782   20.4439 H   0  0  0  0  0  0  0  0  0  0  0  0
   21.4611   20.5605   20.4050 H   0  0  0  0  0  0  0  0  0  0  0  0
   20.6737   19.6509   22.2198 C   0  0  0  0  0  0  0  0  0  0  0  0
   21.5784   19.0718   22.4518 H   0  0  0  0  0  0  0  0  0  0  0  0
   20.7663   20.6081   22.7506 H   0  0  0  0  0  0  0  0  0  0  0  0
   19.4264   18.9014   22.7363 C   0  0  0  0  0  0  0  0  0  0  0  0
   19.3350   17.9322   22.2264 H   0  0  0  0  0  0  0  0  0  0  0  0
   18.5218   19.4756   22.4927 H   0  0  0  0  0  0  0  0  0  0  0  0
   19.4938   18.6720   24.2592 C   0  0  0  0  0  0  0  0  0  0  0  0
   20.3741   18.0731   24.5272 H   0  0  0  0  0  0  0  0  0  0  0  0
   18.6010   18.1379   24.6095 H   0  0  0  0  0  0  0  0  0  0  0  0
   19.5511   19.6267   24.7983 H   0  0  0  0  0  0  0  0  0  0  0  0
  1  2  1  0  0  0  0
  1  3  2  0  0  0  0
  1  4  1  0  0  0  0
  4  5  1  0  0  0  0
  4  6  1  0  0  0  0
  4  7  1  0  0  0  0
  7  8  1  0  0  0  0
  7  9  1  0  0  0  0
  7 10  1  0  0  0  0
 10 11  1  0  0  0  0
 10 12  1  0  0  0  0
 10 13  1  0  0  0  0
 13 14  1  0  0  0  0
 13 15  1  0  0  0  0
 13 16  1  0  0  0  0
M  END
> <VConfSearch Rank>
545

> <Conf_Id>
19

> <Delta U+W>
0.048

> <U+W>
-56.856

> <U>
8.276

> <W>
-65.132

> <W(PB)>
-67.031

> <W(SA)>
1.899

> <Valence>
6.513

> <Coulomb>
1.428

> <VdW>
0.335

> <VdW6>
-5.021

> <VdW12>
5.356

> <Bond>
0.092

> <Angle>
2.417

> <Pdih>
4.003

> <Idih>
0.001

> <Tether>
0.000

$$$$
VeraChem MOL file


 16 15  0  0  0  0  0  0  0  0999 V2000     
   22.2168   19.1616   22.3620 C   0  0  0  0  0  0  0  0  0  0  0  0
   22.8259   19.3433   21.3265 O   0  5  0  0  0  0  0  0  0  0  0  0
   22.4725   18.2665   23.1428 O   0  0  0  0  0  0  0  0  0  0  0  0
   21.0853   20.1250   22.7101 C   0  0  0  0  0  0  0  0  0  0  0  0
   21.4512   21.1418   22.5244 H   0  0  0  0  0  0  0  0  0  0  0  0
   20.8817   20.0528   23.7854 H   0  0  0  0  0  0  0  0  0  0  0  0
   19.7829   19.8886   21.9021 C   0  0  0  0  0  0  0  0  0  0  0  0
   19.0789   20.7048   22.1139 H   0  0  0  0  0  0  0  0  0  0  0  0
   20.0075   19.9355   20.8274 H   0  0  0  0  0  0  0  0  0  0  0  0
   19.1125   18.5387   22.2377 C   0  0  0  0  0  0  0  0  0  0  0  0
   18.8998   18.4882   23.3146 H   0  0  0  0  0  0  0  0  0  0  0  0
   19.8008   17.7128   22.0103 H   0  0  0  0  0  0  0  0  0  0  0  0
   17.8038   18.3442   21.4466 C   0  0  0  0  0  0  0  0  0  0  0  0
   17.0816   19.1376   21.6801 H   0  0  0  0  0  0  0  0  0  0  0  0
   17.3409   17.3805   21.6960 H   0  0  0  0  0  0  0  0  0  0  0  0
   17.9929   18.3597   20.3652 H   0  0  0  0  0  0  0  0  0  0  0  0
  1  2  1  0  0  0  0
  1  3  2  0  0  0  0
  1  4  1  0  0  0  0
  4  5  1  0  0  0  0
  4  6  1  0  0  0  0
  4  7  1  0  0  0  0
  7  8  1  0  0  0  0
  7  9  1  0  0  0  0
  7 10  1  0  0  0  0
 10 11  1  0  0  0  0
 10 12  1  0  0  0  0
 10 13  1  0  0  0  0
 13 14  1  0  0  0  0
 13 15  1  0  0  0  0
 13 16  1  0  0  0  0
M  END
> <VConfSearch Rank>
546

> <Conf_Id>
20

> <Delta U+W>
-0.010

> <U+W>
-56.914

> <U>
8.277

> <W>
-65.191

> <W(PB)>
-67.081

> <W(SA)>
1.890

> <Valence>
6.513

> <Coulomb>
1.429

> <VdW>
0.335

> <VdW6>
-5.021

> <VdW12>
5.356

> <Bond>
0.092

> <Angle>
2.417

> <Pdih>
4.002

> <Idih>
0.001

> <Tether>
0.000

$$$$
VeraChem MOL file


 16 15  0  0  0  0  0  0  0  0999 V2000     
   21.4850   18.8056   23.5369 C   0  0  0  0  0  0  0  0  0  0  0  0
   22.5718   19.3388   23.4314 O   0  5  0  0  0  0  0  0  0  0  0  0
   21.3388   17.6183   23.7497 O   0  0  0  0  0  0  0  0  0  0  0  0
   20.2399   19.6820   23.4301 C   0  0  0  0  0  0  0  0  0  0  0  0
   20.3809   20.5318   24.1081 H   0  0  0  0  0  0  0  0  0  0  0  0
   19.3800   19.1199   23.8122 H   0  0  0  0  0  0  0  0  0  0  0  0
   19.9555   20.2108   21.9975 C   0  0  0  0  0  0  0  0  0  0  0  0
   19.0947   20.8923   22.0295 H   0  0  0  0  0  0  0  0  0  0  0  0
   20.8130   20.8132   21.6672 H   0  0  0  0  0  0  0  0  0  0  0  0
   19.6894   19.1036   20.9501 C   0  0  0  0  0  0  0  0  0  0  0  0
   20.5585   18.4345   20.8833 H   0  0  0  0  0  0  0  0  0  0  0  0
   19.5830   19.5717   19.9618 H   0  0  0  0  0  0  0  0  0  0  0  0
   18.4211   18.2759   21.2481 C   0  0  0  0  0  0  0  0  0  0  0  0
   18.5345   17.6920   22.1704 H   0  0  0  0  0  0  0  0  0  0  0  0
   18.2230   17.5700   20.4312 H   0  0  0  0  0  0  0  0  0  0  0  0
   17.5426   18.9254   21.3550 H   0  0  0  0  0  0  0  0  0  0  0  0
  1  2  1  0  0  0  0
  1  3  2  0  0  0  0
  1  4  1  0  0  0  0
  4  5  1  0  0  0  0
  4  6  1  0  0  0  0
  4  7  1  0  0  0  0
  7  8  1  0  0  0  0
  7  9  1  0  0  0  0
  7 10  1  0  0  0  0
 10 11  1  0  0  0  0
 10 12  1  0  0  0  0
 10 13  1  0  0  0  0
 13 14  1  0  0  0  0
 13 15  1  0  0  0  0
 13 16  1  0  0  0  0
M  END
> <VConfSearch Rank>
547

> <Conf_Id>
37

> <Delta U+W>
1.063

> <U+W>
-55.841

> <U>
9.719

> <W>
-65.560

> <W(PB)>
-67.414

> <W(SA)>
1.854

> <Valence>
7.002

> <Coulomb>
2.402

> <VdW>
0.314

> <VdW6>
-5.861

> <VdW12>
6.175

> <Bond>
0.134

> <Angle>
2.733

> <Pdih>
4.133

> <Idih>
0.002

> <Tether>
0.000

$$$$
VeraChem MOL file


 16 15  0  0  0  0  0  0  0  0999 V2000     
   20.9405   18.9920   24.1611 C   0  0  0  0  0  0  0  0  0  0  0  0
   21.9613   18.3873   24.4236 O   0  5  0  0  0  0  0  0  0  0  0  0
   20.6943   20.1054   24.5808 O   0  0  0  0  0  0  0  0  0  0  0  0
   19.8988   18.3001   23.2859 C   0  0  0  0  0  0  0  0  0  0  0  0
   18.9512   18.8443   23.3696 H   0  0  0  0  0  0  0  0  0  0  0  0
   19.7240   17.3055   23.7127 H   0  0  0  0  0  0  0  0  0  0  0  0
   20.3159   18.1527   21.7969 C   0  0  0  0  0  0  0  0  0  0  0  0
   21.2381   17.5575   21.7462 H   0  0  0  0  0  0  0  0  0  0  0  0
   19.5480   17.5767   21.2632 H   0  0  0  0  0  0  0  0  0  0  0  0
   20.5465   19.4953   21.0633 C   0  0  0  0  0  0  0  0  0  0  0  0
   20.9155   19.2845   20.0501 H   0  0  0  0  0  0  0  0  0  0  0  0
   21.3381   20.0666   21.5679 H   0  0  0  0  0  0  0  0  0  0  0  0
   19.2715   20.3590   20.9593 C   0  0  0  0  0  0  0  0  0  0  0  0
   18.4528   19.7982   20.4898 H   0  0  0  0  0  0  0  0  0  0  0  0
   19.4622   21.2527   20.3512 H   0  0  0  0  0  0  0  0  0  0  0  0
   18.9375   20.6964   21.9488 H   0  0  0  0  0  0  0  0  0  0  0  0
  1  2  1  0  0  0  0
  1  3  2  0  0  0  0
  1  4  1  0  0  0  0
  4  5  1  0  0  0  0
  4  6  1  0  0  0  0
  4  7  1  0  0  0  0
  7  8  1  0  0  0  0
  7  9  1  0  0  0  0
  7 10  1  0  0  0  0
 10 11  1  0  0  0  0
 10 12  1  0  0  0  0
 10 13  1  0  0  0  0
 13 14  1  0  0  0  0
 13 15  1  0  0  0  0
 13 16  1  0  0  0  0
M  END
> <VConfSearch Rank>
548

> <Conf_Id>
39

> <Delta U+W>
1.129

> <U+W>
-55.775

> <U>
9.718

> <W>
-65.493

> <W(PB)>
-67.361

> <W(SA)>
1.869

> <Valence>
7.002

> <Coulomb>
2.402

> <VdW>
0.314

> <VdW6>
-5.861

> <VdW12>
6.175

> <Bond>
0.134

> <Angle>
2.734

> <Pdih>
4.133

> <Idih>
0.002

> <Tether>
0.000

$$$$
VeraChem MOL file


 16 15  0  0  0  0  0  0  0  0999 V2000     
   20.7136   17.9598   23.7054 C   0  0  0  0  0  0  0  0  0  0  0  0
   20.8980   18.6073   24.7171 O   0  5  0  0  0  0  0  0  0  0  0  0
   21.5593   17.2436   23.2066 O   0  0  0  0  0  0  0  0  0  0  0  0
   19.3193   17.9786   23.0815 C   0  0  0  0  0  0  0  0  0  0  0  0
   18.6620   18.6063   23.6955 H   0  0  0  0  0  0  0  0  0  0  0  0
   18.9339   16.9550   23.1560 H   0  0  0  0  0  0  0  0  0  0  0  0
   19.2623   18.4325   21.5957 C   0  0  0  0  0  0  0  0  0  0  0  0
   20.0647   17.9455   21.0243 H   0  0  0  0  0  0  0  0  0  0  0  0
   18.3199   18.0671   21.1656 H   0  0  0  0  0  0  0  0  0  0  0  0
   19.3144   19.9649   21.3848 C   0  0  0  0  0  0  0  0  0  0  0  0
   18.5119   20.4480   21.9591 H   0  0  0  0  0  0  0  0  0  0  0  0
   19.1071   20.1771   20.3268 H   0  0  0  0  0  0  0  0  0  0  0  0
   20.6713   20.5996   21.7538 C   0  0  0  0  0  0  0  0  0  0  0  0
   20.8499   20.5600   22.8353 H   0  0  0  0  0  0  0  0  0  0  0  0
   20.6955   21.6553   21.4541 H   0  0  0  0  0  0  0  0  0  0  0  0
   21.4982   20.0841   21.2482 H   0  0  0  0  0  0  0  0  0  0  0  0
  1  2  1  0  0  0  0
  1  3  2  0  0  0  0
  1  4  1  0  0  0  0
  4  5  1  0  0  0  0
  4  6  1  0  0  0  0
  4  7  1  0  0  0  0
  7  8  1  0  0  0  0
  7  9  1  0  0  0  0
  7 10  1  0  0  0  0
 10 11  1  0  0  0  0
 10 12  1  0  0  0  0
 10 13  1  0  0  0  0
 13 14  1  0  0  0  0
 13 15  1  0  0  0  0
 13 16  1  0  0  0  0
M  END
> <VConfSearch Rank>
549

> <Conf_Id>
47

> <Delta U+W>
2.301

> <U+W>
-54.603

> <U>
11.258

> <W>
-65.861

> <W(PB)>
-67.702

> <W(SA)>
1.841

> <Valence>
8.169

> <Coulomb>
2.735

> <VdW>
0.355

> <VdW6>
-6.245

> <VdW12>
6.600

> <Bond>
0.149

> <Angle>
3.168

> <Pdih>
4.840

> <Idih>
0.011

> <Tether>
0.000

$$$$
VeraChem MOL file


 16 15  0  0  0  0  0  0  0  0999 V2000     
   18.2160   18.4076   21.4122 C   0  0  0  0  0  0  0  0  0  0  0  0
   18.2096   18.7384   20.2427 O   0  5  0  0  0  0  0  0  0  0  0  0
   17.2565   18.5320   22.1475 O   0  0  0  0  0  0  0  0  0  0  0  0
   19.4624   17.7176   21.9637 C   0  0  0  0  0  0  0  0  0  0  0  0
   19.5857   16.7945   21.3855 H   0  0  0  0  0  0  0  0  0  0  0  0
   19.2732   17.4148   23.0008 H   0  0  0  0  0  0  0  0  0  0  0  0
   20.7745   18.5469   21.8764 C   0  0  0  0  0  0  0  0  0  0  0  0
   21.6209   17.8507   21.9489 H   0  0  0  0  0  0  0  0  0  0  0  0
   20.8542   19.0185   20.8870 H   0  0  0  0  0  0  0  0  0  0  0  0
   20.9424   19.6112   22.9875 C   0  0  0  0  0  0  0  0  0  0  0  0
   21.9605   20.0200   22.9258 H   0  0  0  0  0  0  0  0  0  0  0  0
   20.8602   19.1361   23.9747 H   0  0  0  0  0  0  0  0  0  0  0  0
   19.9398   20.7797   22.8887 C   0  0  0  0  0  0  0  0  0  0  0  0
   20.1945   21.5661   23.6109 H   0  0  0  0  0  0  0  0  0  0  0  0
   18.9176   20.4486   23.1088 H   0  0  0  0  0  0  0  0  0  0  0  0
   19.9502   21.2243   21.8849 H   0  0  0  0  0  0  0  0  0  0  0  0
  1  2  1  0  0  0  0
  1  3  2  0  0  0  0
  1  4  1  0  0  0  0
  4  5  1  0  0  0  0
  4  6  1  0  0  0  0
  4  7  1  0  0  0  0
  7  8  1  0  0  0  0
  7  9  1  0  0  0  0
  7 10  1  0  0  0  0
 10 11  1  0  0  0  0
 10 12  1  0  0  0  0
 10 13  1  0  0  0  0
 13 14  1  0  0  0  0
 13 15  1  0  0  0  0
 13 16  1  0  0  0  0
M  END
> <VConfSearch Rank>
550

> <Conf_Id>
45

> <Delta U+W>
2.303

> <U+W>
-54.601

> <U>
11.258

> <W>
-65.860

> <W(PB)>
-67.709

> <W(SA)>
1.849

> <Valence>
8.169

> <Coulomb>
2.735

> <VdW>
0.355

> <VdW6>
-6.245

> <VdW12>
6.600

> <Bond>
0.149

> <Angle>
3.168

> <Pdih>
4.840

> <Idih>
0.011

> <Tether>
0.000

$$$$
VeraChem MOL file


 16 15  0  0  0  0  0  0  0  0999 V2000     
   20.2159   19.6598   19.2311 C   0  0  0  0  0  0  0  0  0  0  0  0
   20.7568   18.6039   18.9661 O   0  5  0  0  0  0  0  0  0  0  0  0
   19.9665   20.5043   18.3945 O   0  0  0  0  0  0  0  0  0  0  0  0
   19.8189   19.9692   20.6756 C   0  0  0  0  0  0  0  0  0  0  0  0
   18.7402   20.1649   20.6838 H   0  0  0  0  0  0  0  0  0  0  0  0
   20.3167   20.9042   20.9587 H   0  0  0  0  0  0  0  0  0  0  0  0
   20.1580   18.8620   21.7088 C   0  0  0  0  0  0  0  0  0  0  0  0
   19.6610   17.9264   21.4170 H   0  0  0  0  0  0  0  0  0  0  0  0
   21.2392   18.6664   21.6922 H   0  0  0  0  0  0  0  0  0  0  0  0
   19.7239   19.2570   23.1360 C   0  0  0  0  0  0  0  0  0  0  0  0
   18.6424   19.4512   23.1543 H   0  0  0  0  0  0  0  0  0  0  0  0
   20.2215   20.1917   23.4297 H   0  0  0  0  0  0  0  0  0  0  0  0
   20.0632   18.1536   24.1574 C   0  0  0  0  0  0  0  0  0  0  0  0
   19.5530   17.2146   23.9052 H   0  0  0  0  0  0  0  0  0  0  0  0
   19.7481   18.4502   25.1663 H   0  0  0  0  0  0  0  0  0  0  0  0
   21.1437   17.9606   24.1827 H   0  0  0  0  0  0  0  0  0  0  0  0
  1  2  1  0  0  0  0
  1  3  2  0  0  0  0
  1  4  1  0  0  0  0
  4  5  1  0  0  0  0
  4  6  1  0  0  0  0
  4  7  1  0  0  0  0
  7  8  1  0  0  0  0
  7  9  1  0  0  0  0
  7 10  1  0  0  0  0
 10 11  1  0  0  0  0
 10 12  1  0  0  0  0
 10 13  1  0  0  0  0
 13 14  1  0  0  0  0
 13 15  1  0  0  0  0
 13 16  1  0  0  0  0
M  END
> <VConfSearch Rank>
551

> <Conf_Id>
0

> <Delta U+W>
0.000

> <U+W>
-56.904

> <U>
7.329

> <W>
-64.233

> <W(PB)>
-66.148

> <W(SA)>
1.915

> <Valence>
6.755

> <Coulomb>
-0.421

> <VdW>
0.995

> <VdW6>
-4.495

> <VdW12>
5.490

> <Bond>
0.106

> <Angle>
2.715

> <Pdih>
3.934

> <Idih>
0.000

> <Tether>
0.000

$$$$
VeraChem MOL file


 16 15  0  0  0  0  0  0  0  0999 V2000     
   19.2937   17.4042   23.9323 C   0  0  0  0  0  0  0  0  0  0  0  0
   20.1985   17.0451   24.6591 O   0  5  0  0  0  0  0  0  0  0  0  0
   18.1416   17.5194   24.3002 O   0  0  0  0  0  0  0  0  0  0  0  0
   19.6253   17.7465   22.4841 C   0  0  0  0  0  0  0  0  0  0  0  0
   18.7558   17.4923   21.8659 H   0  0  0  0  0  0  0  0  0  0  0  0
   20.4516   17.1014   22.1618 H   0  0  0  0  0  0  0  0  0  0  0  0
   20.0028   19.2355   22.2879 C   0  0  0  0  0  0  0  0  0  0  0  0
   19.1709   19.8686   22.6264 H   0  0  0  0  0  0  0  0  0  0  0  0
   20.8667   19.4776   22.9224 H   0  0  0  0  0  0  0  0  0  0  0  0
   20.3335   19.5548   20.8150 C   0  0  0  0  0  0  0  0  0  0  0  0
   19.4696   19.3134   20.1803 H   0  0  0  0  0  0  0  0  0  0  0  0
   21.1658   18.9223   20.4763 H   0  0  0  0  0  0  0  0  0  0  0  0
   20.7083   21.0381   20.6273 C   0  0  0  0  0  0  0  0  0  0  0  0
   21.5896   21.2996   21.2276 H   0  0  0  0  0  0  0  0  0  0  0  0
   19.8808   21.6936   20.9294 H   0  0  0  0  0  0  0  0  0  0  0  0
   20.9403   21.2482   19.5751 H   0  0  0  0  0  0  0  0  0  0  0  0
  1  2  1  0  0  0  0
  1  3  2  0  0  0  0
  1  4  1  0  0  0  0
  4  5  1  0  0  0  0
  4  6  1  0  0  0  0
  4  7  1  0  0  0  0
  7  8  1  0  0  0  0
  7  9  1  0  0  0  0
  7 10  1  0  0  0  0
 10 11  1  0  0  0  0
 10 12  1  0  0  0  0
 10 13  1  0  0  0  0
 13 14  1  0  0  0  0
 13 15  1  0  0  0  0
 13 16  1  0  0  0  0
M  END
> <VConfSearch Rank>
552

> <Conf_Id>
22

> <Delta U+W>
-1.185

> <U+W>
-58.089

> <U>
6.298

> <W>
-64.387

> <W(PB)>
-66.329

> <W(SA)>
1.942

> <Valence>
6.246

> <Coulomb>
-0.408

> <VdW>
0.460

> <VdW6>
-4.207

> <VdW12>
4.667

> <Bond>
0.072

> <Angle>
2.246

> <Pdih>
3.928

> <Idih>
0.001

> <Tether>
0.000

$$$$
VeraChem MOL file


 16 15  0  0  0  0  0  0  0  0999 V2000     
   21.6606   20.1108   23.6890 C   0  0  0  0  0  0  0  0  0  0  0  0
   21.8181   21.3055   23.8436 O   0  5  0  0  0  0  0  0  0  0  0  0
   22.4859   19.2780   24.0073 O   0  0  0  0  0  0  0  0  0  0  0  0
   20.3655   19.6326   23.0421 C   0  0  0  0  0  0  0  0  0  0  0  0
   19.5658   20.3265   23.3277 H   0  0  0  0  0  0  0  0  0  0  0  0
   20.1175   18.6557   23.4727 H   0  0  0  0  0  0  0  0  0  0  0  0
   20.4644   19.5379   21.4974 C   0  0  0  0  0  0  0  0  0  0  0  0
   20.7985   20.5083   21.1048 H   0  0  0  0  0  0  0  0  0  0  0  0
   21.2393   18.8086   21.2237 H   0  0  0  0  0  0  0  0  0  0  0  0
   19.1283   19.1604   20.8172 C   0  0  0  0  0  0  0  0  0  0  0  0
   19.2567   19.2223   19.7277 H   0  0  0  0  0  0  0  0  0  0  0  0
   18.3562   19.8962   21.0813 H   0  0  0  0  0  0  0  0  0  0  0  0
   18.6397   17.7419   21.1809 C   0  0  0  0  0  0  0  0  0  0  0  0
   18.3889   17.6652   22.2463 H   0  0  0  0  0  0  0  0  0  0  0  0
   19.4074   16.9913   20.9522 H   0  0  0  0  0  0  0  0  0  0  0  0
   17.7380   17.4883   20.6084 H   0  0  0  0  0  0  0  0  0  0  0  0
  1  2  1  0  0  0  0
  1  3  2  0  0  0  0
  1  4  1  0  0  0  0
  4  5  1  0  0  0  0
  4  6  1  0  0  0  0
  4  7  1  0  0  0  0
  7  8  1  0  0  0  0
  7  9  1  0  0  0  0
  7 10  1  0  0  0  0
 10 11  1  0  0  0  0
 10 12  1  0  0  0  0
 10 13  1  0  0  0  0
 13 14  1  0  0  0  0
 13 15  1  0  0  0  0
 13 16  1  0  0  0  0
M  END
> <VConfSearch Rank>
553

> <Conf_Id>
36

> <Delta U+W>
-0.427

> <U+W>
-57.331

> <U>
7.263

> <W>
-64.594

> <W(PB)>
-66.513

> <W(SA)>
1.920

> <Valence>
6.734

> <Coulomb>
-0.068

> <VdW>
0.598

> <VdW6>
-4.819

> <VdW12>
5.417

> <Bond>
0.107

> <Angle>
2.469

> <Pdih>
4.157

> <Idih>
0.001

> <Tether>
0.000

$$$$
VeraChem MOL file


 16 15  0  0  0  0  0  0  0  0999 V2000     
   22.5369   19.0557   21.7175 C   0  0  0  0  0  0  0  0  0  0  0  0
   23.0305   18.2355   22.4654 O   0  5  0  0  0  0  0  0  0  0  0  0
   23.1664   19.9560   21.1987 O   0  0  0  0  0  0  0  0  0  0  0  0
   21.0425   18.9627   21.4300 C   0  0  0  0  0  0  0  0  0  0  0  0
   20.7636   17.9030   21.4488 H   0  0  0  0  0  0  0  0  0  0  0  0
   20.8686   19.3268   20.4103 H   0  0  0  0  0  0  0  0  0  0  0  0
   20.1848   19.7698   22.4390 C   0  0  0  0  0  0  0  0  0  0  0  0
   20.3347   19.3685   23.4508 H   0  0  0  0  0  0  0  0  0  0  0  0
   20.5466   20.8072   22.4595 H   0  0  0  0  0  0  0  0  0  0  0  0
   18.6769   19.7763   22.0979 C   0  0  0  0  0  0  0  0  0  0  0  0
   18.5258   20.1885   21.0906 H   0  0  0  0  0  0  0  0  0  0  0  0
   18.1607   20.4542   22.7916 H   0  0  0  0  0  0  0  0  0  0  0  0
   18.0260   18.3796   22.1902 C   0  0  0  0  0  0  0  0  0  0  0  0
   18.4333   17.6967   21.4342 H   0  0  0  0  0  0  0  0  0  0  0  0
   16.9429   18.4495   22.0254 H   0  0  0  0  0  0  0  0  0  0  0  0
   18.1891   17.9348   23.1806 H   0  0  0  0  0  0  0  0  0  0  0  0
  1  2  1  0  0  0  0
  1  3  2  0  0  0  0
  1  4  1  0  0  0  0
  4  5  1  0  0  0  0
  4  6  1  0  0  0  0
  4  7  1  0  0  0  0
  7  8  1  0  0  0  0
  7  9  1  0  0  0  0
  7 10  1  0  0  0  0
 10 11  1  0  0  0  0
 10 12  1  0  0  0  0
 10 13  1  0  0  0  0
 13 14  1  0  0  0  0
 13 15  1  0  0  0  0
 13 16  1  0  0  0  0
M  END
> <VConfSearch Rank>
554

> <Conf_Id>
17

> <Delta U+W>
-0.432

> <U+W>
-57.336

> <U>
7.263

> <W>
-64.599

> <W(PB)>
-66.503

> <W(SA)>
1.904

> <Valence>
6.734

> <Coulomb>
-0.068

> <VdW>
0.598

> <VdW6>
-4.819

> <VdW12>
5.417

> <Bond>
0.107

> <Angle>
2.469

> <Pdih>
4.157

> <Idih>
0.001

> <Tether>
0.000

$$$$
VeraChem MOL file


 16 15  0  0  0  0  0  0  0  0999 V2000     
   19.7074   16.8156   21.8936 C   0  0  0  0  0  0  0  0  0  0  0  0
   19.9595   16.3661   20.7932 O   0  5  0  0  0  0  0  0  0  0  0  0
   20.0872   16.3067   22.9295 O   0  0  0  0  0  0  0  0  0  0  0  0
   18.8472   18.0735   21.9775 C   0  0  0  0  0  0  0  0  0  0  0  0
   18.4289   18.1454   22.9889 H   0  0  0  0  0  0  0  0  0  0  0  0
   18.0010   17.9387   21.2934 H   0  0  0  0  0  0  0  0  0  0  0  0
   19.6009   19.3799   21.6164 C   0  0  0  0  0  0  0  0  0  0  0  0
   20.0384   19.2825   20.6130 H   0  0  0  0  0  0  0  0  0  0  0  0
   18.8788   20.2062   21.5676 H   0  0  0  0  0  0  0  0  0  0  0  0
   20.7057   19.7295   22.6369 C   0  0  0  0  0  0  0  0  0  0  0  0
   21.4458   18.9182   22.6792 H   0  0  0  0  0  0  0  0  0  0  0  0
   20.2689   19.8144   23.6415 H   0  0  0  0  0  0  0  0  0  0  0  0
   21.4157   21.0486   22.2731 C   0  0  0  0  0  0  0  0  0  0  0  0
   21.8883   20.9803   21.2845 H   0  0  0  0  0  0  0  0  0  0  0  0
   22.1978   21.2819   23.0073 H   0  0  0  0  0  0  0  0  0  0  0  0
   20.7055   21.8858   22.2569 H   0  0  0  0  0  0  0  0  0  0  0  0
  1  2  1  0  0  0  0
  1  3  2  0  0  0  0
  1  4  1  0  0  0  0
  4  5  1  0  0  0  0
  4  6  1  0  0  0  0
  4  7  1  0  0  0  0
  7  8  1  0  0  0  0
  7  9  1  0  0  0  0
  7 10  1  0  0  0  0
 10 11  1  0  0  0  0
 10 12  1  0  0  0  0
 10 13  1  0  0  0  0
 13 14  1  0  0  0  0
 13 15  1  0  0  0  0
 13 16  1  0  0  0  0
M  END
> <VConfSearch Rank>
555

> <Conf_Id>
19

> <Delta U+W>
0.048

> <U+W>
-56.856

> <U>
8.276

> <W>
-65.132

> <W(PB)>
-67.031

> <W(SA)>
1.899

> <Valence>
6.513

> <Coulomb>
1.428

> <VdW>
0.335

> <VdW6>
-5.021

> <VdW12>
5.356

> <Bond>
0.092

> <Angle>
2.417

> <Pdih>
4.003

> <Idih>
0.001

> <Tether>
0.000

$$$$
VeraChem MOL file


 16 15  0  0  0  0  0  0  0  0999 V2000     
   21.6827   17.7104   22.5328 C   0  0  0  0  0  0  0  0  0  0  0  0
   22.6647   17.9408   21.8553 O   0  5  0  0  0  0  0  0  0  0  0  0
   21.2098   16.6001   22.6733 O   0  0  0  0  0  0  0  0  0  0  0  0
   21.0234   18.8764   23.2645 C   0  0  0  0  0  0  0  0  0  0  0  0
   21.8218   19.4619   23.7355 H   0  0  0  0  0  0  0  0  0  0  0  0
   20.4034   18.4756   24.0757 H   0  0  0  0  0  0  0  0  0  0  0  0
   20.1764   19.7989   22.3498 C   0  0  0  0  0  0  0  0  0  0  0  0
   19.8590   20.6783   22.9264 H   0  0  0  0  0  0  0  0  0  0  0  0
   20.8028   20.1698   21.5265 H   0  0  0  0  0  0  0  0  0  0  0  0
   18.9303   19.0876   21.7794 C   0  0  0  0  0  0  0  0  0  0  0  0
   18.3113   18.7066   22.6035 H   0  0  0  0  0  0  0  0  0  0  0  0
   19.2370   18.2170   21.1830 H   0  0  0  0  0  0  0  0  0  0  0  0
   18.0891   20.0358   20.9020 C   0  0  0  0  0  0  0  0  0  0  0  0
   17.7386   20.9001   21.4813 H   0  0  0  0  0  0  0  0  0  0  0  0
   17.2085   19.5148   20.5041 H   0  0  0  0  0  0  0  0  0  0  0  0
   18.6759   20.4076   20.0518 H   0  0  0  0  0  0  0  0  0  0  0  0
  1  2  1  0  0  0  0
  1  3  2  0  0  0  0
  1  4  1  0  0  0  0
  4  5  1  0  0  0  0
  4  6  1  0  0  0  0
  4  7  1  0  0  0  0
  7  8  1  0  0  0  0
  7  9  1  0  0  0  0
  7 10  1  0  0  0  0
 10 11  1  0  0  0  0
 10 12  1  0  0  0  0
 10 13  1  0  0  0  0
 13 14  1  0  0  0  0
 13 15  1  0  0  0  0
 13 16  1  0  0  0  0
M  END
> <VConfSearch Rank>
556

> <Conf_Id>
20

> <Delta U+W>
-0.010

> <U+W>
-56.914

> <U>
8.277

> <W>
-65.191

> <W(PB)>
-67.081

> <W(SA)>
1.890

> <Valence>
6.513

> <Coulomb>
1.429

> <VdW>
0.335

> <VdW6>
-5.021

> <VdW12>
5.356

> <Bond>
0.092

> <Angle>
2.417

> <Pdih>
4.002

> <Idih>
0.001

> <Tether>
0.000

$$$$
VeraChem MOL file


 16 15  0  0  0  0  0  0  0  0999 V2000     
   21.0195   17.3579   22.0060 C   0  0  0  0  0  0  0  0  0  0  0  0
   20.7767   16.3513   22.6420 O   0  5  0  0  0  0  0  0  0  0  0  0
   22.1363   17.8212   21.8849 O   0  0  0  0  0  0  0  0  0  0  0  0
   19.8636   18.0560   21.2944 C   0  0  0  0  0  0  0  0  0  0  0  0
   19.3255   17.2921   20.7211 H   0  0  0  0  0  0  0  0  0  0  0  0
   20.2750   18.7605   20.5624 H   0  0  0  0  0  0  0  0  0  0  0  0
   18.8708   18.7750   22.2483 C   0  0  0  0  0  0  0  0  0  0  0  0
   18.0345   19.1774   21.6610 H   0  0  0  0  0  0  0  0  0  0  0  0
   18.4376   18.0319   22.9320 H   0  0  0  0  0  0  0  0  0  0  0  0
   19.5010   19.9149   23.0836 C   0  0  0  0  0  0  0  0  0  0  0  0
   20.3176   19.5181   23.7027 H   0  0  0  0  0  0  0  0  0  0  0  0
   18.7444   20.3010   23.7804 H   0  0  0  0  0  0  0  0  0  0  0  0
   20.0260   21.0826   22.2214 C   0  0  0  0  0  0  0  0  0  0  0  0
   20.8707   20.7670   21.5958 H   0  0  0  0  0  0  0  0  0  0  0  0
   20.3752   21.9041   22.8601 H   0  0  0  0  0  0  0  0  0  0  0  0
   19.2371   21.4746   21.5664 H   0  0  0  0  0  0  0  0  0  0  0  0
  1  2  1  0  0  0  0
  1  3  2  0  0  0  0
  1  4  1  0  0  0  0
  4  5  1  0  0  0  0
  4  6  1  0  0  0  0
  4  7  1  0  0  0  0
  7  8  1  0  0  0  0
  7  9  1  0  0  0  0
  7 10  1  0  0  0  0
 10 11  1  0  0  0  0
 10 12  1  0  0  0  0
 10 13  1  0  0  0  0
 13 14  1  0  0  0  0
 13 15  1  0  0  0  0
 13 16  1  0  0  0  0
M  END
> <VConfSearch Rank>
557

> <Conf_Id>
37

> <Delta U+W>
1.063

> <U+W>
-55.841

> <U>
9.719

> <W>
-65.560

> <W(PB)>
-67.414

> <W(SA)>
1.854

> <Valence>
7.002

> <Coulomb>
2.402

> <VdW>
0.314

> <VdW6>
-5.861

> <VdW12>
6.175

> <Bond>
0.134

> <Angle>
2.733

> <Pdih>
4.133

> <Idih>
0.002

> <Tether>
0.000

$$$$
VeraChem MOL file


 16 15  0  0  0  0  0  0  0  0999 V2000     
   20.2227   17.4863   20.7986 C   0  0  0  0  0  0  0  0  0  0  0  0
   19.7503   17.5281   19.6797 O   0  5  0  0  0  0  0  0  0  0  0  0
   21.3308   17.0517   21.0425 O   0  0  0  0  0  0  0  0  0  0  0  0
   19.3629   17.9744   21.9615 C   0  0  0  0  0  0  0  0  0  0  0  0
   19.8079   17.6236   22.8996 H   0  0  0  0  0  0  0  0  0  0  0  0
   18.3886   17.4790   21.8762 H   0  0  0  0  0  0  0  0  0  0  0  0
   19.1542   19.5132   21.9961 C   0  0  0  0  0  0  0  0  0  0  0  0
   18.6584   19.8230   21.0658 H   0  0  0  0  0  0  0  0  0  0  0  0
   18.4630   19.7646   22.8118 H   0  0  0  0  0  0  0  0  0  0  0  0
   20.4576   20.3299   22.1637 C   0  0  0  0  0  0  0  0  0  0  0  0
   20.2150   21.3992   22.0931 H   0  0  0  0  0  0  0  0  0  0  0  0
   21.1445   20.1133   21.3337 H   0  0  0  0  0  0  0  0  0  0  0  0
   21.1711   20.0688   23.5073 C   0  0  0  0  0  0  0  0  0  0  0  0
   20.4942   20.2441   24.3536 H   0  0  0  0  0  0  0  0  0  0  0  0
   22.0340   20.7378   23.6196 H   0  0  0  0  0  0  0  0  0  0  0  0
   21.5412   19.0374   23.5675 H   0  0  0  0  0  0  0  0  0  0  0  0
  1  2  1  0  0  0  0
  1  3  2  0  0  0  0
  1  4  1  0  0  0  0
  4  5  1  0  0  0  0
  4  6  1  0  0  0  0
  4  7  1  0  0  0  0
  7  8  1  0  0  0  0
  7  9  1  0  0  0  0
  7 10  1  0  0  0  0
 10 11  1  0  0  0  0
 10 12  1  0  0  0  0
 10 13  1  0  0  0  0
 13 14  1  0  0  0  0
 13 15  1  0  0  0  0
 13 16  1  0  0  0  0
M  END
> <VConfSearch Rank>
558

> <Conf_Id>
39

> <Delta U+W>
1.129

> <U+W>
-55.775

> <U>
9.718

> <W>
-65.493

> <W(PB)>
-67.361

> <W(SA)>
1.869

> <Valence>
7.002

> <Coulomb>
2.402

> <VdW>
0.314

> <VdW6>
-5.861

> <VdW12>
6.175

> <Bond>
0.134

> <Angle>
2.734

> <Pdih>
4.133

> <Idih>
0.002

> <Tether>
0.000

$$$$
VeraChem MOL file


 16 15  0  0  0  0  0  0  0  0999 V2000     
   19.8770   19.2754   20.2837 C   0  0  0  0  0  0  0  0  0  0  0  0
   18.9819   20.0146   19.9242 O   0  5  0  0  0  0  0  0  0  0  0  0
   20.0871   18.1876   19.7840 O   0  0  0  0  0  0  0  0  0  0  0  0
   20.8409   19.7791   21.3564 C   0  0  0  0  0  0  0  0  0  0  0  0
   20.5576   20.8001   21.6398 H   0  0  0  0  0  0  0  0  0  0  0  0
   21.8253   19.8483   20.8791 H   0  0  0  0  0  0  0  0  0  0  0  0
   20.9551   18.8822   22.6211 C   0  0  0  0  0  0  0  0  0  0  0  0
   21.0350   17.8267   22.3257 H   0  0  0  0  0  0  0  0  0  0  0  0
   21.8991   19.1272   23.1264 H   0  0  0  0  0  0  0  0  0  0  0  0
   19.8103   19.0616   23.6472 C   0  0  0  0  0  0  0  0  0  0  0  0
   19.7326   20.1182   23.9384 H   0  0  0  0  0  0  0  0  0  0  0  0
   20.0722   18.5086   24.5599 H   0  0  0  0  0  0  0  0  0  0  0  0
   18.4401   18.5588   23.1474 C   0  0  0  0  0  0  0  0  0  0  0  0
   18.0554   19.1882   22.3357 H   0  0  0  0  0  0  0  0  0  0  0  0
   17.7029   18.5818   23.9602 H   0  0  0  0  0  0  0  0  0  0  0  0
   18.5089   17.5263   22.7806 H   0  0  0  0  0  0  0  0  0  0  0  0
  1  2  1  0  0  0  0
  1  3  2  0  0  0  0
  1  4  1  0  0  0  0
  4  5  1  0  0  0  0
  4  6  1  0  0  0  0
  4  7  1  0  0  0  0
  7  8  1  0  0  0  0
  7  9  1  0  0  0  0
  7 10  1  0  0  0  0
 10 11  1  0  0  0  0
 10 12  1  0  0  0  0
 10 13  1  0  0  0  0
 13 14  1  0  0  0  0
 13 15  1  0  0  0  0
 13 16  1  0  0  0  0
M  END
> <VConfSearch Rank>
559

> <Conf_Id>
47

> <Delta U+W>
2.301

> <U+W>
-54.603

> <U>
11.258

> <W>
-65.861

> <W(PB)>
-67.702

> <W(SA)>
1.841

> <Valence>
8.169

> <Coulomb>
2.735

> <VdW>
0.355

> <VdW6>
-6.245

> <VdW12>
6.600

> <Bond>
0.149

> <Angle>
3.168

> <Pdih>
4.840

> <Idih>
0.011

> <Tether>
0.000

$$$$
VeraChem MOL file


 16 15  0  0  0  0  0  0  0  0999 V2000     
   21.3328   17.8198   22.6983 C   0  0  0  0  0  0  0  0  0  0  0  0
   22.0225   17.6663   21.7094 O   0  5  0  0  0  0  0  0  0  0  0  0
   20.9171   16.8986   23.3730 O   0  0  0  0  0  0  0  0  0  0  0  0
   21.0482   19.2447   23.1698 C   0  0  0  0  0  0  0  0  0  0  0  0
   22.0210   19.6924   23.4045 H   0  0  0  0  0  0  0  0  0  0  0  0
   20.4868   19.2037   24.1111 H   0  0  0  0  0  0  0  0  0  0  0  0
   20.3109   20.1496   22.1429 C   0  0  0  0  0  0  0  0  0  0  0  0
   20.4857   21.1963   22.4265 H   0  0  0  0  0  0  0  0  0  0  0  0
   20.7584   20.0271   21.1467 H   0  0  0  0  0  0  0  0  0  0  0  0
   18.7806   19.9301   22.0686 C   0  0  0  0  0  0  0  0  0  0  0  0
   18.3466   20.7201   21.4402 H   0  0  0  0  0  0  0  0  0  0  0  0
   18.3374   20.0517   23.0667 H   0  0  0  0  0  0  0  0  0  0  0  0
   18.3743   18.5616   21.4835 C   0  0  0  0  0  0  0  0  0  0  0  0
   17.2889   18.5185   21.3258 H   0  0  0  0  0  0  0  0  0  0  0  0
   18.6416   17.7420   22.1616 H   0  0  0  0  0  0  0  0  0  0  0  0
   18.8651   18.3846   20.5175 H   0  0  0  0  0  0  0  0  0  0  0  0
  1  2  1  0  0  0  0
  1  3  2  0  0  0  0
  1  4  1  0  0  0  0
  4  5  1  0  0  0  0
  4  6  1  0  0  0  0
  4  7  1  0  0  0  0
  7  8  1  0  0  0  0
  7  9  1  0  0  0  0
  7 10  1  0  0  0  0
 10 11  1  0  0  0  0
 10 12  1  0  0  0  0
 10 13  1  0  0  0  0
 13 14  1  0  0  0  0
 13 15  1  0  0  0  0
 13 16  1  0  0  0  0
M  END
> <VConfSearch Rank>
560

> <Conf_Id>
45

> <Delta U+W>
2.303

> <U+W>
-54.601

> <U>
11.258

> <W>
-65.860

> <W(PB)>
-67.709

> <W(SA)>
1.849

> <Valence>
8.169

> <Coulomb>
2.735

> <VdW>
0.355

> <VdW6>
-6.245

> <VdW12>
6.600

> <Bond>
0.149

> <Angle>
3.168

> <Pdih>
4.840

> <Idih>
0.011

> <Tether>
0.000

$$$$
VeraChem MOL file


 16 15  0  0  0  0  0  0  0  0999 V2000     
   19.5080   21.7211   22.7132 C   0  0  0  0  0  0  0  0  0  0  0  0
   19.4112   21.4481   23.8939 O   0  5  0  0  0  0  0  0  0  0  0  0
   19.3853   22.8501   22.2824 O   0  0  0  0  0  0  0  0  0  0  0  0
   19.7968   20.6138   21.6981 C   0  0  0  0  0  0  0  0  0  0  0  0
   20.7150   20.8892   21.1659 H   0  0  0  0  0  0  0  0  0  0  0  0
   18.9841   20.6244   20.9622 H   0  0  0  0  0  0  0  0  0  0  0  0
   19.9447   19.1887   22.2944 C   0  0  0  0  0  0  0  0  0  0  0  0
   20.7566   19.1857   23.0349 H   0  0  0  0  0  0  0  0  0  0  0  0
   19.0240   18.9206   22.8309 H   0  0  0  0  0  0  0  0  0  0  0  0
   20.2341   18.1373   21.2026 C   0  0  0  0  0  0  0  0  0  0  0  0
   21.1556   18.4034   20.6664 H   0  0  0  0  0  0  0  0  0  0  0  0
   19.4219   18.1381   20.4624 H   0  0  0  0  0  0  0  0  0  0  0  0
   20.3799   16.7242   21.8009 C   0  0  0  0  0  0  0  0  0  0  0  0
   21.2065   16.6867   22.5226 H   0  0  0  0  0  0  0  0  0  0  0  0
   20.5852   15.9893   21.0117 H   0  0  0  0  0  0  0  0  0  0  0  0
   19.4600   16.4195   22.3170 H   0  0  0  0  0  0  0  0  0  0  0  0
  1  2  1  0  0  0  0
  1  3  2  0  0  0  0
  1  4  1  0  0  0  0
  4  5  1  0  0  0  0
  4  6  1  0  0  0  0
  4  7  1  0  0  0  0
  7  8  1  0  0  0  0
  7  9  1  0  0  0  0
  7 10  1  0  0  0  0
 10 11  1  0  0  0  0
 10 12  1  0  0  0  0
 10 13  1  0  0  0  0
 13 14  1  0  0  0  0
 13 15  1  0  0  0  0
 13 16  1  0  0  0  0
M  END
> <VConfSearch Rank>
561

> <Conf_Id>
0

> <Delta U+W>
0.000

> <U+W>
-56.904

> <U>
7.329

> <W>
-64.233

> <W(PB)>
-66.148

> <W(SA)>
1.915

> <Valence>
6.755

> <Coulomb>
-0.421

> <VdW>
0.995

> <VdW6>
-4.495

> <VdW12>
5.490

> <Bond>
0.106

> <Angle>
2.715

> <Pdih>
3.934

> <Idih>
0.000

> <Tether>
0.000

$$$$
VeraChem MOL file


 16 15  0  0  0  0  0  0  0  0999 V2000     
   19.0931   21.5821   22.6675 C   0  0  0  0  0  0  0  0  0  0  0  0
   19.4451   21.9581   23.7678 O   0  5  0  0  0  0  0  0  0  0  0  0
   18.8672   22.3343   21.7407 O   0  0  0  0  0  0  0  0  0  0  0  0
   18.9443   20.0831   22.4318 C   0  0  0  0  0  0  0  0  0  0  0  0
   18.1416   19.9310   21.7002 H   0  0  0  0  0  0  0  0  0  0  0  0
   18.6181   19.6208   23.3714 H   0  0  0  0  0  0  0  0  0  0  0  0
   20.2519   19.4183   21.9356 C   0  0  0  0  0  0  0  0  0  0  0  0
   20.5722   19.9000   21.0013 H   0  0  0  0  0  0  0  0  0  0  0  0
   21.0488   19.5899   22.6725 H   0  0  0  0  0  0  0  0  0  0  0  0
   20.0741   17.9031   21.7051 C   0  0  0  0  0  0  0  0  0  0  0  0
   19.2777   17.7311   20.9677 H   0  0  0  0  0  0  0  0  0  0  0  0
   19.7544   17.4209   22.6394 H   0  0  0  0  0  0  0  0  0  0  0  0
   21.3792   17.2481   21.2114 C   0  0  0  0  0  0  0  0  0  0  0  0
   22.1858   17.3780   21.9450 H   0  0  0  0  0  0  0  0  0  0  0  0
   21.7056   17.6904   20.2610 H   0  0  0  0  0  0  0  0  0  0  0  0
   21.2356   16.1714   21.0526 H   0  0  0  0  0  0  0  0  0  0  0  0
  1  2  1  0  0  0  0
  1  3  2  0  0  0  0
  1  4  1  0  0  0  0
  4  5  1  0  0  0  0
  4  6  1  0  0  0  0
  4  7  1  0  0  0  0
  7  8  1  0  0  0  0
  7  9  1  0  0  0  0
  7 10  1  0  0  0  0
 10 11  1  0  0  0  0
 10 12  1  0  0  0  0
 10 13  1  0  0  0  0
 13 14  1  0  0  0  0
 13 15  1  0  0  0  0
 13 16  1  0  0  0  0
M  END
> <VConfSearch Rank>
562

> <Conf_Id>
22

> <Delta U+W>
-1.185

> <U+W>
-58.089

> <U>
6.298

> <W>
-64.387

> <W(PB)>
-66.329

> <W(SA)>
1.942

> <Valence>
6.246

> <Coulomb>
-0.408

> <VdW>
0.460

> <VdW6>
-4.207

> <VdW12>
4.667

> <Bond>
0.072

> <Angle>
2.246

> <Pdih>
3.928

> <Idih>
0.001

> <Tether>
0.000

$$$$
VeraChem MOL file


 16 15  0  0  0  0  0  0  0  0999 V2000     
   18.6624   18.9105   19.7643 C   0  0  0  0  0  0  0  0  0  0  0  0
   19.0178   19.4614   18.7415 O   0  5  0  0  0  0  0  0  0  0  0  0
   17.5279   18.5216   19.9583 O   0  0  0  0  0  0  0  0  0  0  0  0
   19.6915   18.7147   20.8722 C   0  0  0  0  0  0  0  0  0  0  0  0
   20.6723   18.5690   20.4039 H   0  0  0  0  0  0  0  0  0  0  0  0
   19.4422   17.7871   21.4000 H   0  0  0  0  0  0  0  0  0  0  0  0
   19.7437   19.9076   21.8617 C   0  0  0  0  0  0  0  0  0  0  0  0
   19.9087   20.8324   21.2917 H   0  0  0  0  0  0  0  0  0  0  0  0
   18.7684   20.0169   22.3558 H   0  0  0  0  0  0  0  0  0  0  0  0
   20.8567   19.7754   22.9267 C   0  0  0  0  0  0  0  0  0  0  0  0
   20.8964   20.7037   23.5132 H   0  0  0  0  0  0  0  0  0  0  0  0
   21.8334   19.6778   22.4329 H   0  0  0  0  0  0  0  0  0  0  0  0
   20.6404   18.5877   23.8889 C   0  0  0  0  0  0  0  0  0  0  0  0
   20.7066   17.6277   23.3619 H   0  0  0  0  0  0  0  0  0  0  0  0
   19.6570   18.6484   24.3731 H   0  0  0  0  0  0  0  0  0  0  0  0
   21.4053   18.5878   24.6763 H   0  0  0  0  0  0  0  0  0  0  0  0
  1  2  1  0  0  0  0
  1  3  2  0  0  0  0
  1  4  1  0  0  0  0
  4  5  1  0  0  0  0
  4  6  1  0  0  0  0
  4  7  1  0  0  0  0
  7  8  1  0  0  0  0
  7  9  1  0  0  0  0
  7 10  1  0  0  0  0
 10 11  1  0  0  0  0
 10 12  1  0  0  0  0
 10 13  1  0  0  0  0
 13 14  1  0  0  0  0
 13 15  1  0  0  0  0
 13 16  1  0  0  0  0
M  END
> <VConfSearch Rank>
563

> <Conf_Id>
36

> <Delta U+W>
-0.427

> <U+W>
-57.331

> <U>
7.263

> <W>
-64.594

> <W(PB)>
-66.513

> <W(SA)>
1.920

> <Valence>
6.734

> <Coulomb>
-0.068

> <VdW>
0.598

> <VdW6>
-4.819

> <VdW12>
5.417

> <Bond>
0.107

> <Angle>
2.469

> <Pdih>
4.157

> <Idih>
0.001

> <Tether>
0.000

$$$$
VeraChem MOL file


 16 15  0  0  0  0  0  0  0  0999 V2000     
   18.2362   19.1449   23.9163 C   0  0  0  0  0  0  0  0  0  0  0  0
   18.4867   18.2806   24.7325 O   0  5  0  0  0  0  0  0  0  0  0  0
   17.1487   19.6766   23.8136 O   0  0  0  0  0  0  0  0  0  0  0  0
   19.3404   19.5715   22.9554 C   0  0  0  0  0  0  0  0  0  0  0  0
   20.2961   19.4858   23.4849 H   0  0  0  0  0  0  0  0  0  0  0  0
   19.1941   20.6321   22.7179 H   0  0  0  0  0  0  0  0  0  0  0  0
   19.3618   18.7303   21.6528 C   0  0  0  0  0  0  0  0  0  0  0  0
   19.5515   17.6767   21.8999 H   0  0  0  0  0  0  0  0  0  0  0  0
   18.3648   18.7668   21.1924 H   0  0  0  0  0  0  0  0  0  0  0  0
   20.4036   19.2204   20.6208 C   0  0  0  0  0  0  0  0  0  0  0  0
   20.2070   20.2707   20.3647 H   0  0  0  0  0  0  0  0  0  0  0  0
   20.2788   18.6456   19.6927 H   0  0  0  0  0  0  0  0  0  0  0  0
   21.8606   19.0689   21.1079 C   0  0  0  0  0  0  0  0  0  0  0  0
   22.0643   19.7158   21.9704 H   0  0  0  0  0  0  0  0  0  0  0  0
   22.5623   19.3472   20.3110 H   0  0  0  0  0  0  0  0  0  0  0  0
   22.0722   18.0312   21.3973 H   0  0  0  0  0  0  0  0  0  0  0  0
  1  2  1  0  0  0  0
  1  3  2  0  0  0  0
  1  4  1  0  0  0  0
  4  5  1  0  0  0  0
  4  6  1  0  0  0  0
  4  7  1  0  0  0  0
  7  8  1  0  0  0  0
  7  9  1  0  0  0  0
  7 10  1  0  0  0  0
 10 11  1  0  0  0  0
 10 12  1  0  0  0  0
 10 13  1  0  0  0  0
 13 14  1  0  0  0  0
 13 15  1  0  0  0  0
 13 16  1  0  0  0  0
M  END
> <VConfSearch Rank>
564

> <Conf_Id>
17

> <Delta U+W>
-0.432

> <U+W>
-57.336

> <U>
7.263

> <W>
-64.599

> <W(PB)>
-66.503

> <W(SA)>
1.904

> <Valence>
6.734

> <Coulomb>
-0.068

> <VdW>
0.598

> <VdW6>
-4.819

> <VdW12>
5.417

> <Bond>
0.107

> <Angle>
2.469

> <Pdih>
4.157

> <Idih>
0.001

> <Tether>
0.000

$$$$
VeraChem MOL file


 16 15  0  0  0  0  0  0  0  0999 V2000     
   19.8464   17.7175   23.9644 C   0  0  0  0  0  0  0  0  0  0  0  0
   20.6084   17.9587   24.8796 O   0  5  0  0  0  0  0  0  0  0  0  0
   18.6480   17.5781   24.1080 O   0  0  0  0  0  0  0  0  0  0  0  0
   20.4315   17.5574   22.5638 C   0  0  0  0  0  0  0  0  0  0  0  0
   19.7089   17.0152   21.9419 H   0  0  0  0  0  0  0  0  0  0  0  0
   21.3183   16.9183   22.6497 H   0  0  0  0  0  0  0  0  0  0  0  0
   20.8226   18.8960   21.8855 C   0  0  0  0  0  0  0  0  0  0  0  0
   21.5241   19.4409   22.5325 H   0  0  0  0  0  0  0  0  0  0  0  0
   21.3577   18.6791   20.9511 H   0  0  0  0  0  0  0  0  0  0  0  0
   19.5985   19.7849   21.5760 C   0  0  0  0  0  0  0  0  0  0  0  0
   19.0664   20.0256   22.5069 H   0  0  0  0  0  0  0  0  0  0  0  0
   18.8923   19.2343   20.9392 H   0  0  0  0  0  0  0  0  0  0  0  0
   20.0117   21.0926   20.8722 C   0  0  0  0  0  0  0  0  0  0  0  0
   20.6949   21.6780   21.5016 H   0  0  0  0  0  0  0  0  0  0  0  0
   19.1309   21.7126   20.6603 H   0  0  0  0  0  0  0  0  0  0  0  0
   20.5164   20.8840   19.9198 H   0  0  0  0  0  0  0  0  0  0  0  0
  1  2  1  0  0  0  0
  1  3  2  0  0  0  0
  1  4  1  0  0  0  0
  4  5  1  0  0  0  0
  4  6  1  0  0  0  0
  4  7  1  0  0  0  0
  7  8  1  0  0  0  0
  7  9  1  0  0  0  0
  7 10  1  0  0  0  0
 10 11  1  0  0  0  0
 10 12  1  0  0  0  0
 10 13  1  0  0  0  0
 13 14  1  0  0  0  0
 13 15  1  0  0  0  0
 13 16  1  0  0  0  0
M  END
> <VConfSearch Rank>
565

> <Conf_Id>
19

> <Delta U+W>
0.048

> <U+W>
-56.856

> <U>
8.276

> <W>
-65.132

> <W(PB)>
-67.031

> <W(SA)>
1.899

> <Valence>
6.513

> <Coulomb>
1.428

> <VdW>
0.335

> <VdW6>
-5.021

> <VdW12>
5.356

> <Bond>
0.092

> <Angle>
2.417

> <Pdih>
4.003

> <Idih>
0.001

> <Tether>
0.000

$$$$
VeraChem MOL file


 16 15  0  0  0  0  0  0  0  0999 V2000     
   19.2532   18.0598   20.0856 C   0  0  0  0  0  0  0  0  0  0  0  0
   18.0724   17.7799   20.0253 O   0  5  0  0  0  0  0  0  0  0  0  0
   20.1435   17.2694   19.8426 O   0  0  0  0  0  0  0  0  0  0  0  0
   19.6360   19.4879   20.4644 C   0  0  0  0  0  0  0  0  0  0  0  0
   18.9975   20.1639   19.8834 H   0  0  0  0  0  0  0  0  0  0  0  0
   20.6682   19.6714   20.1419 H   0  0  0  0  0  0  0  0  0  0  0  0
   19.4836   19.8036   21.9750 C   0  0  0  0  0  0  0  0  0  0  0  0
   19.6440   20.8788   22.1324 H   0  0  0  0  0  0  0  0  0  0  0  0
   18.4530   19.5881   22.2899 H   0  0  0  0  0  0  0  0  0  0  0  0
   20.4752   19.0078   22.8511 C   0  0  0  0  0  0  0  0  0  0  0  0
   21.5046   19.2147   22.5271 H   0  0  0  0  0  0  0  0  0  0  0  0
   20.3102   17.9296   22.7173 H   0  0  0  0  0  0  0  0  0  0  0  0
   20.3255   19.3651   24.3432 C   0  0  0  0  0  0  0  0  0  0  0  0
   20.5191   20.4324   24.5132 H   0  0  0  0  0  0  0  0  0  0  0  0
   21.0362   18.7906   24.9515 H   0  0  0  0  0  0  0  0  0  0  0  0
   19.3126   19.1388   24.7012 H   0  0  0  0  0  0  0  0  0  0  0  0
  1  2  1  0  0  0  0
  1  3  2  0  0  0  0
  1  4  1  0  0  0  0
  4  5  1  0  0  0  0
  4  6  1  0  0  0  0
  4  7  1  0  0  0  0
  7  8  1  0  0  0  0
  7  9  1  0  0  0  0
  7 10  1  0  0  0  0
 10 11  1  0  0  0  0
 10 12  1  0  0  0  0
 10 13  1  0  0  0  0
 13 14  1  0  0  0  0
 13 15  1  0  0  0  0
 13 16  1  0  0  0  0
M  END
> <VConfSearch Rank>
566

> <Conf_Id>
20

> <Delta U+W>
-0.010

> <U+W>
-56.914

> <U>
8.277

> <W>
-65.191

> <W(PB)>
-67.081

> <W(SA)>
1.890

> <Valence>
6.513

> <Coulomb>
1.429

> <VdW>
0.335

> <VdW6>
-5.021

> <VdW12>
5.356

> <Bond>
0.092

> <Angle>
2.417

> <Pdih>
4.002

> <Idih>
0.001

> <Tether>
0.000

$$$$
VeraChem MOL file


 16 15  0  0  0  0  0  0  0  0999 V2000     
   18.1558   20.3503   21.6344 C   0  0  0  0  0  0  0  0  0  0  0  0
   18.1177   21.0471   20.6396 O   0  5  0  0  0  0  0  0  0  0  0  0
   17.7939   20.7276   22.7313 O   0  0  0  0  0  0  0  0  0  0  0  0
   18.6529   18.9145   21.4888 C   0  0  0  0  0  0  0  0  0  0  0  0
   18.1024   18.4624   20.6555 H   0  0  0  0  0  0  0  0  0  0  0  0
   18.3725   18.3522   22.3869 H   0  0  0  0  0  0  0  0  0  0  0  0
   20.1781   18.7936   21.2211 C   0  0  0  0  0  0  0  0  0  0  0  0
   20.4314   17.7385   21.0509 H   0  0  0  0  0  0  0  0  0  0  0  0
   20.4153   19.3218   20.2872 H   0  0  0  0  0  0  0  0  0  0  0  0
   21.0708   19.3550   22.3533 C   0  0  0  0  0  0  0  0  0  0  0  0
   20.8514   20.4203   22.5099 H   0  0  0  0  0  0  0  0  0  0  0  0
   22.1208   19.2993   22.0346 H   0  0  0  0  0  0  0  0  0  0  0  0
   20.9140   18.5931   23.6865 C   0  0  0  0  0  0  0  0  0  0  0  0
   19.9081   18.7258   24.1048 H   0  0  0  0  0  0  0  0  0  0  0  0
   21.6331   18.9652   24.4277 H   0  0  0  0  0  0  0  0  0  0  0  0
   21.0936   17.5188   23.5500 H   0  0  0  0  0  0  0  0  0  0  0  0
  1  2  1  0  0  0  0
  1  3  2  0  0  0  0
  1  4  1  0  0  0  0
  4  5  1  0  0  0  0
  4  6  1  0  0  0  0
  4  7  1  0  0  0  0
  7  8  1  0  0  0  0
  7  9  1  0  0  0  0
  7 10  1  0  0  0  0
 10 11  1  0  0  0  0
 10 12  1  0  0  0  0
 10 13  1  0  0  0  0
 13 14  1  0  0  0  0
 13 15  1  0  0  0  0
 13 16  1  0  0  0  0
M  END
> <VConfSearch Rank>
567

> <Conf_Id>
37

> <Delta U+W>
1.063

> <U+W>
-55.841

> <U>
9.719

> <W>
-65.560

> <W(PB)>
-67.414

> <W(SA)>
1.854

> <Valence>
7.002

> <Coulomb>
2.402

> <VdW>
0.314

> <VdW6>
-5.861

> <VdW12>
6.175

> <Bond>
0.134

> <Angle>
2.733

> <Pdih>
4.133

> <Idih>
0.002

> <Tether>
0.000

$$$$
VeraChem MOL file


 16 15  0  0  0  0  0  0  0  0999 V2000     
   21.3294   19.3186   23.9517 C   0  0  0  0  0  0  0  0  0  0  0  0
   20.9648   19.9301   24.9365 O   0  5  0  0  0  0  0  0  0  0  0  0
   21.8310   18.2129   23.9970 O   0  0  0  0  0  0  0  0  0  0  0  0
   21.1798   19.9920   22.5901 C   0  0  0  0  0  0  0  0  0  0  0  0
   21.7888   19.4477   21.8594 H   0  0  0  0  0  0  0  0  0  0  0  0
   21.6167   20.9941   22.6728 H   0  0  0  0  0  0  0  0  0  0  0  0
   19.7114   20.1122   22.0979 C   0  0  0  0  0  0  0  0  0  0  0  0
   19.1431   20.7080   22.8255 H   0  0  0  0  0  0  0  0  0  0  0  0
   19.6924   20.6766   21.1559 H   0  0  0  0  0  0  0  0  0  0  0  0
   18.9944   18.7564   21.8934 C   0  0  0  0  0  0  0  0  0  0  0  0
   17.9458   18.9488   21.6277 H   0  0  0  0  0  0  0  0  0  0  0  0
   18.9759   18.1962   22.8387 H   0  0  0  0  0  0  0  0  0  0  0  0
   19.6365   17.8885   20.7903 C   0  0  0  0  0  0  0  0  0  0  0  0
   19.6993   18.4388   19.8425 H   0  0  0  0  0  0  0  0  0  0  0  0
   19.0392   16.9839   20.6177 H   0  0  0  0  0  0  0  0  0  0  0  0
   20.6476   17.5692   21.0732 H   0  0  0  0  0  0  0  0  0  0  0  0
  1  2  1  0  0  0  0
  1  3  2  0  0  0  0
  1  4  1  0  0  0  0
  4  5  1  0  0  0  0
  4  6  1  0  0  0  0
  4  7  1  0  0  0  0
  7  8  1  0  0  0  0
  7  9  1  0  0  0  0
  7 10  1  0  0  0  0
 10 11  1  0  0  0  0
 10 12  1  0  0  0  0
 10 13  1  0  0  0  0
 13 14  1  0  0  0  0
 13 15  1  0  0  0  0
 13 16  1  0  0  0  0
M  END
> <VConfSearch Rank>
568

> <Conf_Id>
39

> <Delta U+W>
1.129

> <U+W>
-55.775

> <U>
9.718

> <W>
-65.493

> <W(PB)>
-67.361

> <W(SA)>
1.869

> <Valence>
7.002

> <Coulomb>
2.402

> <VdW>
0.314

> <VdW6>
-5.861

> <VdW12>
6.175

> <Bond>
0.134

> <Angle>
2.734

> <Pdih>
4.133

> <Idih>
0.002

> <Tether>
0.000

$$$$
VeraChem MOL file


 16 15  0  0  0  0  0  0  0  0999 V2000     
   20.5644   20.9605   22.3284 C   0  0  0  0  0  0  0  0  0  0  0  0
   20.9350   21.2610   23.4460 O   0  5  0  0  0  0  0  0  0  0  0  0
   19.8249   21.6556   21.6597 O   0  0  0  0  0  0  0  0  0  0  0  0
   21.1295   19.6883   21.6992 C   0  0  0  0  0  0  0  0  0  0  0  0
   21.8352   19.2265   22.4003 H   0  0  0  0  0  0  0  0  0  0  0  0
   21.7157   20.0079   20.8297 H   0  0  0  0  0  0  0  0  0  0  0  0
   20.0702   18.6476   21.2387 C   0  0  0  0  0  0  0  0  0  0  0  0
   19.2538   19.1549   20.7061 H   0  0  0  0  0  0  0  0  0  0  0  0
   20.5446   17.9837   20.5036 H   0  0  0  0  0  0  0  0  0  0  0  0
   19.4966   17.7634   22.3721 C   0  0  0  0  0  0  0  0  0  0  0  0
   20.3160   17.2597   22.9033 H   0  0  0  0  0  0  0  0  0  0  0  0
   18.8885   16.9686   21.9185 H   0  0  0  0  0  0  0  0  0  0  0  0
   18.6199   18.5337   23.3813 C   0  0  0  0  0  0  0  0  0  0  0  0
   19.2189   19.2298   23.9810 H   0  0  0  0  0  0  0  0  0  0  0  0
   18.1309   17.8375   24.0749 H   0  0  0  0  0  0  0  0  0  0  0  0
   17.8371   19.1063   22.8669 H   0  0  0  0  0  0  0  0  0  0  0  0
  1  2  1  0  0  0  0
  1  3  2  0  0  0  0
  1  4  1  0  0  0  0
  4  5  1  0  0  0  0
  4  6  1  0  0  0  0
  4  7  1  0  0  0  0
  7  8  1  0  0  0  0
  7  9  1  0  0  0  0
  7 10  1  0  0  0  0
 10 11  1  0  0  0  0
 10 12  1  0  0  0  0
 10 13  1  0  0  0  0
 13 14  1  0  0  0  0
 13 15  1  0  0  0  0
 13 16  1  0  0  0  0
M  END
> <VConfSearch Rank>
569

> <Conf_Id>
47

> <Delta U+W>
2.301

> <U+W>
-54.603

> <U>
11.258

> <W>
-65.861

> <W(PB)>
-67.702

> <W(SA)>
1.841

> <Valence>
8.169

> <Coulomb>
2.735

> <VdW>
0.355

> <VdW6>
-6.245

> <VdW12>
6.600

> <Bond>
0.149

> <Angle>
3.168

> <Pdih>
4.840

> <Idih>
0.011

> <Tether>
0.000

$$$$
VeraChem MOL file


 16 15  0  0  0  0  0  0  0  0999 V2000     
   20.4715   20.8892   21.5785 C   0  0  0  0  0  0  0  0  0  0  0  0
   19.6400   21.3007   20.7933 O   0  5  0  0  0  0  0  0  0  0  0  0
   21.6655   20.8958   21.3523 O   0  0  0  0  0  0  0  0  0  0  0  0
   20.0010   20.4235   22.9552 C   0  0  0  0  0  0  0  0  0  0  0  0
   19.5353   21.2934   23.4330 H   0  0  0  0  0  0  0  0  0  0  0  0
   20.8766   20.1638   23.5626 H   0  0  0  0  0  0  0  0  0  0  0  0
   18.9841   19.2476   22.9472 C   0  0  0  0  0  0  0  0  0  0  0  0
   18.4587   19.2472   23.9117 H   0  0  0  0  0  0  0  0  0  0  0  0
   18.2142   19.4235   22.1831 H   0  0  0  0  0  0  0  0  0  0  0  0
   19.6152   17.8477   22.7531 C   0  0  0  0  0  0  0  0  0  0  0  0
   18.8380   17.0899   22.9232 H   0  0  0  0  0  0  0  0  0  0  0  0
   20.3855   17.6765   23.5176 H   0  0  0  0  0  0  0  0  0  0  0  0
   20.2173   17.6239   21.3504 C   0  0  0  0  0  0  0  0  0  0  0  0
   20.5215   16.5767   21.2258 H   0  0  0  0  0  0  0  0  0  0  0  0
   21.1067   18.2463   21.1935 H   0  0  0  0  0  0  0  0  0  0  0  0
   19.4872   17.8611   20.5655 H   0  0  0  0  0  0  0  0  0  0  0  0
  1  2  1  0  0  0  0
  1  3  2  0  0  0  0
  1  4  1  0  0  0  0
  4  5  1  0  0  0  0
  4  6  1  0  0  0  0
  4  7  1  0  0  0  0
  7  8  1  0  0  0  0
  7  9  1  0  0  0  0
  7 10  1  0  0  0  0
 10 11  1  0  0  0  0
 10 12  1  0  0  0  0
 10 13  1  0  0  0  0
 13 14  1  0  0  0  0
 13 15  1  0  0  0  0
 13 16  1  0  0  0  0
M  END
> <VConfSearch Rank>
570

> <Conf_Id>
45

> <Delta U+W>
2.303

> <U+W>
-54.601

> <U>
11.258

> <W>
-65.860

> <W(PB)>
-67.709

> <W(SA)>
1.849

> <Valence>
8.169

> <Coulomb>
2.735

> <VdW>
0.355

> <VdW6>
-6.245

> <VdW12>
6.600

> <Bond>
0.149

> <Angle>
3.168

> <Pdih>
4.840

> <Idih>
0.011

> <Tether>
0.000

$$$$
VeraChem MOL file


 16 15  0  0  0  0  0  0  0  0999 V2000     
   21.5753   21.1225   20.8695 C   0  0  0  0  0  0  0  0  0  0  0  0
   21.2804   20.8764   19.7162 O   0  5  0  0  0  0  0  0  0  0  0  0
   22.3396   22.0133   21.1820 O   0  0  0  0  0  0  0  0  0  0  0  0
   20.9731   20.2897   22.0025 C   0  0  0  0  0  0  0  0  0  0  0  0
   20.4519   20.9808   22.6754 H   0  0  0  0  0  0  0  0  0  0  0  0
   21.8062   19.8574   22.5693 H   0  0  0  0  0  0  0  0  0  0  0  0
   20.0037   19.1633   21.5554 C   0  0  0  0  0  0  0  0  0  0  0  0
   19.1742   19.6018   20.9835 H   0  0  0  0  0  0  0  0  0  0  0  0
   20.5299   18.4771   20.8773 H   0  0  0  0  0  0  0  0  0  0  0  0
   19.4450   18.3762   22.7594 C   0  0  0  0  0  0  0  0  0  0  0  0
   18.9169   19.0609   23.4374 H   0  0  0  0  0  0  0  0  0  0  0  0
   20.2734   17.9356   23.3313 H   0  0  0  0  0  0  0  0  0  0  0  0
   18.4830   17.2591   22.3090 C   0  0  0  0  0  0  0  0  0  0  0  0
   17.6274   17.6749   21.7608 H   0  0  0  0  0  0  0  0  0  0  0  0
   18.0950   16.7096   23.1766 H   0  0  0  0  0  0  0  0  0  0  0  0
   18.9939   16.5413   21.6538 H   0  0  0  0  0  0  0  0  0  0  0  0
  1  2  1  0  0  0  0
  1  3  2  0  0  0  0
  1  4  1  0  0  0  0
  4  5  1  0  0  0  0
  4  6  1  0  0  0  0
  4  7  1  0  0  0  0
  7  8  1  0  0  0  0
  7  9  1  0  0  0  0
  7 10  1  0  0  0  0
 10 11  1  0  0  0  0
 10 12  1  0  0  0  0
 10 13  1  0  0  0  0
 13 14  1  0  0  0  0
 13 15  1  0  0  0  0
 13 16  1  0  0  0  0
M  END
> <VConfSearch Rank>
571

> <Conf_Id>
0

> <Delta U+W>
0.000

> <U+W>
-56.904

> <U>
7.329

> <W>
-64.233

> <W(PB)>
-66.148

> <W(SA)>
1.915

> <Valence>
6.755

> <Coulomb>
-0.421

> <VdW>
0.995

> <VdW6>
-4.495

> <VdW12>
5.490

> <Bond>
0.106

> <Angle>
2.715

> <Pdih>
3.934

> <Idih>
0.000

> <Tether>
0.000

$$$$
VeraChem MOL file


 16 15  0  0  0  0  0  0  0  0999 V2000     
   20.6558   21.7831   21.8652 C   0  0  0  0  0  0  0  0  0  0  0  0
   21.2915   22.1856   22.8190 O   0  5  0  0  0  0  0  0  0  0  0  0
   20.7505   22.2516   20.7484 O   0  0  0  0  0  0  0  0  0  0  0  0
   19.7002   20.6142   22.0776 C   0  0  0  0  0  0  0  0  0  0  0  0
   18.8546   20.7356   21.3898 H   0  0  0  0  0  0  0  0  0  0  0  0
   19.3007   20.6811   23.0969 H   0  0  0  0  0  0  0  0  0  0  0  0
   20.3738   19.2373   21.8576 C   0  0  0  0  0  0  0  0  0  0  0  0
   20.7793   19.1905   20.8374 H   0  0  0  0  0  0  0  0  0  0  0  0
   21.2256   19.1359   22.5445 H   0  0  0  0  0  0  0  0  0  0  0  0
   19.3860   18.0729   22.0786 C   0  0  0  0  0  0  0  0  0  0  0  0
   18.5344   18.1735   21.3914 H   0  0  0  0  0  0  0  0  0  0  0  0
   18.9807   18.1190   23.0990 H   0  0  0  0  0  0  0  0  0  0  0  0
   20.0632   16.7059   21.8580 C   0  0  0  0  0  0  0  0  0  0  0  0
   20.9003   16.5652   22.5544 H   0  0  0  0  0  0  0  0  0  0  0  0
   20.4507   16.6201   20.8343 H   0  0  0  0  0  0  0  0  0  0  0  0
   19.3475   15.8892   22.0190 H   0  0  0  0  0  0  0  0  0  0  0  0
  1  2  1  0  0  0  0
  1  3  2  0  0  0  0
  1  4  1  0  0  0  0
  4  5  1  0  0  0  0
  4  6  1  0  0  0  0
  4  7  1  0  0  0  0
  7  8  1  0  0  0  0
  7  9  1  0  0  0  0
  7 10  1  0  0  0  0
 10 11  1  0  0  0  0
 10 12  1  0  0  0  0
 10 13  1  0  0  0  0
 13 14  1  0  0  0  0
 13 15  1  0  0  0  0
 13 16  1  0  0  0  0
M  END
> <VConfSearch Rank>
572

> <Conf_Id>
22

> <Delta U+W>
-1.185

> <U+W>
-58.089

> <U>
6.298

> <W>
-64.387

> <W(PB)>
-66.329

> <W(SA)>
1.942

> <Valence>
6.246

> <Coulomb>
-0.408

> <VdW>
0.460

> <VdW6>
-4.207

> <VdW12>
4.667

> <Bond>
0.072

> <Angle>
2.246

> <Pdih>
3.928

> <Idih>
0.001

> <Tether>
0.000

$$$$
VeraChem MOL file


 16 15  0  0  0  0  0  0  0  0999 V2000     
   19.2046   19.6750   24.4058 C   0  0  0  0  0  0  0  0  0  0  0  0
   19.5207   18.9831   25.3531 O   0  5  0  0  0  0  0  0  0  0  0  0
   18.2492   20.4255   24.4116 O   0  0  0  0  0  0  0  0  0  0  0  0
   20.0405   19.5811   23.1343 C   0  0  0  0  0  0  0  0  0  0  0  0
   21.0772   19.3701   23.4231 H   0  0  0  0  0  0  0  0  0  0  0  0
   20.0308   20.5662   22.6542 H   0  0  0  0  0  0  0  0  0  0  0  0
   19.5266   18.4930   22.1560 C   0  0  0  0  0  0  0  0  0  0  0  0
   19.4660   17.5359   22.6925 H   0  0  0  0  0  0  0  0  0  0  0  0
   18.5029   18.7377   21.8406 H   0  0  0  0  0  0  0  0  0  0  0  0
   20.4264   18.3092   20.9122 C   0  0  0  0  0  0  0  0  0  0  0  0
   20.0561   17.4528   20.3319 H   0  0  0  0  0  0  0  0  0  0  0  0
   21.4474   18.0529   21.2272 H   0  0  0  0  0  0  0  0  0  0  0  0
   20.4619   19.5522   19.9976 C   0  0  0  0  0  0  0  0  0  0  0  0
   20.9311   20.4069   20.5007 H   0  0  0  0  0  0  0  0  0  0  0  0
   19.4485   19.8449   19.6930 H   0  0  0  0  0  0  0  0  0  0  0  0
   21.0407   19.3431   19.0886 H   0  0  0  0  0  0  0  0  0  0  0  0
  1  2  1  0  0  0  0
  1  3  2  0  0  0  0
  1  4  1  0  0  0  0
  4  5  1  0  0  0  0
  4  6  1  0  0  0  0
  4  7  1  0  0  0  0
  7  8  1  0  0  0  0
  7  9  1  0  0  0  0
  7 10  1  0  0  0  0
 10 11  1  0  0  0  0
 10 12  1  0  0  0  0
 10 13  1  0  0  0  0
 13 14  1  0  0  0  0
 13 15  1  0  0  0  0
 13 16  1  0  0  0  0
M  END
> <VConfSearch Rank>
573

> <Conf_Id>
36

> <Delta U+W>
-0.427

> <U+W>
-57.331

> <U>
7.263

> <W>
-64.594

> <W(PB)>
-66.513

> <W(SA)>
1.920

> <Valence>
6.734

> <Coulomb>
-0.068

> <VdW>
0.598

> <VdW6>
-4.819

> <VdW12>
5.417

> <Bond>
0.107

> <Angle>
2.469

> <Pdih>
4.157

> <Idih>
0.001

> <Tether>
0.000

$$$$
VeraChem MOL file


 16 15  0  0  0  0  0  0  0  0999 V2000     
   21.6923   18.0692   23.5905 C   0  0  0  0  0  0  0  0  0  0  0  0
   22.7387   18.6864   23.5848 O   0  5  0  0  0  0  0  0  0  0  0  0
   21.5896   16.9252   23.9864 O   0  0  0  0  0  0  0  0  0  0  0  0
   20.4440   18.7604   23.0533 C   0  0  0  0  0  0  0  0  0  0  0  0
   20.5278   19.8286   23.2839 H   0  0  0  0  0  0  0  0  0  0  0  0
   19.5777   18.3757   23.6048 H   0  0  0  0  0  0  0  0  0  0  0  0
   20.2462   18.5456   21.5303 C   0  0  0  0  0  0  0  0  0  0  0  0
   21.0997   18.9729   20.9859 H   0  0  0  0  0  0  0  0  0  0  0  0
   20.2535   17.4667   21.3219 H   0  0  0  0  0  0  0  0  0  0  0  0
   18.9283   19.1469   20.9900 C   0  0  0  0  0  0  0  0  0  0  0  0
   18.0740   18.7109   21.5262 H   0  0  0  0  0  0  0  0  0  0  0  0
   18.8140   18.8576   19.9362 H   0  0  0  0  0  0  0  0  0  0  0  0
   18.8747   20.6862   21.0923 C   0  0  0  0  0  0  0  0  0  0  0  0
   18.8715   21.0187   22.1378 H   0  0  0  0  0  0  0  0  0  0  0  0
   17.9619   21.0705   20.6188 H   0  0  0  0  0  0  0  0  0  0  0  0
   19.7355   21.1437   20.5874 H   0  0  0  0  0  0  0  0  0  0  0  0
  1  2  1  0  0  0  0
  1  3  2  0  0  0  0
  1  4  1  0  0  0  0
  4  5  1  0  0  0  0
  4  6  1  0  0  0  0
  4  7  1  0  0  0  0
  7  8  1  0  0  0  0
  7  9  1  0  0  0  0
  7 10  1  0  0  0  0
 10 11  1  0  0  0  0
 10 12  1  0  0  0  0
 10 13  1  0  0  0  0
 13 14  1  0  0  0  0
 13 15  1  0  0  0  0
 13 16  1  0  0  0  0
M  END
> <VConfSearch Rank>
574

> <Conf_Id>
17

> <Delta U+W>
-0.432

> <U+W>
-57.336

> <U>
7.263

> <W>
-64.599

> <W(PB)>
-66.503

> <W(SA)>
1.904

> <Valence>
6.734

> <Coulomb>
-0.068

> <VdW>
0.598

> <VdW6>
-4.819

> <VdW12>
5.417

> <Bond>
0.107

> <Angle>
2.469

> <Pdih>
4.157

> <Idih>
0.001

> <Tether>
0.000

$$$$
VeraChem MOL file


 16 15  0  0  0  0  0  0  0  0999 V2000     
   18.5444   17.5075   21.4416 C   0  0  0  0  0  0  0  0  0  0  0  0
   18.4463   17.3761   20.2377 O   0  5  0  0  0  0  0  0  0  0  0  0
   18.6733   16.5753   22.2101 O   0  0  0  0  0  0  0  0  0  0  0  0
   18.4777   18.9186   22.0194 C   0  0  0  0  0  0  0  0  0  0  0  0
   18.2309   18.8495   23.0859 H   0  0  0  0  0  0  0  0  0  0  0  0
   17.6405   19.4332   21.5331 H   0  0  0  0  0  0  0  0  0  0  0  0
   19.7760   19.7439   21.8233 C   0  0  0  0  0  0  0  0  0  0  0  0
   20.0262   19.7805   20.7539 H   0  0  0  0  0  0  0  0  0  0  0  0
   19.5914   20.7793   22.1404 H   0  0  0  0  0  0  0  0  0  0  0  0
   20.9688   19.1728   22.6203 C   0  0  0  0  0  0  0  0  0  0  0  0
   21.1759   18.1432   22.2967 H   0  0  0  0  0  0  0  0  0  0  0  0
   20.7126   19.1253   23.6878 H   0  0  0  0  0  0  0  0  0  0  0  0
   22.2364   20.0302   22.4347 C   0  0  0  0  0  0  0  0  0  0  0  0
   22.5327   20.0690   21.3783 H   0  0  0  0  0  0  0  0  0  0  0  0
   23.0741   19.6105   23.0066 H   0  0  0  0  0  0  0  0  0  0  0  0
   22.0699   21.0583   22.7825 H   0  0  0  0  0  0  0  0  0  0  0  0
  1  2  1  0  0  0  0
  1  3  2  0  0  0  0
  1  4  1  0  0  0  0
  4  5  1  0  0  0  0
  4  6  1  0  0  0  0
  4  7  1  0  0  0  0
  7  8  1  0  0  0  0
  7  9  1  0  0  0  0
  7 10  1  0  0  0  0
 10 11  1  0  0  0  0
 10 12  1  0  0  0  0
 10 13  1  0  0  0  0
 13 14  1  0  0  0  0
 13 15  1  0  0  0  0
 13 16  1  0  0  0  0
M  END
> <VConfSearch Rank>
575

> <Conf_Id>
19

> <Delta U+W>
0.048

> <U+W>
-56.856

> <U>
8.276

> <W>
-65.132

> <W(PB)>
-67.031

> <W(SA)>
1.899

> <Valence>
6.513

> <Coulomb>
1.428

> <VdW>
0.335

> <VdW6>
-5.021

> <VdW12>
5.356

> <Bond>
0.092

> <Angle>
2.417

> <Pdih>
4.003

> <Idih>
0.001

> <Tether>
0.000

$$$$
VeraChem MOL file


 16 15  0  0  0  0  0  0  0  0999 V2000     
   18.4070   20.9611   22.5827 C   0  0  0  0  0  0  0  0  0  0  0  0
   17.3176   20.6074   22.9883 O   0  5  0  0  0  0  0  0  0  0  0  0
   18.5603   21.7793   21.6977 O   0  0  0  0  0  0  0  0  0  0  0  0
   19.6483   20.3613   23.2375 C   0  0  0  0  0  0  0  0  0  0  0  0
   19.4928   20.3888   24.3225 H   0  0  0  0  0  0  0  0  0  0  0  0
   20.5060   21.0107   23.0236 H   0  0  0  0  0  0  0  0  0  0  0  0
   19.9556   18.9067   22.7959 C   0  0  0  0  0  0  0  0  0  0  0  0
   20.7729   18.5117   23.4144 H   0  0  0  0  0  0  0  0  0  0  0  0
   19.0781   18.2742   22.9898 H   0  0  0  0  0  0  0  0  0  0  0  0
   20.3517   18.8093   21.3067 C   0  0  0  0  0  0  0  0  0  0  0  0
   21.2215   19.4517   21.1118 H   0  0  0  0  0  0  0  0  0  0  0  0
   19.5325   19.1832   20.6768 H   0  0  0  0  0  0  0  0  0  0  0  0
   20.6842   17.3592   20.9029 C   0  0  0  0  0  0  0  0  0  0  0  0
   21.5239   16.9695   21.4932 H   0  0  0  0  0  0  0  0  0  0  0  0
   20.9626   17.3074   19.8423 H   0  0  0  0  0  0  0  0  0  0  0  0
   19.8199   16.7003   21.0591 H   0  0  0  0  0  0  0  0  0  0  0  0
  1  2  1  0  0  0  0
  1  3  2  0  0  0  0
  1  4  1  0  0  0  0
  4  5  1  0  0  0  0
  4  6  1  0  0  0  0
  4  7  1  0  0  0  0
  7  8  1  0  0  0  0
  7  9  1  0  0  0  0
  7 10  1  0  0  0  0
 10 11  1  0  0  0  0
 10 12  1  0  0  0  0
 10 13  1  0  0  0  0
 13 14  1  0  0  0  0
 13 15  1  0  0  0  0
 13 16  1  0  0  0  0
M  END
> <VConfSearch Rank>
576

> <Conf_Id>
20

> <Delta U+W>
-0.010

> <U+W>
-56.914

> <U>
8.277

> <W>
-65.191

> <W(PB)>
-67.081

> <W(SA)>
1.890

> <Valence>
6.513

> <Coulomb>
1.429

> <VdW>
0.335

> <VdW6>
-5.021

> <VdW12>
5.356

> <Bond>
0.092

> <Angle>
2.417

> <Pdih>
4.002

> <Idih>
0.001

> <Tether>
0.000

$$$$
VeraChem MOL file


 16 15  0  0  0  0  0  0  0  0999 V2000     
   21.1691   20.8238   21.7856 C   0  0  0  0  0  0  0  0  0  0  0  0
   21.0484   21.5537   20.8215 O   0  5  0  0  0  0  0  0  0  0  0  0
   22.2324   20.3585   22.1451 O   0  0  0  0  0  0  0  0  0  0  0  0
   19.9227   20.5039   22.6066 C   0  0  0  0  0  0  0  0  0  0  0  0
   19.4298   21.4563   22.8345 H   0  0  0  0  0  0  0  0  0  0  0  0
   20.2339   20.0783   23.5675 H   0  0  0  0  0  0  0  0  0  0  0  0
   18.9145   19.5630   21.8918 C   0  0  0  0  0  0  0  0  0  0  0  0
   18.0187   19.4530   22.5176 H   0  0  0  0  0  0  0  0  0  0  0  0
   18.5828   20.0434   20.9609 H   0  0  0  0  0  0  0  0  0  0  0  0
   19.4773   18.1610   21.5577 C   0  0  0  0  0  0  0  0  0  0  0  0
   20.3545   18.2559   20.9027 H   0  0  0  0  0  0  0  0  0  0  0  0
   18.7222   17.6056   20.9846 H   0  0  0  0  0  0  0  0  0  0  0  0
   19.8534   17.3417   22.8106 C   0  0  0  0  0  0  0  0  0  0  0  0
   20.6931   17.8001   23.3485 H   0  0  0  0  0  0  0  0  0  0  0  0
   20.1563   16.3253   22.5276 H   0  0  0  0  0  0  0  0  0  0  0  0
   19.0025   17.2621   23.4996 H   0  0  0  0  0  0  0  0  0  0  0  0
  1  2  1  0  0  0  0
  1  3  2  0  0  0  0
  1  4  1  0  0  0  0
  4  5  1  0  0  0  0
  4  6  1  0  0  0  0
  4  7  1  0  0  0  0
  7  8  1  0  0  0  0
  7  9  1  0  0  0  0
  7 10  1  0  0  0  0
 10 11  1  0  0  0  0
 10 12  1  0  0  0  0
 10 13  1  0  0  0  0
 13 14  1  0  0  0  0
 13 15  1  0  0  0  0
 13 16  1  0  0  0  0
M  END
> <VConfSearch Rank>
577

> <Conf_Id>
37

> <Delta U+W>
1.063

> <U+W>
-55.841

> <U>
9.719

> <W>
-65.560

> <W(PB)>
-67.414

> <W(SA)>
1.854

> <Valence>
7.002

> <Coulomb>
2.402

> <VdW>
0.314

> <VdW6>
-5.861

> <VdW12>
6.175

> <Bond>
0.134

> <Angle>
2.733

> <Pdih>
4.133

> <Idih>
0.002

> <Tether>
0.000

$$$$
VeraChem MOL file


 16 15  0  0  0  0  0  0  0  0999 V2000     
   22.1204   18.9823   21.3599 C   0  0  0  0  0  0  0  0  0  0  0  0
   22.4917   19.6126   20.3895 O   0  5  0  0  0  0  0  0  0  0  0  0
   22.7712   18.8782   22.3806 O   0  0  0  0  0  0  0  0  0  0  0  0
   20.7808   18.2554   21.2764 C   0  0  0  0  0  0  0  0  0  0  0  0
   20.7218   17.5310   22.0968 H   0  0  0  0  0  0  0  0  0  0  0  0
   20.7841   17.6726   20.3478 H   0  0  0  0  0  0  0  0  0  0  0  0
   19.5450   19.1962   21.2868 C   0  0  0  0  0  0  0  0  0  0  0  0
   19.6087   19.8718   20.4226 H   0  0  0  0  0  0  0  0  0  0  0  0
   18.6354   18.5975   21.1431 H   0  0  0  0  0  0  0  0  0  0  0  0
   19.3989   20.0430   22.5735 C   0  0  0  0  0  0  0  0  0  0  0  0
   18.5501   20.7295   22.4491 H   0  0  0  0  0  0  0  0  0  0  0  0
   20.2887   20.6732   22.7100 H   0  0  0  0  0  0  0  0  0  0  0  0
   19.1689   19.1912   23.8399 C   0  0  0  0  0  0  0  0  0  0  0  0
   18.3049   18.5256   23.7157 H   0  0  0  0  0  0  0  0  0  0  0  0
   18.9773   19.8368   24.7068 H   0  0  0  0  0  0  0  0  0  0  0  0
   20.0486   18.5774   24.0719 H   0  0  0  0  0  0  0  0  0  0  0  0
  1  2  1  0  0  0  0
  1  3  2  0  0  0  0
  1  4  1  0  0  0  0
  4  5  1  0  0  0  0
  4  6  1  0  0  0  0
  4  7  1  0  0  0  0
  7  8  1  0  0  0  0
  7  9  1  0  0  0  0
  7 10  1  0  0  0  0
 10 11  1  0  0  0  0
 10 12  1  0  0  0  0
 10 13  1  0  0  0  0
 13 14  1  0  0  0  0
 13 15  1  0  0  0  0
 13 16  1  0  0  0  0
M  END
> <VConfSearch Rank>
578

> <Conf_Id>
39

> <Delta U+W>
1.129

> <U+W>
-55.775

> <U>
9.718

> <W>
-65.493

> <W(PB)>
-67.361

> <W(SA)>
1.869

> <Valence>
7.002

> <Coulomb>
2.402

> <VdW>
0.314

> <VdW6>
-5.861

> <VdW12>
6.175

> <Bond>
0.134

> <Angle>
2.734

> <Pdih>
4.133

> <Idih>
0.002

> <Tether>
0.000

$$$$
VeraChem MOL file


 16 15  0  0  0  0  0  0  0  0999 V2000     
   20.4447   18.4142   24.0693 C   0  0  0  0  0  0  0  0  0  0  0  0
   19.5568   17.7649   24.5858 O   0  5  0  0  0  0  0  0  0  0  0  0
   21.0475   19.2989   24.6446 O   0  0  0  0  0  0  0  0  0  0  0  0
   20.8847   18.0373   22.6558 C   0  0  0  0  0  0  0  0  0  0  0  0
   20.2968   17.1757   22.3168 H   0  0  0  0  0  0  0  0  0  0  0  0
   21.9232   17.6955   22.7365 H   0  0  0  0  0  0  0  0  0  0  0  0
   20.8108   19.1842   21.6089 C   0  0  0  0  0  0  0  0  0  0  0  0
   21.2230   20.1088   22.0365 H   0  0  0  0  0  0  0  0  0  0  0  0
   21.4680   18.9198   20.7694 H   0  0  0  0  0  0  0  0  0  0  0  0
   19.3971   19.4477   21.0365 C   0  0  0  0  0  0  0  0  0  0  0  0
   18.9878   18.5207   20.6118 H   0  0  0  0  0  0  0  0  0  0  0  0
   19.4870   20.1561   20.2014 H   0  0  0  0  0  0  0  0  0  0  0  0
   18.4057   20.0290   22.0659 C   0  0  0  0  0  0  0  0  0  0  0  0
   18.1535   19.2919   22.8379 H   0  0  0  0  0  0  0  0  0  0  0  0
   17.4702   20.3242   21.5735 H   0  0  0  0  0  0  0  0  0  0  0  0
   18.8244   20.9161   22.5590 H   0  0  0  0  0  0  0  0  0  0  0  0
  1  2  1  0  0  0  0
  1  3  2  0  0  0  0
  1  4  1  0  0  0  0
  4  5  1  0  0  0  0
  4  6  1  0  0  0  0
  4  7  1  0  0  0  0
  7  8  1  0  0  0  0
  7  9  1  0  0  0  0
  7 10  1  0  0  0  0
 10 11  1  0  0  0  0
 10 12  1  0  0  0  0
 10 13  1  0  0  0  0
 13 14  1  0  0  0  0
 13 15  1  0  0  0  0
 13 16  1  0  0  0  0
M  END
> <VConfSearch Rank>
579

> <Conf_Id>
47

> <Delta U+W>
2.301

> <U+W>
-54.603

> <U>
11.258

> <W>
-65.861

> <W(PB)>
-67.702

> <W(SA)>
1.841

> <Valence>
8.169

> <Coulomb>
2.735

> <VdW>
0.355

> <VdW6>
-6.245

> <VdW12>
6.600

> <Bond>
0.149

> <Angle>
3.168

> <Pdih>
4.840

> <Idih>
0.011

> <Tether>
0.000

$$$$
VeraChem MOL file


 16 15  0  0  0  0  0  0  0  0999 V2000     
   21.7155   19.1534   21.4931 C   0  0  0  0  0  0  0  0  0  0  0  0
   21.6731   19.7187   20.4180 O   0  5  0  0  0  0  0  0  0  0  0  0
   22.2907   18.0978   21.6710 O   0  0  0  0  0  0  0  0  0  0  0  0
   21.0920   19.8477   22.7025 C   0  0  0  0  0  0  0  0  0  0  0  0
   21.6367   20.7901   22.8324 H   0  0  0  0  0  0  0  0  0  0  0  0
   21.2874   19.2467   23.5990 H   0  0  0  0  0  0  0  0  0  0  0  0
   19.5728   20.1553   22.5819 C   0  0  0  0  0  0  0  0  0  0  0  0
   19.3285   20.9451   23.3051 H   0  0  0  0  0  0  0  0  0  0  0  0
   19.3532   20.5744   21.5901 H   0  0  0  0  0  0  0  0  0  0  0  0
   18.6440   18.9506   22.8672 C   0  0  0  0  0  0  0  0  0  0  0  0
   17.6080   19.3138   22.9123 H   0  0  0  0  0  0  0  0  0  0  0  0
   18.8679   18.5334   23.8586 H   0  0  0  0  0  0  0  0  0  0  0  0
   18.7249   17.8351   21.8044 C   0  0  0  0  0  0  0  0  0  0  0  0
   17.9498   17.0785   21.9822 H   0  0  0  0  0  0  0  0  0  0  0  0
   19.6957   17.3255   21.8333 H   0  0  0  0  0  0  0  0  0  0  0  0
   18.5779   18.2410   20.7949 H   0  0  0  0  0  0  0  0  0  0  0  0
  1  2  1  0  0  0  0
  1  3  2  0  0  0  0
  1  4  1  0  0  0  0
  4  5  1  0  0  0  0
  4  6  1  0  0  0  0
  4  7  1  0  0  0  0
  7  8  1  0  0  0  0
  7  9  1  0  0  0  0
  7 10  1  0  0  0  0
 10 11  1  0  0  0  0
 10 12  1  0  0  0  0
 10 13  1  0  0  0  0
 13 14  1  0  0  0  0
 13 15  1  0  0  0  0
 13 16  1  0  0  0  0
M  END
> <VConfSearch Rank>
580

> <Conf_Id>
45

> <Delta U+W>
2.303

> <U+W>
-54.601

> <U>
11.258

> <W>
-65.860

> <W(PB)>
-67.709

> <W(SA)>
1.849

> <Valence>
8.169

> <Coulomb>
2.735

> <VdW>
0.355

> <VdW6>
-6.245

> <VdW12>
6.600

> <Bond>
0.149

> <Angle>
3.168

> <Pdih>
4.840

> <Idih>
0.011

> <Tether>
0.000

$$$$
VeraChem MOL file


 16 15  0  0  0  0  0  0  0  0999 V2000     
   18.4119   20.4969   20.1381 C   0  0  0  0  0  0  0  0  0  0  0  0
   19.3014   20.6559   19.3249 O   0  5  0  0  0  0  0  0  0  0  0  0
   17.2815   20.9093   19.9722 O   0  0  0  0  0  0  0  0  0  0  0  0
   18.6976   19.7472   21.4405 C   0  0  0  0  0  0  0  0  0  0  0  0
   18.0031   18.9002   21.4896 H   0  0  0  0  0  0  0  0  0  0  0  0
   18.4423   20.4197   22.2680 H   0  0  0  0  0  0  0  0  0  0  0  0
   20.1546   19.2400   21.6085 C   0  0  0  0  0  0  0  0  0  0  0  0
   20.4065   18.5712   20.7738 H   0  0  0  0  0  0  0  0  0  0  0  0
   20.8461   20.0922   21.5530 H   0  0  0  0  0  0  0  0  0  0  0  0
   20.3526   18.4973   22.9466 C   0  0  0  0  0  0  0  0  0  0  0  0
   19.6629   17.6437   23.0026 H   0  0  0  0  0  0  0  0  0  0  0  0
   20.1027   19.1657   23.7823 H   0  0  0  0  0  0  0  0  0  0  0  0
   21.8014   17.9961   23.1077 C   0  0  0  0  0  0  0  0  0  0  0  0
   22.0681   17.3003   22.3013 H   0  0  0  0  0  0  0  0  0  0  0  0
   21.9250   17.4707   24.0636 H   0  0  0  0  0  0  0  0  0  0  0  0
   22.5112   18.8335   23.0868 H   0  0  0  0  0  0  0  0  0  0  0  0
  1  2  1  0  0  0  0
  1  3  2  0  0  0  0
  1  4  1  0  0  0  0
  4  5  1  0  0  0  0
  4  6  1  0  0  0  0
  4  7  1  0  0  0  0
  7  8  1  0  0  0  0
  7  9  1  0  0  0  0
  7 10  1  0  0  0  0
 10 11  1  0  0  0  0
 10 12  1  0  0  0  0
 10 13  1  0  0  0  0
 13 14  1  0  0  0  0
 13 15  1  0  0  0  0
 13 16  1  0  0  0  0
M  END
> <VConfSearch Rank>
581

> <Conf_Id>
0

> <Delta U+W>
0.000

> <U+W>
-56.904

> <U>
7.329

> <W>
-64.233

> <W(PB)>
-66.148

> <W(SA)>
1.915

> <Valence>
6.755

> <Coulomb>
-0.421

> <VdW>
0.995

> <VdW6>
-4.495

> <VdW12>
5.490

> <Bond>
0.106

> <Angle>
2.715

> <Pdih>
3.934

> <Idih>
0.000

> <Tether>
0.000

$$$$
VeraChem MOL file


 16 15  0  0  0  0  0  0  0  0999 V2000     
   22.2282   18.6262   20.3862 C   0  0  0  0  0  0  0  0  0  0  0  0
   23.2701   18.5032   20.9987 O   0  5  0  0  0  0  0  0  0  0  0  0
   21.9913   18.0537   19.3413 O   0  0  0  0  0  0  0  0  0  0  0  0
   21.1520   19.5347   20.9702 C   0  0  0  0  0  0  0  0  0  0  0  0
   20.5953   19.9826   20.1380 H   0  0  0  0  0  0  0  0  0  0  0  0
   21.6495   20.3531   21.5046 H   0  0  0  0  0  0  0  0  0  0  0  0
   20.1832   18.7882   21.9199 C   0  0  0  0  0  0  0  0  0  0  0  0
   19.7023   17.9646   21.3740 H   0  0  0  0  0  0  0  0  0  0  0  0
   20.7566   18.3351   22.7406 H   0  0  0  0  0  0  0  0  0  0  0  0
   19.1051   19.7294   22.4964 C   0  0  0  0  0  0  0  0  0  0  0  0
   18.5310   20.1822   21.6761 H   0  0  0  0  0  0  0  0  0  0  0  0
   19.5856   20.5528   23.0430 H   0  0  0  0  0  0  0  0  0  0  0  0
   18.1447   18.9797   23.4407 C   0  0  0  0  0  0  0  0  0  0  0  0
   18.6887   18.5427   24.2883 H   0  0  0  0  0  0  0  0  0  0  0  0
   17.6264   18.1694   22.9113 H   0  0  0  0  0  0  0  0  0  0  0  0
   17.3848   19.6630   23.8417 H   0  0  0  0  0  0  0  0  0  0  0  0
  1  2  1  0  0  0  0
  1  3  2  0  0  0  0
  1  4  1  0  0  0  0
  4  5  1  0  0  0  0
  4  6  1  0  0  0  0
  4  7  1  0  0  0  0
  7  8  1  0  0  0  0
  7  9  1  0  0  0  0
  7 10  1  0  0  0  0
 10 11  1  0  0  0  0
 10 12  1  0  0  0  0
 10 13  1  0  0  0  0
 13 14  1  0  0  0  0
 13 15  1  0  0  0  0
 13 16  1  0  0  0  0
M  END
> <VConfSearch Rank>
582

> <Conf_Id>
22

> <Delta U+W>
-1.185

> <U+W>
-58.089

> <U>
6.298

> <W>
-64.387

> <W(PB)>
-66.329

> <W(SA)>
1.942

> <Valence>
6.246

> <Coulomb>
-0.408

> <VdW>
0.460

> <VdW6>
-4.207

> <VdW12>
4.667

> <Bond>
0.072

> <Angle>
2.246

> <Pdih>
3.928

> <Idih>
0.001

> <Tether>
0.000

$$$$
VeraChem MOL file


 16 15  0  0  0  0  0  0  0  0999 V2000     
   19.3080   17.2425   23.6157 C   0  0  0  0  0  0  0  0  0  0  0  0
   19.5448   17.2940   24.8062 O   0  5  0  0  0  0  0  0  0  0  0  0
   19.0964   16.2065   23.0174 O   0  0  0  0  0  0  0  0  0  0  0  0
   19.2955   18.5469   22.8264 C   0  0  0  0  0  0  0  0  0  0  0  0
   18.9390   19.3433   23.4906 H   0  0  0  0  0  0  0  0  0  0  0  0
   18.5608   18.4428   22.0200 H   0  0  0  0  0  0  0  0  0  0  0  0
   20.6879   18.9146   22.2510 C   0  0  0  0  0  0  0  0  0  0  0  0
   21.4178   18.9256   23.0723 H   0  0  0  0  0  0  0  0  0  0  0  0
   21.0155   18.1302   21.5547 H   0  0  0  0  0  0  0  0  0  0  0  0
   20.7174   20.2880   21.5417 C   0  0  0  0  0  0  0  0  0  0  0  0
   21.7548   20.5193   21.2629 H   0  0  0  0  0  0  0  0  0  0  0  0
   20.4011   21.0741   22.2412 H   0  0  0  0  0  0  0  0  0  0  0  0
   19.8386   20.3372   20.2736 C   0  0  0  0  0  0  0  0  0  0  0  0
   18.7750   20.2239   20.5183 H   0  0  0  0  0  0  0  0  0  0  0  0
   20.1177   19.5412   19.5710 H   0  0  0  0  0  0  0  0  0  0  0  0
   19.9604   21.2995   19.7596 H   0  0  0  0  0  0  0  0  0  0  0  0
  1  2  1  0  0  0  0
  1  3  2  0  0  0  0
  1  4  1  0  0  0  0
  4  5  1  0  0  0  0
  4  6  1  0  0  0  0
  4  7  1  0  0  0  0
  7  8  1  0  0  0  0
  7  9  1  0  0  0  0
  7 10  1  0  0  0  0
 10 11  1  0  0  0  0
 10 12  1  0  0  0  0
 10 13  1  0  0  0  0
 13 14  1  0  0  0  0
 13 15  1  0  0  0  0
 13 16  1  0  0  0  0
M  END
> <VConfSearch Rank>
583

> <Conf_Id>
36

> <Delta U+W>
-0.427

> <U+W>
-57.331

> <U>
7.263

> <W>
-64.594

> <W(PB)>
-66.513

> <W(SA)>
1.920

> <Valence>
6.734

> <Coulomb>
-0.068

> <VdW>
0.598

> <VdW6>
-4.819

> <VdW12>
5.417

> <Bond>
0.107

> <Angle>
2.469

> <Pdih>
4.157

> <Idih>
0.001

> <Tether>
0.000

$$$$
VeraChem MOL file


 16 15  0  0  0  0  0  0  0  0999 V2000     
   21.1432   19.4740   24.2696 C   0  0  0  0  0  0  0  0  0  0  0  0
   20.3363   19.5466   25.1748 O   0  5  0  0  0  0  0  0  0  0  0  0
   22.2888   19.8686   24.3579 O   0  0  0  0  0  0  0  0  0  0  0  0
   20.6883   18.8735   22.9440 C   0  0  0  0  0  0  0  0  0  0  0  0
   19.9427   18.1012   23.1652 H   0  0  0  0  0  0  0  0  0  0  0  0
   21.5486   18.3728   22.4839 H   0  0  0  0  0  0  0  0  0  0  0  0
   20.1044   19.9325   21.9732 C   0  0  0  0  0  0  0  0  0  0  0  0
   19.2181   20.3969   22.4273 H   0  0  0  0  0  0  0  0  0  0  0  0
   20.8427   20.7356   21.8410 H   0  0  0  0  0  0  0  0  0  0  0  0
   19.7399   19.3594   20.5843 C   0  0  0  0  0  0  0  0  0  0  0  0
   20.6289   18.9054   20.1250 H   0  0  0  0  0  0  0  0  0  0  0  0
   19.4401   20.1880   19.9279 H   0  0  0  0  0  0  0  0  0  0  0  0
   18.5954   18.3247   20.6340 C   0  0  0  0  0  0  0  0  0  0  0  0
   18.8923   17.4249   21.1872 H   0  0  0  0  0  0  0  0  0  0  0  0
   18.3154   18.0135   19.6193 H   0  0  0  0  0  0  0  0  0  0  0  0
   17.7042   18.7475   21.1158 H   0  0  0  0  0  0  0  0  0  0  0  0
  1  2  1  0  0  0  0
  1  3  2  0  0  0  0
  1  4  1  0  0  0  0
  4  5  1  0  0  0  0
  4  6  1  0  0  0  0
  4  7  1  0  0  0  0
  7  8  1  0  0  0  0
  7  9  1  0  0  0  0
  7 10  1  0  0  0  0
 10 11  1  0  0  0  0
 10 12  1  0  0  0  0
 10 13  1  0  0  0  0
 13 14  1  0  0  0  0
 13 15  1  0  0  0  0
 13 16  1  0  0  0  0
M  END
> <VConfSearch Rank>
584

> <Conf_Id>
17

> <Delta U+W>
-0.432

> <U+W>
-57.336

> <U>
7.263

> <W>
-64.599

> <W(PB)>
-66.503

> <W(SA)>
1.904

> <Valence>
6.734

> <Coulomb>
-0.068

> <VdW>
0.598

> <VdW6>
-4.819

> <VdW12>
5.417

> <Bond>
0.107

> <Angle>
2.469

> <Pdih>
4.157

> <Idih>
0.001

> <Tether>
0.000

$$$$
VeraChem MOL file


 16 15  0  0  0  0  0  0  0  0999 V2000     
   19.9617   18.1607   19.9402 C   0  0  0  0  0  0  0  0  0  0  0  0
   21.0283   18.0475   19.3695 O   0  5  0  0  0  0  0  0  0  0  0  0
   19.1530   17.2590   20.0363 O   0  0  0  0  0  0  0  0  0  0  0  0
   19.6105   19.5162   20.5475 C   0  0  0  0  0  0  0  0  0  0  0  0
   18.5256   19.5606   20.7023 H   0  0  0  0  0  0  0  0  0  0  0  0
   19.8561   20.2828   19.8031 H   0  0  0  0  0  0  0  0  0  0  0  0
   20.3530   19.8262   21.8733 C   0  0  0  0  0  0  0  0  0  0  0  0
   21.4371   19.7501   21.7100 H   0  0  0  0  0  0  0  0  0  0  0  0
   20.1489   20.8664   22.1612 H   0  0  0  0  0  0  0  0  0  0  0  0
   19.9303   18.8876   23.0242 C   0  0  0  0  0  0  0  0  0  0  0  0
   20.1489   17.8447   22.7554 H   0  0  0  0  0  0  0  0  0  0  0  0
   18.8445   18.9555   23.1780 H   0  0  0  0  0  0  0  0  0  0  0  0
   20.6574   19.2387   24.3373 C   0  0  0  0  0  0  0  0  0  0  0  0
   21.7453   19.1487   24.2197 H   0  0  0  0  0  0  0  0  0  0  0  0
   20.3466   18.5623   25.1441 H   0  0  0  0  0  0  0  0  0  0  0  0
   20.4299   20.2663   24.6500 H   0  0  0  0  0  0  0  0  0  0  0  0
  1  2  1  0  0  0  0
  1  3  2  0  0  0  0
  1  4  1  0  0  0  0
  4  5  1  0  0  0  0
  4  6  1  0  0  0  0
  4  7  1  0  0  0  0
  7  8  1  0  0  0  0
  7  9  1  0  0  0  0
  7 10  1  0  0  0  0
 10 11  1  0  0  0  0
 10 12  1  0  0  0  0
 10 13  1  0  0  0  0
 13 14  1  0  0  0  0
 13 15  1  0  0  0  0
 13 16  1  0  0  0  0
M  END
> <VConfSearch Rank>
585

> <Conf_Id>
19

> <Delta U+W>
0.048

> <U+W>
-56.856

> <U>
8.276

> <W>
-65.132

> <W(PB)>
-67.031

> <W(SA)>
1.899

> <Valence>
6.513

> <Coulomb>
1.428

> <VdW>
0.335

> <VdW6>
-5.021

> <VdW12>
5.356

> <Bond>
0.092

> <Angle>
2.417

> <Pdih>
4.003

> <Idih>
0.001

> <Tether>
0.000

$$$$
VeraChem MOL file


 16 15  0  0  0  0  0  0  0  0999 V2000     
   18.6534   17.3650   21.1352 C   0  0  0  0  0  0  0  0  0  0  0  0
   17.9009   16.8165   21.9157 O   0  5  0  0  0  0  0  0  0  0  0  0
   19.4330   16.7661   20.4212 O   0  0  0  0  0  0  0  0  0  0  0  0
   18.5980   18.8867   21.0307 C   0  0  0  0  0  0  0  0  0  0  0  0
   17.5410   19.1741   20.9822 H   0  0  0  0  0  0  0  0  0  0  0  0
   19.0529   19.1896   20.0797 H   0  0  0  0  0  0  0  0  0  0  0  0
   19.2813   19.6265   22.2100 C   0  0  0  0  0  0  0  0  0  0  0  0
   19.0733   20.7017   22.1248 H   0  0  0  0  0  0  0  0  0  0  0  0
   18.8353   19.2922   23.1571 H   0  0  0  0  0  0  0  0  0  0  0  0
   20.8091   19.4052   22.2447 C   0  0  0  0  0  0  0  0  0  0  0  0
   21.2521   19.7284   21.2925 H   0  0  0  0  0  0  0  0  0  0  0  0
   21.0292   18.3337   22.3505 H   0  0  0  0  0  0  0  0  0  0  0  0
   21.4671   20.1778   23.4050 C   0  0  0  0  0  0  0  0  0  0  0  0
   21.2929   21.2574   23.3072 H   0  0  0  0  0  0  0  0  0  0  0  0
   22.5517   20.0091   23.4159 H   0  0  0  0  0  0  0  0  0  0  0  0
   21.0635   19.8514   24.3725 H   0  0  0  0  0  0  0  0  0  0  0  0
  1  2  1  0  0  0  0
  1  3  2  0  0  0  0
  1  4  1  0  0  0  0
  4  5  1  0  0  0  0
  4  6  1  0  0  0  0
  4  7  1  0  0  0  0
  7  8  1  0  0  0  0
  7  9  1  0  0  0  0
  7 10  1  0  0  0  0
 10 11  1  0  0  0  0
 10 12  1  0  0  0  0
 10 13  1  0  0  0  0
 13 14  1  0  0  0  0
 13 15  1  0  0  0  0
 13 16  1  0  0  0  0
M  END
> <VConfSearch Rank>
586

> <Conf_Id>
20

> <Delta U+W>
-0.010

> <U+W>
-56.914

> <U>
8.277

> <W>
-65.191

> <W(PB)>
-67.081

> <W(SA)>
1.890

> <Valence>
6.513

> <Coulomb>
1.429

> <VdW>
0.335

> <VdW6>
-5.021

> <VdW12>
5.356

> <Bond>
0.092

> <Angle>
2.417

> <Pdih>
4.002

> <Idih>
0.001

> <Tether>
0.000

$$$$
VeraChem MOL file


 16 15  0  0  0  0  0  0  0  0999 V2000     
   17.9267   19.2982   21.2510 C   0  0  0  0  0  0  0  0  0  0  0  0
   17.6713   20.0757   20.3527 O   0  5  0  0  0  0  0  0  0  0  0  0
   17.2093   19.1314   22.2173 O   0  0  0  0  0  0  0  0  0  0  0  0
   19.1998   18.4635   21.1401 C   0  0  0  0  0  0  0  0  0  0  0  0
   19.2012   18.0026   20.1454 H   0  0  0  0  0  0  0  0  0  0  0  0
   19.1455   17.6411   21.8626 H   0  0  0  0  0  0  0  0  0  0  0  0
   20.5107   19.2744   21.3312 C   0  0  0  0  0  0  0  0  0  0  0  0
   21.3711   18.6146   21.1561 H   0  0  0  0  0  0  0  0  0  0  0  0
   20.5587   20.0545   20.5588 H   0  0  0  0  0  0  0  0  0  0  0  0
   20.6531   19.9383   22.7215 C   0  0  0  0  0  0  0  0  0  0  0  0
   19.8154   20.6282   22.8946 H   0  0  0  0  0  0  0  0  0  0  0  0
   21.5648   20.5514   22.7276 H   0  0  0  0  0  0  0  0  0  0  0  0
   20.7308   18.9187   23.8778 C   0  0  0  0  0  0  0  0  0  0  0  0
   19.7882   18.3671   23.9860 H   0  0  0  0  0  0  0  0  0  0  0  0
   20.9261   19.4313   24.8286 H   0  0  0  0  0  0  0  0  0  0  0  0
   21.5389   18.1946   23.7111 H   0  0  0  0  0  0  0  0  0  0  0  0
  1  2  1  0  0  0  0
  1  3  2  0  0  0  0
  1  4  1  0  0  0  0
  4  5  1  0  0  0  0
  4  6  1  0  0  0  0
  4  7  1  0  0  0  0
  7  8  1  0  0  0  0
  7  9  1  0  0  0  0
  7 10  1  0  0  0  0
 10 11  1  0  0  0  0
 10 12  1  0  0  0  0
 10 13  1  0  0  0  0
 13 14  1  0  0  0  0
 13 15  1  0  0  0  0
 13 16  1  0  0  0  0
M  END
> <VConfSearch Rank>
587

> <Conf_Id>
37

> <Delta U+W>
1.063

> <U+W>
-55.841

> <U>
9.719

> <W>
-65.560

> <W(PB)>
-67.414

> <W(SA)>
1.854

> <Valence>
7.002

> <Coulomb>
2.402

> <VdW>
0.314

> <VdW6>
-5.861

> <VdW12>
6.175

> <Bond>
0.134

> <Angle>
2.733

> <Pdih>
4.133

> <Idih>
0.002

> <Tether>
0.000

$$$$
VeraChem MOL file


 16 15  0  0  0  0  0  0  0  0999 V2000     
   20.5726   21.2072   22.5445 C   0  0  0  0  0  0  0  0  0  0  0  0
   19.8111   22.1089   22.2550 O   0  5  0  0  0  0  0  0  0  0  0  0
   21.1386   21.1261   23.6165 O   0  0  0  0  0  0  0  0  0  0  0  0
   20.8581   20.1402   21.4910 C   0  0  0  0  0  0  0  0  0  0  0  0
   21.7461   19.5742   21.7950 H   0  0  0  0  0  0  0  0  0  0  0  0
   21.1249   20.6612   20.5640 H   0  0  0  0  0  0  0  0  0  0  0  0
   19.6662   19.1829   21.2161 C   0  0  0  0  0  0  0  0  0  0  0  0
   18.8116   19.7762   20.8624 H   0  0  0  0  0  0  0  0  0  0  0  0
   19.9313   18.5045   20.3940 H   0  0  0  0  0  0  0  0  0  0  0  0
   19.2225   18.3487   22.4413 C   0  0  0  0  0  0  0  0  0  0  0  0
   18.3287   17.7706   22.1691 H   0  0  0  0  0  0  0  0  0  0  0  0
   18.9211   19.0168   23.2600 H   0  0  0  0  0  0  0  0  0  0  0  0
   20.3113   17.3758   22.9418 C   0  0  0  0  0  0  0  0  0  0  0  0
   20.6558   16.7195   22.1321 H   0  0  0  0  0  0  0  0  0  0  0  0
   19.9186   16.7422   23.7475 H   0  0  0  0  0  0  0  0  0  0  0  0
   21.1779   17.9190   23.3399 H   0  0  0  0  0  0  0  0  0  0  0  0
  1  2  1  0  0  0  0
  1  3  2  0  0  0  0
  1  4  1  0  0  0  0
  4  5  1  0  0  0  0
  4  6  1  0  0  0  0
  4  7  1  0  0  0  0
  7  8  1  0  0  0  0
  7  9  1  0  0  0  0
  7 10  1  0  0  0  0
 10 11  1  0  0  0  0
 10 12  1  0  0  0  0
 10 13  1  0  0  0  0
 13 14  1  0  0  0  0
 13 15  1  0  0  0  0
 13 16  1  0  0  0  0
M  END
> <VConfSearch Rank>
588

> <Conf_Id>
39

> <Delta U+W>
1.129

> <U+W>
-55.775

> <U>
9.718

> <W>
-65.493

> <W(PB)>
-67.361

> <W(SA)>
1.869

> <Valence>
7.002

> <Coulomb>
2.402

> <VdW>
0.314

> <VdW6>
-5.861

> <VdW12>
6.175

> <Bond>
0.134

> <Angle>
2.734

> <Pdih>
4.133

> <Idih>
0.002

> <Tether>
0.000

$$$$
VeraChem MOL file


 16 15  0  0  0  0  0  0  0  0999 V2000     
   21.8123   18.8675   22.7936 C   0  0  0  0  0  0  0  0  0  0  0  0
   22.4482   19.8754   22.5558 O   0  5  0  0  0  0  0  0  0  0  0  0
   22.1808   17.7539   22.4754 O   0  0  0  0  0  0  0  0  0  0  0  0
   20.5298   19.0006   23.6128 C   0  0  0  0  0  0  0  0  0  0  0  0
   20.3864   20.0540   23.8825 H   0  0  0  0  0  0  0  0  0  0  0  0
   20.7040   18.4584   24.5495 H   0  0  0  0  0  0  0  0  0  0  0  0
   19.2477   18.4395   22.9358 C   0  0  0  0  0  0  0  0  0  0  0  0
   19.4601   17.4598   22.4856 H   0  0  0  0  0  0  0  0  0  0  0  0
   18.5021   18.2564   23.7213 H   0  0  0  0  0  0  0  0  0  0  0  0
   18.6063   19.3788   21.8860 C   0  0  0  0  0  0  0  0  0  0  0  0
   18.3974   20.3576   22.3394 H   0  0  0  0  0  0  0  0  0  0  0  0
   17.6333   18.9602   21.5940 H   0  0  0  0  0  0  0  0  0  0  0  0
   19.4588   19.5673   20.6140 C   0  0  0  0  0  0  0  0  0  0  0  0
   20.3743   20.1326   20.8269 H   0  0  0  0  0  0  0  0  0  0  0  0
   18.8962   20.1245   19.8540 H   0  0  0  0  0  0  0  0  0  0  0  0
   19.7436   18.5985   20.1832 H   0  0  0  0  0  0  0  0  0  0  0  0
  1  2  1  0  0  0  0
  1  3  2  0  0  0  0
  1  4  1  0  0  0  0
  4  5  1  0  0  0  0
  4  6  1  0  0  0  0
  4  7  1  0  0  0  0
  7  8  1  0  0  0  0
  7  9  1  0  0  0  0
  7 10  1  0  0  0  0
 10 11  1  0  0  0  0
 10 12  1  0  0  0  0
 10 13  1  0  0  0  0
 13 14  1  0  0  0  0
 13 15  1  0  0  0  0
 13 16  1  0  0  0  0
M  END
> <VConfSearch Rank>
589

> <Conf_Id>
47

> <Delta U+W>
2.301

> <U+W>
-54.603

> <U>
11.258

> <W>
-65.861

> <W(PB)>
-67.702

> <W(SA)>
1.841

> <Valence>
8.169

> <Coulomb>
2.735

> <VdW>
0.355

> <VdW6>
-6.245

> <VdW12>
6.600

> <Bond>
0.149

> <Angle>
3.168

> <Pdih>
4.840

> <Idih>
0.011

> <Tether>
0.000

$$$$
VeraChem MOL file


 16 15  0  0  0  0  0  0  0  0999 V2000     
   21.1574   20.3013   21.3021 C   0  0  0  0  0  0  0  0  0  0  0  0
   22.2779   19.8479   21.4286 O   0  5  0  0  0  0  0  0  0  0  0  0
   20.8867   21.4731   21.4764 O   0  0  0  0  0  0  0  0  0  0  0  0
   20.0496   19.3706   20.8119 C   0  0  0  0  0  0  0  0  0  0  0  0
   20.3531   19.0269   19.8161 H   0  0  0  0  0  0  0  0  0  0  0  0
   19.1294   19.9517   20.6758 H   0  0  0  0  0  0  0  0  0  0  0  0
   19.7756   18.1324   21.7112 C   0  0  0  0  0  0  0  0  0  0  0  0
   19.2540   17.3807   21.1034 H   0  0  0  0  0  0  0  0  0  0  0  0
   20.7262   17.6710   22.0130 H   0  0  0  0  0  0  0  0  0  0  0  0
   18.9043   18.4183   22.9580 C   0  0  0  0  0  0  0  0  0  0  0  0
   18.6427   17.4594   23.4262 H   0  0  0  0  0  0  0  0  0  0  0  0
   17.9559   18.8811   22.6522 H   0  0  0  0  0  0  0  0  0  0  0  0
   19.5976   19.3045   24.0136 C   0  0  0  0  0  0  0  0  0  0  0  0
   18.9927   19.3569   24.9280 H   0  0  0  0  0  0  0  0  0  0  0  0
   19.7321   20.3299   23.6483 H   0  0  0  0  0  0  0  0  0  0  0  0
   20.5830   18.9012   24.2811 H   0  0  0  0  0  0  0  0  0  0  0  0
  1  2  1  0  0  0  0
  1  3  2  0  0  0  0
  1  4  1  0  0  0  0
  4  5  1  0  0  0  0
  4  6  1  0  0  0  0
  4  7  1  0  0  0  0
  7  8  1  0  0  0  0
  7  9  1  0  0  0  0
  7 10  1  0  0  0  0
 10 11  1  0  0  0  0
 10 12  1  0  0  0  0
 10 13  1  0  0  0  0
 13 14  1  0  0  0  0
 13 15  1  0  0  0  0
 13 16  1  0  0  0  0
M  END
> <VConfSearch Rank>
590

> <Conf_Id>
45

> <Delta U+W>
2.303

> <U+W>
-54.601

> <U>
11.258

> <W>
-65.860

> <W(PB)>
-67.709

> <W(SA)>
1.849

> <Valence>
8.169

> <Coulomb>
2.735

> <VdW>
0.355

> <VdW6>
-6.245

> <VdW12>
6.600

> <Bond>
0.149

> <Angle>
3.168

> <Pdih>
4.840

> <Idih>
0.011

> <Tether>
0.000

$$$$
VeraChem MOL file


 16 15  0  0  0  0  0  0  0  0999 V2000     
   18.7715   18.0796   19.6870 C   0  0  0  0  0  0  0  0  0  0  0  0
   19.7464   18.2138   18.9735 O   0  5  0  0  0  0  0  0  0  0  0  0
   17.7217   17.6125   19.2931 O   0  0  0  0  0  0  0  0  0  0  0  0
   18.8377   18.5097   21.1535 C   0  0  0  0  0  0  0  0  0  0  0  0
   18.5920   17.6323   21.7633 H   0  0  0  0  0  0  0  0  0  0  0  0
   18.0412   19.2457   21.3150 H   0  0  0  0  0  0  0  0  0  0  0  0
   20.1976   19.1011   21.6110 C   0  0  0  0  0  0  0  0  0  0  0  0
   20.9923   18.3614   21.4418 H   0  0  0  0  0  0  0  0  0  0  0  0
   20.4410   19.9765   20.9930 H   0  0  0  0  0  0  0  0  0  0  0  0
   20.1747   19.5069   23.0997 C   0  0  0  0  0  0  0  0  0  0  0  0
   19.9332   18.6319   23.7190 H   0  0  0  0  0  0  0  0  0  0  0  0
   19.3815   20.2480   23.2700 H   0  0  0  0  0  0  0  0  0  0  0  0
   21.5279   20.0934   23.5480 C   0  0  0  0  0  0  0  0  0  0  0  0
   22.3357   19.3613   23.4179 H   0  0  0  0  0  0  0  0  0  0  0  0
   21.4946   20.3766   24.6082 H   0  0  0  0  0  0  0  0  0  0  0  0
   21.7800   20.9893   22.9656 H   0  0  0  0  0  0  0  0  0  0  0  0
  1  2  1  0  0  0  0
  1  3  2  0  0  0  0
  1  4  1  0  0  0  0
  4  5  1  0  0  0  0
  4  6  1  0  0  0  0
  4  7  1  0  0  0  0
  7  8  1  0  0  0  0
  7  9  1  0  0  0  0
  7 10  1  0  0  0  0
 10 11  1  0  0  0  0
 10 12  1  0  0  0  0
 10 13  1  0  0  0  0
 13 14  1  0  0  0  0
 13 15  1  0  0  0  0
 13 16  1  0  0  0  0
M  END
> <VConfSearch Rank>
591

> <Conf_Id>
0

> <Delta U+W>
0.000

> <U+W>
-56.904

> <U>
7.329

> <W>
-64.233

> <W(PB)>
-66.148

> <W(SA)>
1.915

> <Valence>
6.755

> <Coulomb>
-0.421

> <VdW>
0.995

> <VdW6>
-4.495

> <VdW12>
5.490

> <Bond>
0.106

> <Angle>
2.715

> <Pdih>
3.934

> <Idih>
0.000

> <Tether>
0.000

$$$$
VeraChem MOL file


 16 15  0  0  0  0  0  0  0  0999 V2000     
   20.0663   20.8811   24.0333 C   0  0  0  0  0  0  0  0  0  0  0  0
   19.6499   20.4315   25.0822 O   0  5  0  0  0  0  0  0  0  0  0  0
   20.9213   21.7413   23.9631 O   0  0  0  0  0  0  0  0  0  0  0  0
   19.4979   20.3223   22.7335 C   0  0  0  0  0  0  0  0  0  0  0  0
   19.4994   21.1260   21.9873 H   0  0  0  0  0  0  0  0  0  0  0  0
   18.4512   20.0461   22.9100 H   0  0  0  0  0  0  0  0  0  0  0  0
   20.2903   19.1015   22.2048 C   0  0  0  0  0  0  0  0  0  0  0  0
   21.3384   19.3905   22.0449 H   0  0  0  0  0  0  0  0  0  0  0  0
   20.2902   18.3105   22.9677 H   0  0  0  0  0  0  0  0  0  0  0  0
   19.6948   18.5561   20.8901 C   0  0  0  0  0  0  0  0  0  0  0  0
   19.6954   19.3465   20.1267 H   0  0  0  0  0  0  0  0  0  0  0  0
   18.6469   18.2663   21.0497 H   0  0  0  0  0  0  0  0  0  0  0  0
   20.4884   17.3413   20.3698 C   0  0  0  0  0  0  0  0  0  0  0  0
   20.4780   16.5227   21.1014 H   0  0  0  0  0  0  0  0  0  0  0  0
   21.5341   17.6109   20.1717 H   0  0  0  0  0  0  0  0  0  0  0  0
   20.0522   16.9659   19.4349 H   0  0  0  0  0  0  0  0  0  0  0  0
  1  2  1  0  0  0  0
  1  3  2  0  0  0  0
  1  4  1  0  0  0  0
  4  5  1  0  0  0  0
  4  6  1  0  0  0  0
  4  7  1  0  0  0  0
  7  8  1  0  0  0  0
  7  9  1  0  0  0  0
  7 10  1  0  0  0  0
 10 11  1  0  0  0  0
 10 12  1  0  0  0  0
 10 13  1  0  0  0  0
 13 14  1  0  0  0  0
 13 15  1  0  0  0  0
 13 16  1  0  0  0  0
M  END
> <VConfSearch Rank>
592

> <Conf_Id>
22

> <Delta U+W>
-1.185

> <U+W>
-58.089

> <U>
6.298

> <W>
-64.387

> <W(PB)>
-66.329

> <W(SA)>
1.942

> <Valence>
6.246

> <Coulomb>
-0.408

> <VdW>
0.460

> <VdW6>
-4.207

> <VdW12>
4.667

> <Bond>
0.072

> <Angle>
2.246

> <Pdih>
3.928

> <Idih>
0.001

> <Tether>
0.000

$$$$
VeraChem MOL file


 16 15  0  0  0  0  0  0  0  0999 V2000     
   18.1363   20.3205   23.3949 C   0  0  0  0  0  0  0  0  0  0  0  0
   17.2551   19.7046   23.9609 O   0  5  0  0  0  0  0  0  0  0  0  0
   18.0586   21.5005   23.1166 O   0  0  0  0  0  0  0  0  0  0  0  0
   19.3994   19.5664   22.9944 C   0  0  0  0  0  0  0  0  0  0  0  0
   19.5783   18.7819   23.7394 H   0  0  0  0  0  0  0  0  0  0  0  0
   20.2399   20.2675   23.0522 H   0  0  0  0  0  0  0  0  0  0  0  0
   19.3046   18.9452   21.5766 C   0  0  0  0  0  0  0  0  0  0  0  0
   18.4045   18.3169   21.5258 H   0  0  0  0  0  0  0  0  0  0  0  0
   19.1681   19.7441   20.8347 H   0  0  0  0  0  0  0  0  0  0  0  0
   20.5325   18.0853   21.1982 C   0  0  0  0  0  0  0  0  0  0  0  0
   20.3380   17.5972   20.2332 H   0  0  0  0  0  0  0  0  0  0  0  0
   20.6622   17.2792   21.9335 H   0  0  0  0  0  0  0  0  0  0  0  0
   21.8374   18.9027   21.0884 C   0  0  0  0  0  0  0  0  0  0  0  0
   22.1336   19.3174   22.0600 H   0  0  0  0  0  0  0  0  0  0  0  0
   21.7225   19.7330   20.3794 H   0  0  0  0  0  0  0  0  0  0  0  0
   22.6594   18.2672   20.7341 H   0  0  0  0  0  0  0  0  0  0  0  0
  1  2  1  0  0  0  0
  1  3  2  0  0  0  0
  1  4  1  0  0  0  0
  4  5  1  0  0  0  0
  4  6  1  0  0  0  0
  4  7  1  0  0  0  0
  7  8  1  0  0  0  0
  7  9  1  0  0  0  0
  7 10  1  0  0  0  0
 10 11  1  0  0  0  0
 10 12  1  0  0  0  0
 10 13  1  0  0  0  0
 13 14  1  0  0  0  0
 13 15  1  0  0  0  0
 13 16  1  0  0  0  0
M  END
> <VConfSearch Rank>
593

> <Conf_Id>
36

> <Delta U+W>
-0.427

> <U+W>
-57.331

> <U>
7.263

> <W>
-64.594

> <W(PB)>
-66.513

> <W(SA)>
1.920

> <Valence>
6.734

> <Coulomb>
-0.068

> <VdW>
0.598

> <VdW6>
-4.819

> <VdW12>
5.417

> <Bond>
0.107

> <Angle>
2.469

> <Pdih>
4.157

> <Idih>
0.001

> <Tether>
0.000

$$$$
VeraChem MOL file


 16 15  0  0  0  0  0  0  0  0999 V2000     
   17.7145   19.0718   20.7116 C   0  0  0  0  0  0  0  0  0  0  0  0
   16.8659   18.4799   21.3483 O   0  5  0  0  0  0  0  0  0  0  0  0
   17.6396   19.2709   19.5154 O   0  0  0  0  0  0  0  0  0  0  0  0
   18.9503   19.5747   21.4496 C   0  0  0  0  0  0  0  0  0  0  0  0
   18.6450   19.8465   22.4664 H   0  0  0  0  0  0  0  0  0  0  0  0
   19.2916   20.4926   20.9561 H   0  0  0  0  0  0  0  0  0  0  0  0
   20.0957   18.5298   21.4855 C   0  0  0  0  0  0  0  0  0  0  0  0
   19.7559   17.6316   22.0194 H   0  0  0  0  0  0  0  0  0  0  0  0
   20.3182   18.2142   20.4567 H   0  0  0  0  0  0  0  0  0  0  0  0
   21.3944   19.0624   22.1335 C   0  0  0  0  0  0  0  0  0  0  0  0
   21.7408   19.9539   21.5924 H   0  0  0  0  0  0  0  0  0  0  0  0
   22.1821   18.3047   22.0203 H   0  0  0  0  0  0  0  0  0  0  0  0
   21.2349   19.3945   23.6326 C   0  0  0  0  0  0  0  0  0  0  0  0
   20.5383   20.2281   23.7866 H   0  0  0  0  0  0  0  0  0  0  0  0
   22.2008   19.6843   24.0662 H   0  0  0  0  0  0  0  0  0  0  0  0
   20.8615   18.5254   24.1899 H   0  0  0  0  0  0  0  0  0  0  0  0
  1  2  1  0  0  0  0
  1  3  2  0  0  0  0
  1  4  1  0  0  0  0
  4  5  1  0  0  0  0
  4  6  1  0  0  0  0
  4  7  1  0  0  0  0
  7  8  1  0  0  0  0
  7  9  1  0  0  0  0
  7 10  1  0  0  0  0
 10 11  1  0  0  0  0
 10 12  1  0  0  0  0
 10 13  1  0  0  0  0
 13 14  1  0  0  0  0
 13 15  1  0  0  0  0
 13 16  1  0  0  0  0
M  END
> <VConfSearch Rank>
594

> <Conf_Id>
17

> <Delta U+W>
-0.432

> <U+W>
-57.336

> <U>
7.263

> <W>
-64.599

> <W(PB)>
-66.503

> <W(SA)>
1.904

> <Valence>
6.734

> <Coulomb>
-0.068

> <VdW>
0.598

> <VdW6>
-4.819

> <VdW12>
5.417

> <Bond>
0.107

> <Angle>
2.469

> <Pdih>
4.157

> <Idih>
0.001

> <Tether>
0.000

$$$$
VeraChem MOL file


 16 15  0  0  0  0  0  0  0  0999 V2000     
   19.2178   19.3938   19.9237 C   0  0  0  0  0  0  0  0  0  0  0  0
   19.9522   19.0094   19.0352 O   0  5  0  0  0  0  0  0  0  0  0  0
   18.0462   19.0828   20.0076 O   0  0  0  0  0  0  0  0  0  0  0  0
   19.7938   20.3371   20.9762 C   0  0  0  0  0  0  0  0  0  0  0  0
   18.9649   20.8538   21.4752 H   0  0  0  0  0  0  0  0  0  0  0  0
   20.3731   21.1037   20.4480 H   0  0  0  0  0  0  0  0  0  0  0  0
   20.6971   19.6378   22.0251 C   0  0  0  0  0  0  0  0  0  0  0  0
   21.5057   19.1012   21.5095 H   0  0  0  0  0  0  0  0  0  0  0  0
   21.1747   20.4035   22.6512 H   0  0  0  0  0  0  0  0  0  0  0  0
   19.9126   18.6602   22.9269 C   0  0  0  0  0  0  0  0  0  0  0  0
   19.4468   17.8770   22.3126 H   0  0  0  0  0  0  0  0  0  0  0  0
   19.0968   19.1955   23.4321 H   0  0  0  0  0  0  0  0  0  0  0  0
   20.8266   18.0050   23.9812 C   0  0  0  0  0  0  0  0  0  0  0  0
   21.6344   17.4367   23.5016 H   0  0  0  0  0  0  0  0  0  0  0  0
   20.2541   17.3131   24.6127 H   0  0  0  0  0  0  0  0  0  0  0  0
   21.2804   18.7626   24.6335 H   0  0  0  0  0  0  0  0  0  0  0  0
  1  2  1  0  0  0  0
  1  3  2  0  0  0  0
  1  4  1  0  0  0  0
  4  5  1  0  0  0  0
  4  6  1  0  0  0  0
  4  7  1  0  0  0  0
  7  8  1  0  0  0  0
  7  9  1  0  0  0  0
  7 10  1  0  0  0  0
 10 11  1  0  0  0  0
 10 12  1  0  0  0  0
 10 13  1  0  0  0  0
 13 14  1  0  0  0  0
 13 15  1  0  0  0  0
 13 16  1  0  0  0  0
M  END
> <VConfSearch Rank>
595

> <Conf_Id>
19

> <Delta U+W>
0.048

> <U+W>
-56.856

> <U>
8.276

> <W>
-65.132

> <W(PB)>
-67.031

> <W(SA)>
1.899

> <Valence>
6.513

> <Coulomb>
1.428

> <VdW>
0.335

> <VdW6>
-5.021

> <VdW12>
5.356

> <Bond>
0.092

> <Angle>
2.417

> <Pdih>
4.003

> <Idih>
0.001

> <Tether>
0.000

$$$$
VeraChem MOL file


 16 15  0  0  0  0  0  0  0  0999 V2000     
   21.9920   20.0528   22.6254 C   0  0  0  0  0  0  0  0  0  0  0  0
   22.9109   19.2945   22.3869 O   0  5  0  0  0  0  0  0  0  0  0  0
   21.8628   20.6395   23.6815 O   0  0  0  0  0  0  0  0  0  0  0  0
   20.9583   20.2981   21.5296 C   0  0  0  0  0  0  0  0  0  0  0  0
   21.5051   20.4640   20.5938 H   0  0  0  0  0  0  0  0  0  0  0  0
   20.4239   21.2293   21.7538 H   0  0  0  0  0  0  0  0  0  0  0  0
   19.9500   19.1351   21.3400 C   0  0  0  0  0  0  0  0  0  0  0  0
   19.3394   19.3345   20.4489 H   0  0  0  0  0  0  0  0  0  0  0  0
   20.5003   18.2042   21.1445 H   0  0  0  0  0  0  0  0  0  0  0  0
   19.0229   18.9480   22.5604 C   0  0  0  0  0  0  0  0  0  0  0  0
   18.4825   19.8833   22.7622 H   0  0  0  0  0  0  0  0  0  0  0  0
   19.6222   18.7275   23.4548 H   0  0  0  0  0  0  0  0  0  0  0  0
   18.0094   17.8090   22.3324 C   0  0  0  0  0  0  0  0  0  0  0  0
   17.3717   18.0184   21.4635 H   0  0  0  0  0  0  0  0  0  0  0  0
   17.3593   17.6888   23.2088 H   0  0  0  0  0  0  0  0  0  0  0  0
   18.5240   16.8549   22.1585 H   0  0  0  0  0  0  0  0  0  0  0  0
  1  2  1  0  0  0  0
  1  3  2  0  0  0  0
  1  4  1  0  0  0  0
  4  5  1  0  0  0  0
  4  6  1  0  0  0  0
  4  7  1  0  0  0  0
  7  8  1  0  0  0  0
  7  9  1  0  0  0  0
  7 10  1  0  0  0  0
 10 11  1  0  0  0  0
 10 12  1  0  0  0  0
 10 13  1  0  0  0  0
 13 14  1  0  0  0  0
 13 15  1  0  0  0  0
 13 16  1  0  0  0  0
M  END
> <VConfSearch Rank>
596

> <Conf_Id>
20

> <Delta U+W>
-0.010

> <U+W>
-56.914

> <U>
8.277

> <W>
-65.191

> <W(PB)>
-67.081

> <W(SA)>
1.890

> <Valence>
6.513

> <Coulomb>
1.429

> <VdW>
0.335

> <VdW6>
-5.021

> <VdW12>
5.356

> <Bond>
0.092

> <Angle>
2.417

> <Pdih>
4.002

> <Idih>
0.001

> <Tether>
0.000

$$$$
VeraChem MOL file


 16 15  0  0  0  0  0  0  0  0999 V2000     
   19.0547   19.1373   20.1818 C   0  0  0  0  0  0  0  0  0  0  0  0
   18.1157   18.4390   19.8540 O   0  5  0  0  0  0  0  0  0  0  0  0
   20.0734   19.2409   19.5277 O   0  0  0  0  0  0  0  0  0  0  0  0
   18.9313   19.9528   21.4661 C   0  0  0  0  0  0  0  0  0  0  0  0
   17.9774   20.4911   21.4195 H   0  0  0  0  0  0  0  0  0  0  0  0
   19.7178   20.7159   21.4754 H   0  0  0  0  0  0  0  0  0  0  0  0
   18.9773   19.1032   22.7657 C   0  0  0  0  0  0  0  0  0  0  0  0
   18.8017   19.7577   23.6301 H   0  0  0  0  0  0  0  0  0  0  0  0
   18.1448   18.3863   22.7481 H   0  0  0  0  0  0  0  0  0  0  0  0
   20.3000   18.3282   22.9745 C   0  0  0  0  0  0  0  0  0  0  0  0
   20.4698   17.6434   22.1319 H   0  0  0  0  0  0  0  0  0  0  0  0
   20.2020   17.6985   23.8695 H   0  0  0  0  0  0  0  0  0  0  0  0
   21.5255   19.2507   23.1464 C   0  0  0  0  0  0  0  0  0  0  0  0
   21.7343   19.8107   22.2258 H   0  0  0  0  0  0  0  0  0  0  0  0
   22.4195   18.6604   23.3854 H   0  0  0  0  0  0  0  0  0  0  0  0
   21.3665   19.9696   23.9607 H   0  0  0  0  0  0  0  0  0  0  0  0
  1  2  1  0  0  0  0
  1  3  2  0  0  0  0
  1  4  1  0  0  0  0
  4  5  1  0  0  0  0
  4  6  1  0  0  0  0
  4  7  1  0  0  0  0
  7  8  1  0  0  0  0
  7  9  1  0  0  0  0
  7 10  1  0  0  0  0
 10 11  1  0  0  0  0
 10 12  1  0  0  0  0
 10 13  1  0  0  0  0
 13 14  1  0  0  0  0
 13 15  1  0  0  0  0
 13 16  1  0  0  0  0
M  END
> <VConfSearch Rank>
597

> <Conf_Id>
37

> <Delta U+W>
1.063

> <U+W>
-55.841

> <U>
9.719

> <W>
-65.560

> <W(PB)>
-67.414

> <W(SA)>
1.854

> <Valence>
7.002

> <Coulomb>
2.402

> <VdW>
0.314

> <VdW6>
-5.861

> <VdW12>
6.175

> <Bond>
0.134

> <Angle>
2.733

> <Pdih>
4.133

> <Idih>
0.002

> <Tether>
0.000

$$$$
VeraChem MOL file


 16 15  0  0  0  0  0  0  0  0999 V2000     
   21.6456   19.8773   20.8341 C   0  0  0  0  0  0  0  0  0  0  0  0
   21.3931   20.3411   19.7396 O   0  5  0  0  0  0  0  0  0  0  0  0
   22.4061   20.4000   21.6244 O   0  0  0  0  0  0  0  0  0  0  0  0
   20.9983   18.5498   21.2199 C   0  0  0  0  0  0  0  0  0  0  0  0
   21.5253   18.1410   22.0896 H   0  0  0  0  0  0  0  0  0  0  0  0
   21.1735   17.8502   20.3942 H   0  0  0  0  0  0  0  0  0  0  0  0
   19.4730   18.6431   21.4979 C   0  0  0  0  0  0  0  0  0  0  0  0
   18.9704   19.0043   20.5900 H   0  0  0  0  0  0  0  0  0  0  0  0
   19.0793   17.6355   21.6876 H   0  0  0  0  0  0  0  0  0  0  0  0
   19.0954   19.5678   22.6795 C   0  0  0  0  0  0  0  0  0  0  0  0
   18.0003   19.6313   22.7414 H   0  0  0  0  0  0  0  0  0  0  0  0
   19.4538   20.5884   22.4857 H   0  0  0  0  0  0  0  0  0  0  0  0
   19.6431   19.0762   24.0363 C   0  0  0  0  0  0  0  0  0  0  0  0
   19.3281   18.0441   24.2378 H   0  0  0  0  0  0  0  0  0  0  0  0
   19.2712   19.7093   24.8522 H   0  0  0  0  0  0  0  0  0  0  0  0
   20.7397   19.1147   24.0604 H   0  0  0  0  0  0  0  0  0  0  0  0
  1  2  1  0  0  0  0
  1  3  2  0  0  0  0
  1  4  1  0  0  0  0
  4  5  1  0  0  0  0
  4  6  1  0  0  0  0
  4  7  1  0  0  0  0
  7  8  1  0  0  0  0
  7  9  1  0  0  0  0
  7 10  1  0  0  0  0
 10 11  1  0  0  0  0
 10 12  1  0  0  0  0
 10 13  1  0  0  0  0
 13 14  1  0  0  0  0
 13 15  1  0  0  0  0
 13 16  1  0  0  0  0
M  END
> <VConfSearch Rank>
598

> <Conf_Id>
39

> <Delta U+W>
1.129

> <U+W>
-55.775

> <U>
9.718

> <W>
-65.493

> <W(PB)>
-67.361

> <W(SA)>
1.869

> <Valence>
7.002

> <Coulomb>
2.402

> <VdW>
0.314

> <VdW6>
-5.861

> <VdW12>
6.175

> <Bond>
0.134

> <Angle>
2.734

> <Pdih>
4.133

> <Idih>
0.002

> <Tether>
0.000

$$$$
VeraChem MOL file


 16 15  0  0  0  0  0  0  0  0999 V2000     
   18.6301   18.1264   21.0603 C   0  0  0  0  0  0  0  0  0  0  0  0
   17.9749   17.3046   21.6703 O   0  5  0  0  0  0  0  0  0  0  0  0
   19.1982   17.8851   20.0133 O   0  0  0  0  0  0  0  0  0  0  0  0
   18.6655   19.5583   21.5913 C   0  0  0  0  0  0  0  0  0  0  0  0
   18.0423   19.6206   22.4917 H   0  0  0  0  0  0  0  0  0  0  0  0
   18.1807   20.1817   20.8310 H   0  0  0  0  0  0  0  0  0  0  0  0
   20.0842   20.1253   21.8791 C   0  0  0  0  0  0  0  0  0  0  0  0
   20.7619   19.8770   21.0505 H   0  0  0  0  0  0  0  0  0  0  0  0
   20.0144   21.2214   21.8949 H   0  0  0  0  0  0  0  0  0  0  0  0
   20.7015   19.6724   23.2243 C   0  0  0  0  0  0  0  0  0  0  0  0
   20.0201   19.9206   24.0497 H   0  0  0  0  0  0  0  0  0  0  0  0
   21.6194   20.2509   23.3975 H   0  0  0  0  0  0  0  0  0  0  0  0
   21.0531   18.1710   23.2752 C   0  0  0  0  0  0  0  0  0  0  0  0
   20.1499   17.5489   23.2723 H   0  0  0  0  0  0  0  0  0  0  0  0
   21.6110   17.9383   24.1914 H   0  0  0  0  0  0  0  0  0  0  0  0
   21.6740   17.8823   22.4170 H   0  0  0  0  0  0  0  0  0  0  0  0
  1  2  1  0  0  0  0
  1  3  2  0  0  0  0
  1  4  1  0  0  0  0
  4  5  1  0  0  0  0
  4  6  1  0  0  0  0
  4  7  1  0  0  0  0
  7  8  1  0  0  0  0
  7  9  1  0  0  0  0
  7 10  1  0  0  0  0
 10 11  1  0  0  0  0
 10 12  1  0  0  0  0
 10 13  1  0  0  0  0
 13 14  1  0  0  0  0
 13 15  1  0  0  0  0
 13 16  1  0  0  0  0
M  END
> <VConfSearch Rank>
599

> <Conf_Id>
47

> <Delta U+W>
2.301

> <U+W>
-54.603

> <U>
11.258

> <W>
-65.861

> <W(PB)>
-67.702

> <W(SA)>
1.841

> <Valence>
8.169

> <Coulomb>
2.735

> <VdW>
0.355

> <VdW6>
-6.245

> <VdW12>
6.600

> <Bond>
0.149

> <Angle>
3.168

> <Pdih>
4.840

> <Idih>
0.011

> <Tether>
0.000

$$$$
VeraChem MOL file


 16 15  0  0  0  0  0  0  0  0999 V2000     
   19.8334   17.5284   23.4773 C   0  0  0  0  0  0  0  0  0  0  0  0
   20.0873   16.5342   22.8259 O   0  5  0  0  0  0  0  0  0  0  0  0
   18.9050   17.5968   24.2584 O   0  0  0  0  0  0  0  0  0  0  0  0
   20.7813   18.7222   23.3776 C   0  0  0  0  0  0  0  0  0  0  0  0
   21.7589   18.3704   23.7275 H   0  0  0  0  0  0  0  0  0  0  0  0
   20.4559   19.4962   24.0833 H   0  0  0  0  0  0  0  0  0  0  0  0
   20.9422   19.3258   21.9540 C   0  0  0  0  0  0  0  0  0  0  0  0
   21.8779   19.9007   21.9333 H   0  0  0  0  0  0  0  0  0  0  0  0
   21.0657   18.5198   21.2173 H   0  0  0  0  0  0  0  0  0  0  0  0
   19.7972   20.2721   21.5192 C   0  0  0  0  0  0  0  0  0  0  0  0
   20.0884   20.7605   20.5790 H   0  0  0  0  0  0  0  0  0  0  0  0
   19.6757   21.0753   22.2591 H   0  0  0  0  0  0  0  0  0  0  0  0
   18.4468   19.5585   21.3014 C   0  0  0  0  0  0  0  0  0  0  0  0
   17.7144   20.2483   20.8627 H   0  0  0  0  0  0  0  0  0  0  0  0
   18.0302   19.1942   22.2484 H   0  0  0  0  0  0  0  0  0  0  0  0
   18.5578   18.7037   20.6215 H   0  0  0  0  0  0  0  0  0  0  0  0
  1  2  1  0  0  0  0
  1  3  2  0  0  0  0
  1  4  1  0  0  0  0
  4  5  1  0  0  0  0
  4  6  1  0  0  0  0
  4  7  1  0  0  0  0
  7  8  1  0  0  0  0
  7  9  1  0  0  0  0
  7 10  1  0  0  0  0
 10 11  1  0  0  0  0
 10 12  1  0  0  0  0
 10 13  1  0  0  0  0
 13 14  1  0  0  0  0
 13 15  1  0  0  0  0
 13 16  1  0  0  0  0
M  END
> <VConfSearch Rank>
600

> <Conf_Id>
45

> <Delta U+W>
2.303

> <U+W>
-54.601

> <U>
11.258

> <W>
-65.860

> <W(PB)>
-67.709

> <W(SA)>
1.849

> <Valence>
8.169

> <Coulomb>
2.735

> <VdW>
0.355

> <VdW6>
-6.245

> <VdW12>
6.600

> <Bond>
0.149

> <Angle>
3.168

> <Pdih>
4.840

> <Idih>
0.011

> <Tether>
0.000

$$$$
VeraChem MOL file


 16 15  0  0  0  0  0  0  0  0999 V2000     
   17.2921   19.4559   21.5038 C   0  0  0  0  0  0  0  0  0  0  0  0
   16.9717   19.0517   22.6046 O   0  5  0  0  0  0  0  0  0  0  0  0
   16.4862   19.8264   20.6740 O   0  0  0  0  0  0  0  0  0  0  0  0
   18.7706   19.5126   21.1154 C   0  0  0  0  0  0  0  0  0  0  0  0
   18.9977   20.5500   20.8426 H   0  0  0  0  0  0  0  0  0  0  0  0
   18.8942   18.9082   20.2089 H   0  0  0  0  0  0  0  0  0  0  0  0
   19.7625   19.0289   22.2065 C   0  0  0  0  0  0  0  0  0  0  0  0
   19.6302   19.6344   23.1138 H   0  0  0  0  0  0  0  0  0  0  0  0
   19.5266   17.9910   22.4795 H   0  0  0  0  0  0  0  0  0  0  0  0
   21.2276   19.1202   21.7306 C   0  0  0  0  0  0  0  0  0  0  0  0
   21.4654   20.1580   21.4589 H   0  0  0  0  0  0  0  0  0  0  0  0
   21.3617   18.5136   20.8242 H   0  0  0  0  0  0  0  0  0  0  0  0
   22.2079   18.6385   22.8184 C   0  0  0  0  0  0  0  0  0  0  0  0
   22.1172   19.2486   23.7268 H   0  0  0  0  0  0  0  0  0  0  0  0
   23.2444   18.7099   22.4641 H   0  0  0  0  0  0  0  0  0  0  0  0
   22.0128   17.5921   23.0874 H   0  0  0  0  0  0  0  0  0  0  0  0
  1  2  1  0  0  0  0
  1  3  2  0  0  0  0
  1  4  1  0  0  0  0
  4  5  1  0  0  0  0
  4  6  1  0  0  0  0
  4  7  1  0  0  0  0
  7  8  1  0  0  0  0
  7  9  1  0  0  0  0
  7 10  1  0  0  0  0
 10 11  1  0  0  0  0
 10 12  1  0  0  0  0
 10 13  1  0  0  0  0
 13 14  1  0  0  0  0
 13 15  1  0  0  0  0
 13 16  1  0  0  0  0
M  END
> <VConfSearch Rank>
601

> <Conf_Id>
0

> <Delta U+W>
0.000

> <U+W>
-56.904

> <U>
7.329

> <W>
-64.233

> <W(PB)>
-66.148

> <W(SA)>
1.915

> <Valence>
6.755

> <Coulomb>
-0.421

> <VdW>
0.995

> <VdW6>
-4.495

> <VdW12>
5.490

> <Bond>
0.106

> <Angle>
2.715

> <Pdih>
3.934

> <Idih>
0.000

> <Tether>
0.000

$$$$
VeraChem MOL file


 16 15  0  0  0  0  0  0  0  0999 V2000     
   17.8729   18.4080   20.4345 C   0  0  0  0  0  0  0  0  0  0  0  0
   17.4137   17.3128   20.6902 O   0  5  0  0  0  0  0  0  0  0  0  0
   17.2055   19.3386   20.0290 O   0  0  0  0  0  0  0  0  0  0  0  0
   19.3653   18.6322   20.6515 C   0  0  0  0  0  0  0  0  0  0  0  0
   19.7132   19.3575   19.9060 H   0  0  0  0  0  0  0  0  0  0  0  0
   19.8848   17.6874   20.4512 H   0  0  0  0  0  0  0  0  0  0  0  0
   19.6983   19.1324   22.0787 C   0  0  0  0  0  0  0  0  0  0  0  0
   19.1614   20.0722   22.2686 H   0  0  0  0  0  0  0  0  0  0  0  0
   19.3329   18.4020   22.8139 H   0  0  0  0  0  0  0  0  0  0  0  0
   21.2135   19.3510   22.2716 C   0  0  0  0  0  0  0  0  0  0  0  0
   21.5791   20.0819   21.5370 H   0  0  0  0  0  0  0  0  0  0  0  0
   21.7508   18.4113   22.0824 H   0  0  0  0  0  0  0  0  0  0  0  0
   21.5375   19.8487   23.6941 C   0  0  0  0  0  0  0  0  0  0  0  0
   21.2103   19.1213   24.4487 H   0  0  0  0  0  0  0  0  0  0  0  0
   21.0374   20.8043   23.8993 H   0  0  0  0  0  0  0  0  0  0  0  0
   22.6182   19.9990   23.8144 H   0  0  0  0  0  0  0  0  0  0  0  0
  1  2  1  0  0  0  0
  1  3  2  0  0  0  0
  1  4  1  0  0  0  0
  4  5  1  0  0  0  0
  4  6  1  0  0  0  0
  4  7  1  0  0  0  0
  7  8  1  0  0  0  0
  7  9  1  0  0  0  0
  7 10  1  0  0  0  0
 10 11  1  0  0  0  0
 10 12  1  0  0  0  0
 10 13  1  0  0  0  0
 13 14  1  0  0  0  0
 13 15  1  0  0  0  0
 13 16  1  0  0  0  0
M  END
> <VConfSearch Rank>
602

> <Conf_Id>
22

> <Delta U+W>
-1.185

> <U+W>
-58.089

> <U>
6.298

> <W>
-64.387

> <W(PB)>
-66.329

> <W(SA)>
1.942

> <Valence>
6.246

> <Coulomb>
-0.408

> <VdW>
0.460

> <VdW6>
-4.207

> <VdW12>
4.667

> <Bond>
0.072

> <Angle>
2.246

> <Pdih>
3.928

> <Idih>
0.001

> <Tether>
0.000

$$$$
VeraChem MOL file


 16 15  0  0  0  0  0  0  0  0999 V2000     
   20.0617   21.6950   21.5523 C   0  0  0  0  0  0  0  0  0  0  0  0
   20.7881   22.1831   20.7097 O   0  5  0  0  0  0  0  0  0  0  0  0
   19.6076   22.3190   22.4906 O   0  0  0  0  0  0  0  0  0  0  0  0
   19.7179   20.2141   21.4367 C   0  0  0  0  0  0  0  0  0  0  0  0
   19.6861   19.9540   20.3719 H   0  0  0  0  0  0  0  0  0  0  0  0
   18.7070   20.0733   21.8361 H   0  0  0  0  0  0  0  0  0  0  0  0
   20.7290   19.3025   22.1794 C   0  0  0  0  0  0  0  0  0  0  0  0
   21.7413   19.5298   21.8176 H   0  0  0  0  0  0  0  0  0  0  0  0
   20.7208   19.5432   23.2515 H   0  0  0  0  0  0  0  0  0  0  0  0
   20.4579   17.7933   21.9811 C   0  0  0  0  0  0  0  0  0  0  0  0
   21.2755   17.2238   22.4441 H   0  0  0  0  0  0  0  0  0  0  0  0
   20.4776   17.5501   20.9097 H   0  0  0  0  0  0  0  0  0  0  0  0
   19.1191   17.3297   22.5940 C   0  0  0  0  0  0  0  0  0  0  0  0
   18.2638   17.7895   22.0832 H   0  0  0  0  0  0  0  0  0  0  0  0
   19.0643   17.5884   23.6596 H   0  0  0  0  0  0  0  0  0  0  0  0
   19.0130   16.2408   22.5048 H   0  0  0  0  0  0  0  0  0  0  0  0
  1  2  1  0  0  0  0
  1  3  2  0  0  0  0
  1  4  1  0  0  0  0
  4  5  1  0  0  0  0
  4  6  1  0  0  0  0
  4  7  1  0  0  0  0
  7  8  1  0  0  0  0
  7  9  1  0  0  0  0
  7 10  1  0  0  0  0
 10 11  1  0  0  0  0
 10 12  1  0  0  0  0
 10 13  1  0  0  0  0
 13 14  1  0  0  0  0
 13 15  1  0  0  0  0
 13 16  1  0  0  0  0
M  END
> <VConfSearch Rank>
603

> <Conf_Id>
36

> <Delta U+W>
-0.427

> <U+W>
-57.331

> <U>
7.263

> <W>
-64.594

> <W(PB)>
-66.513

> <W(SA)>
1.920

> <Valence>
6.734

> <Coulomb>
-0.068

> <VdW>
0.598

> <VdW6>
-4.819

> <VdW12>
5.417

> <Bond>
0.107

> <Angle>
2.469

> <Pdih>
4.157

> <Idih>
0.001

> <Tether>
0.000

$$$$
VeraChem MOL file


 16 15  0  0  0  0  0  0  0  0999 V2000     
   21.0438   21.1193   20.7155 C   0  0  0  0  0  0  0  0  0  0  0  0
   20.8240   22.1748   21.2754 O   0  5  0  0  0  0  0  0  0  0  0  0
   21.3870   21.0344   19.5532 O   0  0  0  0  0  0  0  0  0  0  0  0
   20.8598   19.8300   21.5084 C   0  0  0  0  0  0  0  0  0  0  0  0
   21.1242   20.0383   22.5514 H   0  0  0  0  0  0  0  0  0  0  0  0
   21.5790   19.0929   21.1315 H   0  0  0  0  0  0  0  0  0  0  0  0
   19.4181   19.2667   21.4137 C   0  0  0  0  0  0  0  0  0  0  0  0
   18.7113   19.9959   21.8331 H   0  0  0  0  0  0  0  0  0  0  0  0
   19.1530   19.1512   20.3536 H   0  0  0  0  0  0  0  0  0  0  0  0
   19.2426   17.9030   22.1208 C   0  0  0  0  0  0  0  0  0  0  0  0
   19.9412   17.1705   21.6935 H   0  0  0  0  0  0  0  0  0  0  0  0
   18.2316   17.5255   21.9141 H   0  0  0  0  0  0  0  0  0  0  0  0
   19.4421   17.9800   23.6496 C   0  0  0  0  0  0  0  0  0  0  0  0
   20.4755   18.2447   23.9062 H   0  0  0  0  0  0  0  0  0  0  0  0
   19.2225   17.0102   24.1145 H   0  0  0  0  0  0  0  0  0  0  0  0
   18.7735   18.7278   24.0959 H   0  0  0  0  0  0  0  0  0  0  0  0
  1  2  1  0  0  0  0
  1  3  2  0  0  0  0
  1  4  1  0  0  0  0
  4  5  1  0  0  0  0
  4  6  1  0  0  0  0
  4  7  1  0  0  0  0
  7  8  1  0  0  0  0
  7  9  1  0  0  0  0
  7 10  1  0  0  0  0
 10 11  1  0  0  0  0
 10 12  1  0  0  0  0
 10 13  1  0  0  0  0
 13 14  1  0  0  0  0
 13 15  1  0  0  0  0
 13 16  1  0  0  0  0
M  END
> <VConfSearch Rank>
604

> <Conf_Id>
17

> <Delta U+W>
-0.432

> <U+W>
-57.336

> <U>
7.263

> <W>
-64.599

> <W(PB)>
-66.503

> <W(SA)>
1.904

> <Valence>
6.734

> <Coulomb>
-0.068

> <VdW>
0.598

> <VdW6>
-4.819

> <VdW12>
5.417

> <Bond>
0.107

> <Angle>
2.469

> <Pdih>
4.157

> <Idih>
0.001

> <Tether>
0.000

$$$$
VeraChem MOL file


 16 15  0  0  0  0  0  0  0  0999 V2000     
   21.4721   18.8050   20.1642 C   0  0  0  0  0  0  0  0  0  0  0  0
   22.0060   19.8198   19.7623 O   0  5  0  0  0  0  0  0  0  0  0  0
   22.0633   17.7568   20.3318 O   0  0  0  0  0  0  0  0  0  0  0  0
   19.9734   18.8449   20.4503 C   0  0  0  0  0  0  0  0  0  0  0  0
   19.5905   17.8171   20.4582 H   0  0  0  0  0  0  0  0  0  0  0  0
   19.4920   19.3559   19.6080 H   0  0  0  0  0  0  0  0  0  0  0  0
   19.6013   19.5645   21.7726 C   0  0  0  0  0  0  0  0  0  0  0  0
   20.0154   20.5824   21.7624 H   0  0  0  0  0  0  0  0  0  0  0  0
   18.5091   19.6681   21.8269 H   0  0  0  0  0  0  0  0  0  0  0  0
   20.1031   18.8083   23.0218 C   0  0  0  0  0  0  0  0  0  0  0  0
   21.1977   18.7165   22.9886 H   0  0  0  0  0  0  0  0  0  0  0  0
   19.6982   17.7868   23.0242 H   0  0  0  0  0  0  0  0  0  0  0  0
   19.6911   19.5265   24.3221 C   0  0  0  0  0  0  0  0  0  0  0  0
   20.1092   20.5411   24.3594 H   0  0  0  0  0  0  0  0  0  0  0  0
   20.0560   18.9770   25.1996 H   0  0  0  0  0  0  0  0  0  0  0  0
   18.5986   19.6026   24.3999 H   0  0  0  0  0  0  0  0  0  0  0  0
  1  2  1  0  0  0  0
  1  3  2  0  0  0  0
  1  4  1  0  0  0  0
  4  5  1  0  0  0  0
  4  6  1  0  0  0  0
  4  7  1  0  0  0  0
  7  8  1  0  0  0  0
  7  9  1  0  0  0  0
  7 10  1  0  0  0  0
 10 11  1  0  0  0  0
 10 12  1  0  0  0  0
 10 13  1  0  0  0  0
 13 14  1  0  0  0  0
 13 15  1  0  0  0  0
 13 16  1  0  0  0  0
M  END
> <VConfSearch Rank>
605

> <Conf_Id>
19

> <Delta U+W>
0.048

> <U+W>
-56.856

> <U>
8.276

> <W>
-65.132

> <W(PB)>
-67.031

> <W(SA)>
1.899

> <Valence>
6.513

> <Coulomb>
1.428

> <VdW>
0.335

> <VdW6>
-5.021

> <VdW12>
5.356

> <Bond>
0.092

> <Angle>
2.417

> <Pdih>
4.003

> <Idih>
0.001

> <Tether>
0.000

$$$$
VeraChem MOL file


 16 15  0  0  0  0  0  0  0  0999 V2000     
   20.6030   20.0637   24.1511 C   0  0  0  0  0  0  0  0  0  0  0  0
   20.7223   19.2337   25.0304 O   0  5  0  0  0  0  0  0  0  0  0  0
   20.0125   21.1156   24.2968 O   0  0  0  0  0  0  0  0  0  0  0  0
   21.2504   19.7779   22.7989 C   0  0  0  0  0  0  0  0  0  0  0  0
   22.2635   19.4057   22.9922 H   0  0  0  0  0  0  0  0  0  0  0  0
   21.3588   20.7243   22.2550 H   0  0  0  0  0  0  0  0  0  0  0  0
   20.4780   18.7489   21.9331 C   0  0  0  0  0  0  0  0  0  0  0  0
   21.0820   18.5019   21.0495 H   0  0  0  0  0  0  0  0  0  0  0  0
   20.3523   17.8166   22.5010 H   0  0  0  0  0  0  0  0  0  0  0  0
   19.0993   19.2731   21.4764 C   0  0  0  0  0  0  0  0  0  0  0  0
   19.2256   20.2117   20.9193 H   0  0  0  0  0  0  0  0  0  0  0  0
   18.4783   19.5045   22.3531 H   0  0  0  0  0  0  0  0  0  0  0  0
   18.3678   18.2452   20.5905 C   0  0  0  0  0  0  0  0  0  0  0  0
   18.9500   18.0198   19.6874 H   0  0  0  0  0  0  0  0  0  0  0  0
   17.3901   18.6327   20.2756 H   0  0  0  0  0  0  0  0  0  0  0  0
   18.2011   17.3063   21.1347 H   0  0  0  0  0  0  0  0  0  0  0  0
  1  2  1  0  0  0  0
  1  3  2  0  0  0  0
  1  4  1  0  0  0  0
  4  5  1  0  0  0  0
  4  6  1  0  0  0  0
  4  7  1  0  0  0  0
  7  8  1  0  0  0  0
  7  9  1  0  0  0  0
  7 10  1  0  0  0  0
 10 11  1  0  0  0  0
 10 12  1  0  0  0  0
 10 13  1  0  0  0  0
 13 14  1  0  0  0  0
 13 15  1  0  0  0  0
 13 16  1  0  0  0  0
M  END
> <VConfSearch Rank>
606

> <Conf_Id>
20

> <Delta U+W>
-0.010

> <U+W>
-56.914

> <U>
8.277

> <W>
-65.191

> <W(PB)>
-67.081

> <W(SA)>
1.890

> <Valence>
6.513

> <Coulomb>
1.429

> <VdW>
0.335

> <VdW6>
-5.021

> <VdW12>
5.356

> <Bond>
0.092

> <Angle>
2.417

> <Pdih>
4.002

> <Idih>
0.001

> <Tether>
0.000

$$$$
VeraChem MOL file


 16 15  0  0  0  0  0  0  0  0999 V2000     
   17.8574   18.7395   21.5274 C   0  0  0  0  0  0  0  0  0  0  0  0
   17.1361   17.9340   22.0822 O   0  5  0  0  0  0  0  0  0  0  0  0
   17.9961   18.7959   20.3216 O   0  0  0  0  0  0  0  0  0  0  0  0
   18.6007   19.7547   22.3914 C   0  0  0  0  0  0  0  0  0  0  0  0
   17.8642   20.2122   23.0624 H   0  0  0  0  0  0  0  0  0  0  0  0
   18.9743   20.5587   21.7469 H   0  0  0  0  0  0  0  0  0  0  0  0
   19.7552   19.1479   23.2348 C   0  0  0  0  0  0  0  0  0  0  0  0
   20.1781   19.9288   23.8811 H   0  0  0  0  0  0  0  0  0  0  0  0
   19.3380   18.3848   23.9065 H   0  0  0  0  0  0  0  0  0  0  0  0
   20.8897   18.5104   22.3978 C   0  0  0  0  0  0  0  0  0  0  0  0
   20.4849   17.7031   21.7717 H   0  0  0  0  0  0  0  0  0  0  0  0
   21.6101   18.0400   23.0810 H   0  0  0  0  0  0  0  0  0  0  0  0
   21.6368   19.5284   21.5100 C   0  0  0  0  0  0  0  0  0  0  0  0
   20.9800   19.9332   20.7295 H   0  0  0  0  0  0  0  0  0  0  0  0
   22.4887   19.0491   21.0106 H   0  0  0  0  0  0  0  0  0  0  0  0
   22.0213   20.3650   22.1077 H   0  0  0  0  0  0  0  0  0  0  0  0
  1  2  1  0  0  0  0
  1  3  2  0  0  0  0
  1  4  1  0  0  0  0
  4  5  1  0  0  0  0
  4  6  1  0  0  0  0
  4  7  1  0  0  0  0
  7  8  1  0  0  0  0
  7  9  1  0  0  0  0
  7 10  1  0  0  0  0
 10 11  1  0  0  0  0
 10 12  1  0  0  0  0
 10 13  1  0  0  0  0
 13 14  1  0  0  0  0
 13 15  1  0  0  0  0
 13 16  1  0  0  0  0
M  END
> <VConfSearch Rank>
607

> <Conf_Id>
37

> <Delta U+W>
1.063

> <U+W>
-55.841

> <U>
9.719

> <W>
-65.560

> <W(PB)>
-67.414

> <W(SA)>
1.854

> <Valence>
7.002

> <Coulomb>
2.402

> <VdW>
0.314

> <VdW6>
-5.861

> <VdW12>
6.175

> <Bond>
0.134

> <Angle>
2.733

> <Pdih>
4.133

> <Idih>
0.002

> <Tether>
0.000

$$$$
VeraChem MOL file


 16 15  0  0  0  0  0  0  0  0999 V2000     
   19.2181   19.8607   23.9752 C   0  0  0  0  0  0  0  0  0  0  0  0
   19.0761   19.1779   24.9703 O   0  5  0  0  0  0  0  0  0  0  0  0
   19.6427   20.9989   23.9984 O   0  0  0  0  0  0  0  0  0  0  0  0
   18.8078   19.2669   22.6303 C   0  0  0  0  0  0  0  0  0  0  0  0
   18.7369   20.0765   21.8950 H   0  0  0  0  0  0  0  0  0  0  0  0
   17.7946   18.8649   22.7475 H   0  0  0  0  0  0  0  0  0  0  0  0
   19.7492   18.1427   22.1177 C   0  0  0  0  0  0  0  0  0  0  0  0
   19.7548   17.3253   22.8520 H   0  0  0  0  0  0  0  0  0  0  0  0
   19.3360   17.7215   21.1913 H   0  0  0  0  0  0  0  0  0  0  0  0
   21.2064   18.5971   21.8646 C   0  0  0  0  0  0  0  0  0  0  0  0
   21.8061   17.7194   21.5872 H   0  0  0  0  0  0  0  0  0  0  0  0
   21.6432   18.9889   22.7937 H   0  0  0  0  0  0  0  0  0  0  0  0
   21.3284   19.6565   20.7487 C   0  0  0  0  0  0  0  0  0  0  0  0
   20.8670   19.3031   19.8175 H   0  0  0  0  0  0  0  0  0  0  0  0
   22.3839   19.8758   20.5418 H   0  0  0  0  0  0  0  0  0  0  0  0
   20.8451   20.5981   21.0392 H   0  0  0  0  0  0  0  0  0  0  0  0
  1  2  1  0  0  0  0
  1  3  2  0  0  0  0
  1  4  1  0  0  0  0
  4  5  1  0  0  0  0
  4  6  1  0  0  0  0
  4  7  1  0  0  0  0
  7  8  1  0  0  0  0
  7  9  1  0  0  0  0
  7 10  1  0  0  0  0
 10 11  1  0  0  0  0
 10 12  1  0  0  0  0
 10 13  1  0  0  0  0
 13 14  1  0  0  0  0
 13 15  1  0  0  0  0
 13 16  1  0  0  0  0
M  END
> <VConfSearch Rank>
608

> <Conf_Id>
39

> <Delta U+W>
1.129

> <U+W>
-55.775

> <U>
9.718

> <W>
-65.493

> <W(PB)>
-67.361

> <W(SA)>
1.869

> <Valence>
7.002

> <Coulomb>
2.402

> <VdW>
0.314

> <VdW6>
-5.861

> <VdW12>
6.175

> <Bond>
0.134

> <Angle>
2.734

> <Pdih>
4.133

> <Idih>
0.002

> <Tether>
0.000

$$$$
VeraChem MOL file


 16 15  0  0  0  0  0  0  0  0999 V2000     
   20.4204   17.3750   21.3741 C   0  0  0  0  0  0  0  0  0  0  0  0
   20.3720   17.4806   20.1644 O   0  5  0  0  0  0  0  0  0  0  0  0
   19.9249   16.4483   21.9847 O   0  0  0  0  0  0  0  0  0  0  0  0
   21.2223   18.4132   22.1570 C   0  0  0  0  0  0  0  0  0  0  0  0
   21.6648   19.1278   21.4524 H   0  0  0  0  0  0  0  0  0  0  0  0
   22.0562   17.8736   22.6209 H   0  0  0  0  0  0  0  0  0  0  0  0
   20.4318   19.1675   23.2629 C   0  0  0  0  0  0  0  0  0  0  0  0
   19.8257   18.4564   23.8412 H   0  0  0  0  0  0  0  0  0  0  0  0
   21.1581   19.5910   23.9697 H   0  0  0  0  0  0  0  0  0  0  0  0
   19.5441   20.3261   22.7477 C   0  0  0  0  0  0  0  0  0  0  0  0
   20.1533   21.0337   22.1685 H   0  0  0  0  0  0  0  0  0  0  0  0
   19.1639   20.8841   23.6145 H   0  0  0  0  0  0  0  0  0  0  0  0
   18.3418   19.8613   21.9000 C   0  0  0  0  0  0  0  0  0  0  0  0
   18.6678   19.4429   20.9400 H   0  0  0  0  0  0  0  0  0  0  0  0
   17.6760   20.7064   21.6824 H   0  0  0  0  0  0  0  0  0  0  0  0
   17.7582   19.0969   22.4294 H   0  0  0  0  0  0  0  0  0  0  0  0
  1  2  1  0  0  0  0
  1  3  2  0  0  0  0
  1  4  1  0  0  0  0
  4  5  1  0  0  0  0
  4  6  1  0  0  0  0
  4  7  1  0  0  0  0
  7  8  1  0  0  0  0
  7  9  1  0  0  0  0
  7 10  1  0  0  0  0
 10 11  1  0  0  0  0
 10 12  1  0  0  0  0
 10 13  1  0  0  0  0
 13 14  1  0  0  0  0
 13 15  1  0  0  0  0
 13 16  1  0  0  0  0
M  END
> <VConfSearch Rank>
609

> <Conf_Id>
47

> <Delta U+W>
2.301

> <U+W>
-54.603

> <U>
11.258

> <W>
-65.861

> <W(PB)>
-67.702

> <W(SA)>
1.841

> <Valence>
8.169

> <Coulomb>
2.735

> <VdW>
0.355

> <VdW6>
-6.245

> <VdW12>
6.600

> <Bond>
0.149

> <Angle>
3.168

> <Pdih>
4.840

> <Idih>
0.011

> <Tether>
0.000

$$$$
VeraChem MOL file


 16 15  0  0  0  0  0  0  0  0999 V2000     
   21.0088   20.7537   22.3462 C   0  0  0  0  0  0  0  0  0  0  0  0
   21.4494   20.9766   21.2356 O   0  5  0  0  0  0  0  0  0  0  0  0
   21.6914   20.7680   23.3515 O   0  0  0  0  0  0  0  0  0  0  0  0
   19.5049   20.5331   22.4988 C   0  0  0  0  0  0  0  0  0  0  0  0
   19.0213   21.4564   22.1592 H   0  0  0  0  0  0  0  0  0  0  0  0
   19.2660   20.4278   23.5641 H   0  0  0  0  0  0  0  0  0  0  0  0
   18.9243   19.3347   21.6965 C   0  0  0  0  0  0  0  0  0  0  0  0
   17.8427   19.4919   21.5876 H   0  0  0  0  0  0  0  0  0  0  0  0
   19.3342   19.3330   20.6769 H   0  0  0  0  0  0  0  0  0  0  0  0
   19.1359   17.9508   22.3566 C   0  0  0  0  0  0  0  0  0  0  0  0
   18.5547   17.2060   21.7956 H   0  0  0  0  0  0  0  0  0  0  0  0
   18.7266   17.9573   23.3762 H   0  0  0  0  0  0  0  0  0  0  0  0
   20.6095   17.4953   22.3918 C   0  0  0  0  0  0  0  0  0  0  0  0
   20.6821   16.4568   22.7398 H   0  0  0  0  0  0  0  0  0  0  0  0
   21.2027   18.1142   23.0759 H   0  0  0  0  0  0  0  0  0  0  0  0
   21.0635   17.5514   21.3938 H   0  0  0  0  0  0  0  0  0  0  0  0
  1  2  1  0  0  0  0
  1  3  2  0  0  0  0
  1  4  1  0  0  0  0
  4  5  1  0  0  0  0
  4  6  1  0  0  0  0
  4  7  1  0  0  0  0
  7  8  1  0  0  0  0
  7  9  1  0  0  0  0
  7 10  1  0  0  0  0
 10 11  1  0  0  0  0
 10 12  1  0  0  0  0
 10 13  1  0  0  0  0
 13 14  1  0  0  0  0
 13 15  1  0  0  0  0
 13 16  1  0  0  0  0
M  END
> <VConfSearch Rank>
610

> <Conf_Id>
45

> <Delta U+W>
2.303

> <U+W>
-54.601

> <U>
11.258

> <W>
-65.860

> <W(PB)>
-67.709

> <W(SA)>
1.849

> <Valence>
8.169

> <Coulomb>
2.735

> <VdW>
0.355

> <VdW6>
-6.245

> <VdW12>
6.600

> <Bond>
0.149

> <Angle>
3.168

> <Pdih>
4.840

> <Idih>
0.011

> <Tether>
0.000

$$$$
VeraChem MOL file


 16 15  0  0  0  0  0  0  0  0999 V2000     
   19.3439   20.7074   19.7675 C   0  0  0  0  0  0  0  0  0  0  0  0
   20.2907   20.3479   19.0950 O   0  5  0  0  0  0  0  0  0  0  0  0
   18.5236   21.5143   19.3784 O   0  0  0  0  0  0  0  0  0  0  0  0
   19.1489   20.1357   21.1728 C   0  0  0  0  0  0  0  0  0  0  0  0
   18.1564   19.6708   21.2022 H   0  0  0  0  0  0  0  0  0  0  0  0
   19.1276   20.9815   21.8702 H   0  0  0  0  0  0  0  0  0  0  0  0
   20.2212   19.1097   21.6267 C   0  0  0  0  0  0  0  0  0  0  0  0
   20.2417   18.2674   20.9214 H   0  0  0  0  0  0  0  0  0  0  0  0
   21.2139   19.5795   21.5900 H   0  0  0  0  0  0  0  0  0  0  0  0
   19.9471   18.5864   23.0523 C   0  0  0  0  0  0  0  0  0  0  0  0
   18.9553   18.1148   23.0899 H   0  0  0  0  0  0  0  0  0  0  0  0
   19.9282   19.4277   23.7590 H   0  0  0  0  0  0  0  0  0  0  0  0
   21.0153   17.5680   23.4973 C   0  0  0  0  0  0  0  0  0  0  0  0
   21.0347   16.7001   22.8252 H   0  0  0  0  0  0  0  0  0  0  0  0
   20.8057   17.2061   24.5123 H   0  0  0  0  0  0  0  0  0  0  0  0
   22.0147   18.0227   23.4991 H   0  0  0  0  0  0  0  0  0  0  0  0
  1  2  1  0  0  0  0
  1  3  2  0  0  0  0
  1  4  1  0  0  0  0
  4  5  1  0  0  0  0
  4  6  1  0  0  0  0
  4  7  1  0  0  0  0
  7  8  1  0  0  0  0
  7  9  1  0  0  0  0
  7 10  1  0  0  0  0
 10 11  1  0  0  0  0
 10 12  1  0  0  0  0
 10 13  1  0  0  0  0
 13 14  1  0  0  0  0
 13 15  1  0  0  0  0
 13 16  1  0  0  0  0
M  END
> <VConfSearch Rank>
611

> <Conf_Id>
0

> <Delta U+W>
0.000

> <U+W>
-56.904

> <U>
7.329

> <W>
-64.233

> <W(PB)>
-66.148

> <W(SA)>
1.915

> <Valence>
6.755

> <Coulomb>
-0.421

> <VdW>
0.995

> <VdW6>
-4.495

> <VdW12>
5.490

> <Bond>
0.106

> <Angle>
2.715

> <Pdih>
3.934

> <Idih>
0.000

> <Tether>
0.000

$$$$
VeraChem MOL file


 16 15  0  0  0  0  0  0  0  0999 V2000     
   22.6783   18.9396   21.2653 C   0  0  0  0  0  0  0  0  0  0  0  0
   22.9870   17.9142   20.6917 O   0  5  0  0  0  0  0  0  0  0  0  0
   23.2315   20.0054   21.0808 O   0  0  0  0  0  0  0  0  0  0  0  0
   21.5216   18.8903   22.2573 C   0  0  0  0  0  0  0  0  0  0  0  0
   21.7194   19.6236   23.0485 H   0  0  0  0  0  0  0  0  0  0  0  0
   21.5177   17.8995   22.7276 H   0  0  0  0  0  0  0  0  0  0  0  0
   20.1494   19.1735   21.5978 C   0  0  0  0  0  0  0  0  0  0  0  0
   20.1732   20.1632   21.1209 H   0  0  0  0  0  0  0  0  0  0  0  0
   19.9716   18.4391   20.8000 H   0  0  0  0  0  0  0  0  0  0  0  0
   18.9973   19.1174   22.6226 C   0  0  0  0  0  0  0  0  0  0  0  0
   19.1745   19.8522   23.4202 H   0  0  0  0  0  0  0  0  0  0  0  0
   18.9728   18.1276   23.0992 H   0  0  0  0  0  0  0  0  0  0  0  0
   17.6349   19.4002   21.9593 C   0  0  0  0  0  0  0  0  0  0  0  0
   17.4176   18.6605   21.1776 H   0  0  0  0  0  0  0  0  0  0  0  0
   17.6207   20.3978   21.5009 H   0  0  0  0  0  0  0  0  0  0  0  0
   16.8270   19.3566   22.7012 H   0  0  0  0  0  0  0  0  0  0  0  0
  1  2  1  0  0  0  0
  1  3  2  0  0  0  0
  1  4  1  0  0  0  0
  4  5  1  0  0  0  0
  4  6  1  0  0  0  0
  4  7  1  0  0  0  0
  7  8  1  0  0  0  0
  7  9  1  0  0  0  0
  7 10  1  0  0  0  0
 10 11  1  0  0  0  0
 10 12  1  0  0  0  0
 10 13  1  0  0  0  0
 13 14  1  0  0  0  0
 13 15  1  0  0  0  0
 13 16  1  0  0  0  0
M  END
> <VConfSearch Rank>
612

> <Conf_Id>
22

> <Delta U+W>
-1.185

> <U+W>
-58.089

> <U>
6.298

> <W>
-64.387

> <W(PB)>
-66.329

> <W(SA)>
1.942

> <Valence>
6.246

> <Coulomb>
-0.408

> <VdW>
0.460

> <VdW6>
-4.207

> <VdW12>
4.667

> <Bond>
0.072

> <Angle>
2.246

> <Pdih>
3.928

> <Idih>
0.001

> <Tether>
0.000

$$$$
VeraChem MOL file


 16 15  0  0  0  0  0  0  0  0999 V2000     
   22.4092   19.6890   22.6423 C   0  0  0  0  0  0  0  0  0  0  0  0
   22.7799   19.7283   23.7986 O   0  5  0  0  0  0  0  0  0  0  0  0
   22.9968   20.2351   21.7299 O   0  0  0  0  0  0  0  0  0  0  0  0
   21.1262   18.9301   22.3224 C   0  0  0  0  0  0  0  0  0  0  0  0
   21.0429   18.0912   23.0238 H   0  0  0  0  0  0  0  0  0  0  0  0
   21.2309   18.5047   21.3178 H   0  0  0  0  0  0  0  0  0  0  0  0
   19.8619   19.8243   22.4064 C   0  0  0  0  0  0  0  0  0  0  0  0
   19.8332   20.3033   23.3950 H   0  0  0  0  0  0  0  0  0  0  0  0
   19.9376   20.6362   21.6699 H   0  0  0  0  0  0  0  0  0  0  0  0
   18.5428   19.0467   22.1927 C   0  0  0  0  0  0  0  0  0  0  0  0
   17.6988   19.7259   22.3760 H   0  0  0  0  0  0  0  0  0  0  0  0
   18.4614   18.2421   22.9366 H   0  0  0  0  0  0  0  0  0  0  0  0
   18.4074   18.4565   20.7727 C   0  0  0  0  0  0  0  0  0  0  0  0
   19.1655   17.6859   20.5849 H   0  0  0  0  0  0  0  0  0  0  0  0
   18.5145   19.2390   20.0102 H   0  0  0  0  0  0  0  0  0  0  0  0
   17.4217   17.9912   20.6432 H   0  0  0  0  0  0  0  0  0  0  0  0
  1  2  1  0  0  0  0
  1  3  2  0  0  0  0
  1  4  1  0  0  0  0
  4  5  1  0  0  0  0
  4  6  1  0  0  0  0
  4  7  1  0  0  0  0
  7  8  1  0  0  0  0
  7  9  1  0  0  0  0
  7 10  1  0  0  0  0
 10 11  1  0  0  0  0
 10 12  1  0  0  0  0
 10 13  1  0  0  0  0
 13 14  1  0  0  0  0
 13 15  1  0  0  0  0
 13 16  1  0  0  0  0
M  END
> <VConfSearch Rank>
613

> <Conf_Id>
36

> <Delta U+W>
-0.427

> <U+W>
-57.331

> <U>
7.263

> <W>
-64.594

> <W(PB)>
-66.513

> <W(SA)>
1.920

> <Valence>
6.734

> <Coulomb>
-0.068

> <VdW>
0.598

> <VdW6>
-4.819

> <VdW12>
5.417

> <Bond>
0.107

> <Angle>
2.469

> <Pdih>
4.157

> <Idih>
0.001

> <Tether>
0.000

$$$$
VeraChem MOL file


 16 15  0  0  0  0  0  0  0  0999 V2000     
   20.6301   16.9776   20.7351 C   0  0  0  0  0  0  0  0  0  0  0  0
   21.5543   16.4158   21.2885 O   0  5  0  0  0  0  0  0  0  0  0  0
   20.3137   16.7717   19.5803 O   0  0  0  0  0  0  0  0  0  0  0  0
   19.8368   18.0118   21.5261 C   0  0  0  0  0  0  0  0  0  0  0  0
   19.8214   17.6914   22.5741 H   0  0  0  0  0  0  0  0  0  0  0  0
   18.8013   17.9952   21.1656 H   0  0  0  0  0  0  0  0  0  0  0  0
   20.4228   19.4423   21.4021 C   0  0  0  0  0  0  0  0  0  0  0  0
   21.4448   19.4560   21.8055 H   0  0  0  0  0  0  0  0  0  0  0  0
   20.5057   19.6989   20.3369 H   0  0  0  0  0  0  0  0  0  0  0  0
   19.5684   20.5205   22.1078 C   0  0  0  0  0  0  0  0  0  0  0  0
   18.5496   20.5149   21.6964 H   0  0  0  0  0  0  0  0  0  0  0  0
   19.9898   21.5095   21.8805 H   0  0  0  0  0  0  0  0  0  0  0  0
   19.5104   20.3444   23.6403 C   0  0  0  0  0  0  0  0  0  0  0  0
   18.9927   19.4178   23.9180 H   0  0  0  0  0  0  0  0  0  0  0  0
   18.9676   21.1793   24.1021 H   0  0  0  0  0  0  0  0  0  0  0  0
   20.5198   20.3181   24.0712 H   0  0  0  0  0  0  0  0  0  0  0  0
  1  2  1  0  0  0  0
  1  3  2  0  0  0  0
  1  4  1  0  0  0  0
  4  5  1  0  0  0  0
  4  6  1  0  0  0  0
  4  7  1  0  0  0  0
  7  8  1  0  0  0  0
  7  9  1  0  0  0  0
  7 10  1  0  0  0  0
 10 11  1  0  0  0  0
 10 12  1  0  0  0  0
 10 13  1  0  0  0  0
 13 14  1  0  0  0  0
 13 15  1  0  0  0  0
 13 16  1  0  0  0  0
M  END
> <VConfSearch Rank>
614

> <Conf_Id>
17

> <Delta U+W>
-0.432

> <U+W>
-57.336

> <U>
7.263

> <W>
-64.599

> <W(PB)>
-66.503

> <W(SA)>
1.904

> <Valence>
6.734

> <Coulomb>
-0.068

> <VdW>
0.598

> <VdW6>
-4.819

> <VdW12>
5.417

> <Bond>
0.107

> <Angle>
2.469

> <Pdih>
4.157

> <Idih>
0.001

> <Tether>
0.000

$$$$
VeraChem MOL file


 16 15  0  0  0  0  0  0  0  0999 V2000     
   19.9321   20.6013   23.9393 C   0  0  0  0  0  0  0  0  0  0  0  0
   20.1145   20.0600   25.0116 O   0  5  0  0  0  0  0  0  0  0  0  0
   20.4673   21.6422   23.6133 O   0  0  0  0  0  0  0  0  0  0  0  0
   18.9594   19.9495   22.9602 C   0  0  0  0  0  0  0  0  0  0  0  0
   18.6425   20.7019   22.2277 H   0  0  0  0  0  0  0  0  0  0  0  0
   18.0657   19.6630   23.5271 H   0  0  0  0  0  0  0  0  0  0  0  0
   19.5325   18.7045   22.2344 C   0  0  0  0  0  0  0  0  0  0  0  0
   19.8718   17.9723   22.9803 H   0  0  0  0  0  0  0  0  0  0  0  0
   18.7275   18.2234   21.6625 H   0  0  0  0  0  0  0  0  0  0  0  0
   20.6944   19.0559   21.2802 C   0  0  0  0  0  0  0  0  0  0  0  0
   21.5150   19.5197   21.8453 H   0  0  0  0  0  0  0  0  0  0  0  0
   20.3571   19.7974   20.5428 H   0  0  0  0  0  0  0  0  0  0  0  0
   21.2226   17.8069   20.5471 C   0  0  0  0  0  0  0  0  0  0  0  0
   21.5952   17.0609   21.2613 H   0  0  0  0  0  0  0  0  0  0  0  0
   22.0479   18.0737   19.8742 H   0  0  0  0  0  0  0  0  0  0  0  0
   20.4316   17.3406   19.9451 H   0  0  0  0  0  0  0  0  0  0  0  0
  1  2  1  0  0  0  0
  1  3  2  0  0  0  0
  1  4  1  0  0  0  0
  4  5  1  0  0  0  0
  4  6  1  0  0  0  0
  4  7  1  0  0  0  0
  7  8  1  0  0  0  0
  7  9  1  0  0  0  0
  7 10  1  0  0  0  0
 10 11  1  0  0  0  0
 10 12  1  0  0  0  0
 10 13  1  0  0  0  0
 13 14  1  0  0  0  0
 13 15  1  0  0  0  0
 13 16  1  0  0  0  0
M  END
> <VConfSearch Rank>
615

> <Conf_Id>
19

> <Delta U+W>
0.048

> <U+W>
-56.856

> <U>
8.276

> <W>
-65.132

> <W(PB)>
-67.031

> <W(SA)>
1.899

> <Valence>
6.513

> <Coulomb>
1.428

> <VdW>
0.335

> <VdW6>
-5.021

> <VdW12>
5.356

> <Bond>
0.092

> <Angle>
2.417

> <Pdih>
4.003

> <Idih>
0.001

> <Tether>
0.000

$$$$
VeraChem MOL file


 16 15  0  0  0  0  0  0  0  0999 V2000     
   18.6194   18.3464   23.9319 C   0  0  0  0  0  0  0  0  0  0  0  0
   19.1428   18.5630   25.0068 O   0  5  0  0  0  0  0  0  0  0  0  0
   18.1896   17.2590   23.6017 O   0  0  0  0  0  0  0  0  0  0  0  0
   18.4740   19.5098   22.9547 C   0  0  0  0  0  0  0  0  0  0  0  0
   18.0991   20.3699   23.5219 H   0  0  0  0  0  0  0  0  0  0  0  0
   17.7020   19.2547   22.2184 H   0  0  0  0  0  0  0  0  0  0  0  0
   19.7914   19.8994   22.2352 C   0  0  0  0  0  0  0  0  0  0  0  0
   19.6261   20.8233   21.6646 H   0  0  0  0  0  0  0  0  0  0  0  0
   20.5629   20.1243   22.9847 H   0  0  0  0  0  0  0  0  0  0  0  0
   20.2957   18.7953   21.2807 C   0  0  0  0  0  0  0  0  0  0  0  0
   19.5186   18.5628   20.5395 H   0  0  0  0  0  0  0  0  0  0  0  0
   20.4842   17.8711   21.8447 H   0  0  0  0  0  0  0  0  0  0  0  0
   21.5867   19.2214   20.5540 C   0  0  0  0  0  0  0  0  0  0  0  0
   21.4197   20.1250   19.9532 H   0  0  0  0  0  0  0  0  0  0  0  0
   21.9319   18.4259   19.8809 H   0  0  0  0  0  0  0  0  0  0  0  0
   22.3905   19.4304   21.2721 H   0  0  0  0  0  0  0  0  0  0  0  0
  1  2  1  0  0  0  0
  1  3  2  0  0  0  0
  1  4  1  0  0  0  0
  4  5  1  0  0  0  0
  4  6  1  0  0  0  0
  4  7  1  0  0  0  0
  7  8  1  0  0  0  0
  7  9  1  0  0  0  0
  7 10  1  0  0  0  0
 10 11  1  0  0  0  0
 10 12  1  0  0  0  0
 10 13  1  0  0  0  0
 13 14  1  0  0  0  0
 13 15  1  0  0  0  0
 13 16  1  0  0  0  0
M  END
> <VConfSearch Rank>
616

> <Conf_Id>
20

> <Delta U+W>
-0.010

> <U+W>
-56.914

> <U>
8.277

> <W>
-65.191

> <W(PB)>
-67.081

> <W(SA)>
1.890

> <Valence>
6.513

> <Coulomb>
1.429

> <VdW>
0.335

> <VdW6>
-5.021

> <VdW12>
5.356

> <Bond>
0.092

> <Angle>
2.417

> <Pdih>
4.002

> <Idih>
0.001

> <Tether>
0.000

$$$$
VeraChem MOL file


 16 15  0  0  0  0  0  0  0  0999 V2000     
   18.5018   18.5555   20.6244 C   0  0  0  0  0  0  0  0  0  0  0  0
   18.5999   17.5012   20.0280 O   0  5  0  0  0  0  0  0  0  0  0  0
   18.3033   19.6206   20.0745 O   0  0  0  0  0  0  0  0  0  0  0  0
   18.5994   18.5326   22.1474 C   0  0  0  0  0  0  0  0  0  0  0  0
   17.9111   17.7582   22.5061 H   0  0  0  0  0  0  0  0  0  0  0  0
   18.2248   19.4855   22.5385 H   0  0  0  0  0  0  0  0  0  0  0  0
   20.0257   18.2413   22.6890 C   0  0  0  0  0  0  0  0  0  0  0  0
   19.9864   18.1642   23.7840 H   0  0  0  0  0  0  0  0  0  0  0  0
   20.3481   17.2569   22.3223 H   0  0  0  0  0  0  0  0  0  0  0  0
   21.0866   19.2949   22.2908 C   0  0  0  0  0  0  0  0  0  0  0  0
   21.1605   19.3567   21.1962 H   0  0  0  0  0  0  0  0  0  0  0  0
   22.0693   18.9580   22.6484 H   0  0  0  0  0  0  0  0  0  0  0  0
   20.7996   20.6966   22.8699 C   0  0  0  0  0  0  0  0  0  0  0  0
   19.8842   21.1244   22.4416 H   0  0  0  0  0  0  0  0  0  0  0  0
   21.6251   21.3827   22.6404 H   0  0  0  0  0  0  0  0  0  0  0  0
   20.6858   20.6565   23.9610 H   0  0  0  0  0  0  0  0  0  0  0  0
  1  2  1  0  0  0  0
  1  3  2  0  0  0  0
  1  4  1  0  0  0  0
  4  5  1  0  0  0  0
  4  6  1  0  0  0  0
  4  7  1  0  0  0  0
  7  8  1  0  0  0  0
  7  9  1  0  0  0  0
  7 10  1  0  0  0  0
 10 11  1  0  0  0  0
 10 12  1  0  0  0  0
 10 13  1  0  0  0  0
 13 14  1  0  0  0  0
 13 15  1  0  0  0  0
 13 16  1  0  0  0  0
M  END
> <VConfSearch Rank>
617

> <Conf_Id>
37

> <Delta U+W>
1.063

> <U+W>
-55.841

> <U>
9.719

> <W>
-65.560

> <W(PB)>
-67.414

> <W(SA)>
1.854

> <Valence>
7.002

> <Coulomb>
2.402

> <VdW>
0.314

> <VdW6>
-5.861

> <VdW12>
6.175

> <Bond>
0.134

> <Angle>
2.733

> <Pdih>
4.133

> <Idih>
0.002

> <Tether>
0.000

$$$$
VeraChem MOL file


 16 15  0  0  0  0  0  0  0  0999 V2000     
   21.7238   18.6984   20.7913 C   0  0  0  0  0  0  0  0  0  0  0  0
   21.5456   18.1272   19.7336 O   0  5  0  0  0  0  0  0  0  0  0  0
   22.4003   19.7012   20.9059 O   0  0  0  0  0  0  0  0  0  0  0  0
   21.0914   18.1028   22.0464 C   0  0  0  0  0  0  0  0  0  0  0  0
   21.5594   18.5586   22.9265 H   0  0  0  0  0  0  0  0  0  0  0  0
   21.3556   17.0391   22.0706 H   0  0  0  0  0  0  0  0  0  0  0  0
   19.5463   18.2488   22.1106 C   0  0  0  0  0  0  0  0  0  0  0  0
   19.1072   17.7355   21.2439 H   0  0  0  0  0  0  0  0  0  0  0  0
   19.1719   17.7253   23.0006 H   0  0  0  0  0  0  0  0  0  0  0  0
   19.0443   19.7121   22.1320 C   0  0  0  0  0  0  0  0  0  0  0  0
   17.9462   19.7086   22.0937 H   0  0  0  0  0  0  0  0  0  0  0  0
   19.3834   20.2376   21.2284 H   0  0  0  0  0  0  0  0  0  0  0  0
   19.4963   20.4925   23.3846 C   0  0  0  0  0  0  0  0  0  0  0  0
   19.2001   19.9693   24.3031 H   0  0  0  0  0  0  0  0  0  0  0  0
   19.0390   21.4902   23.4007 H   0  0  0  0  0  0  0  0  0  0  0  0
   20.5854   20.6268   23.3983 H   0  0  0  0  0  0  0  0  0  0  0  0
  1  2  1  0  0  0  0
  1  3  2  0  0  0  0
  1  4  1  0  0  0  0
  4  5  1  0  0  0  0
  4  6  1  0  0  0  0
  4  7  1  0  0  0  0
  7  8  1  0  0  0  0
  7  9  1  0  0  0  0
  7 10  1  0  0  0  0
 10 11  1  0  0  0  0
 10 12  1  0  0  0  0
 10 13  1  0  0  0  0
 13 14  1  0  0  0  0
 13 15  1  0  0  0  0
 13 16  1  0  0  0  0
M  END
> <VConfSearch Rank>
618

> <Conf_Id>
39

> <Delta U+W>
1.129

> <U+W>
-55.775

> <U>
9.718

> <W>
-65.493

> <W(PB)>
-67.361

> <W(SA)>
1.869

> <Valence>
7.002

> <Coulomb>
2.402

> <VdW>
0.314

> <VdW6>
-5.861

> <VdW12>
6.175

> <Bond>
0.134

> <Angle>
2.734

> <Pdih>
4.133

> <Idih>
0.002

> <Tether>
0.000

$$$$
VeraChem MOL file


 16 15  0  0  0  0  0  0  0  0999 V2000     
   19.1636   17.2267   22.3399 C   0  0  0  0  0  0  0  0  0  0  0  0
   19.2470   16.7628   23.4600 O   0  5  0  0  0  0  0  0  0  0  0  0
   19.5163   16.6305   21.3413 O   0  0  0  0  0  0  0  0  0  0  0  0
   18.4984   18.5917   22.1727 C   0  0  0  0  0  0  0  0  0  0  0  0
   18.1707   18.9518   23.1555 H   0  0  0  0  0  0  0  0  0  0  0  0
   17.5903   18.4224   21.5824 H   0  0  0  0  0  0  0  0  0  0  0  0
   19.3657   19.6713   21.4661 C   0  0  0  0  0  0  0  0  0  0  0  0
   19.8581   19.2380   20.5845 H   0  0  0  0  0  0  0  0  0  0  0  0
   18.6923   20.4505   21.0842 H   0  0  0  0  0  0  0  0  0  0  0  0
   20.4130   20.3574   22.3762 C   0  0  0  0  0  0  0  0  0  0  0  0
   19.9170   20.7875   23.2572 H   0  0  0  0  0  0  0  0  0  0  0  0
   20.8511   21.2016   21.8261 H   0  0  0  0  0  0  0  0  0  0  0  0
   21.5546   19.4230   22.8277 C   0  0  0  0  0  0  0  0  0  0  0  0
   21.1910   18.6533   23.5193 H   0  0  0  0  0  0  0  0  0  0  0  0
   22.3339   19.9934   23.3493 H   0  0  0  0  0  0  0  0  0  0  0  0
   22.0184   18.9229   21.9674 H   0  0  0  0  0  0  0  0  0  0  0  0
  1  2  1  0  0  0  0
  1  3  2  0  0  0  0
  1  4  1  0  0  0  0
  4  5  1  0  0  0  0
  4  6  1  0  0  0  0
  4  7  1  0  0  0  0
  7  8  1  0  0  0  0
  7  9  1  0  0  0  0
  7 10  1  0  0  0  0
 10 11  1  0  0  0  0
 10 12  1  0  0  0  0
 10 13  1  0  0  0  0
 13 14  1  0  0  0  0
 13 15  1  0  0  0  0
 13 16  1  0  0  0  0
M  END
> <VConfSearch Rank>
619

> <Conf_Id>
47

> <Delta U+W>
2.301

> <U+W>
-54.603

> <U>
11.258

> <W>
-65.861

> <W(PB)>
-67.702

> <W(SA)>
1.841

> <Valence>
8.169

> <Coulomb>
2.735

> <VdW>
0.355

> <VdW6>
-6.245

> <VdW12>
6.600

> <Bond>
0.149

> <Angle>
3.168

> <Pdih>
4.840

> <Idih>
0.011

> <Tether>
0.000

$$$$
VeraChem MOL file


 16 15  0  0  0  0  0  0  0  0999 V2000     
   18.7932   20.1304   20.9336 C   0  0  0  0  0  0  0  0  0  0  0  0
   17.8731   20.6725   21.5140 O   0  5  0  0  0  0  0  0  0  0  0  0
   18.6551   19.4991   19.9044 O   0  0  0  0  0  0  0  0  0  0  0  0
   20.2082   20.3269   21.4747 C   0  0  0  0  0  0  0  0  0  0  0  0
   20.4103   21.4033   21.4270 H   0  0  0  0  0  0  0  0  0  0  0  0
   20.9205   19.8439   20.7947 H   0  0  0  0  0  0  0  0  0  0  0  0
   20.4369   19.8345   22.9315 C   0  0  0  0  0  0  0  0  0  0  0  0
   21.3301   20.3393   23.3236 H   0  0  0  0  0  0  0  0  0  0  0  0
   19.6026   20.1555   23.5706 H   0  0  0  0  0  0  0  0  0  0  0  0
   20.6572   18.3089   23.0718 C   0  0  0  0  0  0  0  0  0  0  0  0
   20.9651   18.0961   24.1048 H   0  0  0  0  0  0  0  0  0  0  0  0
   21.4907   17.9918   22.4300 H   0  0  0  0  0  0  0  0  0  0  0  0
   19.4055   17.4658   22.7513 C   0  0  0  0  0  0  0  0  0  0  0  0
   19.5786   16.4112   23.0014 H   0  0  0  0  0  0  0  0  0  0  0  0
   19.1532   17.5145   21.6850 H   0  0  0  0  0  0  0  0  0  0  0  0
   18.5380   17.8133   23.3276 H   0  0  0  0  0  0  0  0  0  0  0  0
  1  2  1  0  0  0  0
  1  3  2  0  0  0  0
  1  4  1  0  0  0  0
  4  5  1  0  0  0  0
  4  6  1  0  0  0  0
  4  7  1  0  0  0  0
  7  8  1  0  0  0  0
  7  9  1  0  0  0  0
  7 10  1  0  0  0  0
 10 11  1  0  0  0  0
 10 12  1  0  0  0  0
 10 13  1  0  0  0  0
 13 14  1  0  0  0  0
 13 15  1  0  0  0  0
 13 16  1  0  0  0  0
M  END
> <VConfSearch Rank>
620

> <Conf_Id>
45

> <Delta U+W>
2.303

> <U+W>
-54.601

> <U>
11.258

> <W>
-65.860

> <W(PB)>
-67.709

> <W(SA)>
1.849

> <Valence>
8.169

> <Coulomb>
2.735

> <VdW>
0.355

> <VdW6>
-6.245

> <VdW12>
6.600

> <Bond>
0.149

> <Angle>
3.168

> <Pdih>
4.840

> <Idih>
0.011

> <Tether>
0.000

$$$$
VeraChem MOL file


 16 15  0  0  0  0  0  0  0  0999 V2000     
   18.6730   19.7928   24.2542 C   0  0  0  0  0  0  0  0  0  0  0  0
   17.6921   20.2281   23.6831 O   0  5  0  0  0  0  0  0  0  0  0  0
   18.7819   19.7759   25.4638 O   0  0  0  0  0  0  0  0  0  0  0  0
   19.8412   19.2339   23.4400 C   0  0  0  0  0  0  0  0  0  0  0  0
   20.0007   18.1988   23.7647 H   0  0  0  0  0  0  0  0  0  0  0  0
   20.7369   19.8000   23.7217 H   0  0  0  0  0  0  0  0  0  0  0  0
   19.6574   19.2771   21.8997 C   0  0  0  0  0  0  0  0  0  0  0  0
   18.7557   18.7129   21.6240 H   0  0  0  0  0  0  0  0  0  0  0  0
   19.4926   20.3157   21.5811 H   0  0  0  0  0  0  0  0  0  0  0  0
   20.8801   18.6950   21.1597 C   0  0  0  0  0  0  0  0  0  0  0  0
   21.0450   17.6557   21.4762 H   0  0  0  0  0  0  0  0  0  0  0  0
   21.7824   19.2595   21.4332 H   0  0  0  0  0  0  0  0  0  0  0  0
   20.6917   18.7407   19.6305 C   0  0  0  0  0  0  0  0  0  0  0  0
   19.8129   18.1574   19.3255 H   0  0  0  0  0  0  0  0  0  0  0  0
   21.5694   18.3234   19.1199 H   0  0  0  0  0  0  0  0  0  0  0  0
   20.5558   19.7730   19.2822 H   0  0  0  0  0  0  0  0  0  0  0  0
  1  2  1  0  0  0  0
  1  3  2  0  0  0  0
  1  4  1  0  0  0  0
  4  5  1  0  0  0  0
  4  6  1  0  0  0  0
  4  7  1  0  0  0  0
  7  8  1  0  0  0  0
  7  9  1  0  0  0  0
  7 10  1  0  0  0  0
 10 11  1  0  0  0  0
 10 12  1  0  0  0  0
 10 13  1  0  0  0  0
 13 14  1  0  0  0  0
 13 15  1  0  0  0  0
 13 16  1  0  0  0  0
M  END
> <VConfSearch Rank>
621

> <Conf_Id>
0

> <Delta U+W>
0.000

> <U+W>
-56.904

> <U>
7.329

> <W>
-64.233

> <W(PB)>
-66.148

> <W(SA)>
1.915

> <Valence>
6.755

> <Coulomb>
-0.421

> <VdW>
0.995

> <VdW6>
-4.495

> <VdW12>
5.490

> <Bond>
0.106

> <Angle>
2.715

> <Pdih>
3.934

> <Idih>
0.000

> <Tether>
0.000

$$$$
VeraChem MOL file


 16 15  0  0  0  0  0  0  0  0999 V2000     
   19.5688   19.9440   19.3782 C   0  0  0  0  0  0  0  0  0  0  0  0
   20.3943   20.7156   18.9321 O   0  5  0  0  0  0  0  0  0  0  0  0
   18.9508   19.1522   18.6949 O   0  0  0  0  0  0  0  0  0  0  0  0
   19.3074   19.9575   20.8802 C   0  0  0  0  0  0  0  0  0  0  0  0
   18.2555   19.6949   21.0457 H   0  0  0  0  0  0  0  0  0  0  0  0
   19.4457   20.9838   21.2412 H   0  0  0  0  0  0  0  0  0  0  0  0
   20.2287   18.9882   21.6611 C   0  0  0  0  0  0  0  0  0  0  0  0
   20.0879   17.9672   21.2799 H   0  0  0  0  0  0  0  0  0  0  0  0
   21.2782   19.2562   21.4754 H   0  0  0  0  0  0  0  0  0  0  0  0
   19.9438   19.0214   23.1771 C   0  0  0  0  0  0  0  0  0  0  0  0
   18.8946   18.7529   23.3632 H   0  0  0  0  0  0  0  0  0  0  0  0
   20.0852   20.0421   23.5588 H   0  0  0  0  0  0  0  0  0  0  0  0
   20.8642   18.0545   23.9478 C   0  0  0  0  0  0  0  0  0  0  0  0
   21.9201   18.3193   23.8045 H   0  0  0  0  0  0  0  0  0  0  0  0
   20.7208   17.0205   23.6075 H   0  0  0  0  0  0  0  0  0  0  0  0
   20.6488   18.0903   25.0236 H   0  0  0  0  0  0  0  0  0  0  0  0
  1  2  1  0  0  0  0
  1  3  2  0  0  0  0
  1  4  1  0  0  0  0
  4  5  1  0  0  0  0
  4  6  1  0  0  0  0
  4  7  1  0  0  0  0
  7  8  1  0  0  0  0
  7  9  1  0  0  0  0
  7 10  1  0  0  0  0
 10 11  1  0  0  0  0
 10 12  1  0  0  0  0
 10 13  1  0  0  0  0
 13 14  1  0  0  0  0
 13 15  1  0  0  0  0
 13 16  1  0  0  0  0
M  END
> <VConfSearch Rank>
622

> <Conf_Id>
22

> <Delta U+W>
-1.185

> <U+W>
-58.089

> <U>
6.298

> <W>
-64.387

> <W(PB)>
-66.329

> <W(SA)>
1.942

> <Valence>
6.246

> <Coulomb>
-0.408

> <VdW>
0.460

> <VdW6>
-4.207

> <VdW12>
4.667

> <Bond>
0.072

> <Angle>
2.246

> <Pdih>
3.928

> <Idih>
0.001

> <Tether>
0.000

$$$$
VeraChem MOL file


 16 15  0  0  0  0  0  0  0  0999 V2000     
   21.2689   16.9387   21.6320 C   0  0  0  0  0  0  0  0  0  0  0  0
   22.3929   16.7711   22.0615 O   0  5  0  0  0  0  0  0  0  0  0  0
   20.7948   16.2906   20.7204 O   0  0  0  0  0  0  0  0  0  0  0  0
   20.4147   18.0356   22.2580 C   0  0  0  0  0  0  0  0  0  0  0  0
   20.6868   18.1163   23.3172 H   0  0  0  0  0  0  0  0  0  0  0  0
   19.3689   17.7105   22.2149 H   0  0  0  0  0  0  0  0  0  0  0  0
   20.5884   19.4073   21.5557 C   0  0  0  0  0  0  0  0  0  0  0  0
   21.6570   19.6628   21.5393 H   0  0  0  0  0  0  0  0  0  0  0  0
   20.2726   19.3245   20.5065 H   0  0  0  0  0  0  0  0  0  0  0  0
   19.8140   20.5541   22.2452 C   0  0  0  0  0  0  0  0  0  0  0  0
   20.0765   21.5020   21.7554 H   0  0  0  0  0  0  0  0  0  0  0  0
   20.1382   20.6447   23.2912 H   0  0  0  0  0  0  0  0  0  0  0  0
   18.2820   20.3731   22.1904 C   0  0  0  0  0  0  0  0  0  0  0  0
   17.9610   19.4959   22.7659 H   0  0  0  0  0  0  0  0  0  0  0  0
   17.9375   20.2514   21.1551 H   0  0  0  0  0  0  0  0  0  0  0  0
   17.7766   21.2510   22.6135 H   0  0  0  0  0  0  0  0  0  0  0  0
  1  2  1  0  0  0  0
  1  3  2  0  0  0  0
  1  4  1  0  0  0  0
  4  5  1  0  0  0  0
  4  6  1  0  0  0  0
  4  7  1  0  0  0  0
  7  8  1  0  0  0  0
  7  9  1  0  0  0  0
  7 10  1  0  0  0  0
 10 11  1  0  0  0  0
 10 12  1  0  0  0  0
 10 13  1  0  0  0  0
 13 14  1  0  0  0  0
 13 15  1  0  0  0  0
 13 16  1  0  0  0  0
M  END
> <VConfSearch Rank>
623

> <Conf_Id>
36

> <Delta U+W>
-0.427

> <U+W>
-57.331

> <U>
7.263

> <W>
-64.594

> <W(PB)>
-66.513

> <W(SA)>
1.920

> <Valence>
6.734

> <Coulomb>
-0.068

> <VdW>
0.598

> <VdW6>
-4.819

> <VdW12>
5.417

> <Bond>
0.107

> <Angle>
2.469

> <Pdih>
4.157

> <Idih>
0.001

> <Tether>
0.000

$$$$
VeraChem MOL file


 16 15  0  0  0  0  0  0  0  0999 V2000     
   22.3352   18.1977   22.4222 C   0  0  0  0  0  0  0  0  0  0  0  0
   22.8099   17.7216   21.4103 O   0  5  0  0  0  0  0  0  0  0  0  0
   22.7390   17.9406   23.5388 O   0  0  0  0  0  0  0  0  0  0  0  0
   21.1559   19.1542   22.2850 C   0  0  0  0  0  0  0  0  0  0  0  0
   21.2807   19.7066   21.3467 H   0  0  0  0  0  0  0  0  0  0  0  0
   21.2122   19.8836   23.1019 H   0  0  0  0  0  0  0  0  0  0  0  0
   19.7862   18.4273   22.3113 C   0  0  0  0  0  0  0  0  0  0  0  0
   19.7246   17.7306   21.4639 H   0  0  0  0  0  0  0  0  0  0  0  0
   19.7288   17.8150   23.2219 H   0  0  0  0  0  0  0  0  0  0  0  0
   18.5775   19.3911   22.2839 C   0  0  0  0  0  0  0  0  0  0  0  0
   18.6327   20.0803   23.1379 H   0  0  0  0  0  0  0  0  0  0  0  0
   17.6566   18.8064   22.4155 H   0  0  0  0  0  0  0  0  0  0  0  0
   18.4718   20.1975   20.9719 C   0  0  0  0  0  0  0  0  0  0  0  0
   19.3199   20.8835   20.8535 H   0  0  0  0  0  0  0  0  0  0  0  0
   17.5541   20.7998   20.9648 H   0  0  0  0  0  0  0  0  0  0  0  0
   18.4442   19.5295   20.1012 H   0  0  0  0  0  0  0  0  0  0  0  0
  1  2  1  0  0  0  0
  1  3  2  0  0  0  0
  1  4  1  0  0  0  0
  4  5  1  0  0  0  0
  4  6  1  0  0  0  0
  4  7  1  0  0  0  0
  7  8  1  0  0  0  0
  7  9  1  0  0  0  0
  7 10  1  0  0  0  0
 10 11  1  0  0  0  0
 10 12  1  0  0  0  0
 10 13  1  0  0  0  0
 13 14  1  0  0  0  0
 13 15  1  0  0  0  0
 13 16  1  0  0  0  0
M  END
> <VConfSearch Rank>
624

> <Conf_Id>
17

> <Delta U+W>
-0.432

> <U+W>
-57.336

> <U>
7.263

> <W>
-64.599

> <W(PB)>
-66.503

> <W(SA)>
1.904

> <Valence>
6.734

> <Coulomb>
-0.068

> <VdW>
0.598

> <VdW6>
-4.819

> <VdW12>
5.417

> <Bond>
0.107

> <Angle>
2.469

> <Pdih>
4.157

> <Idih>
0.001

> <Tether>
0.000

$$$$
VeraChem MOL file


 16 15  0  0  0  0  0  0  0  0999 V2000     
   22.1996   18.2868   22.8828 C   0  0  0  0  0  0  0  0  0  0  0  0
   23.0317   18.1384   22.0099 O   0  5  0  0  0  0  0  0  0  0  0  0
   22.4235   18.8532   23.9341 O   0  0  0  0  0  0  0  0  0  0  0  0
   20.8056   17.7087   22.6541 C   0  0  0  0  0  0  0  0  0  0  0  0
   20.3029   17.6117   23.6241 H   0  0  0  0  0  0  0  0  0  0  0  0
   20.9320   16.6935   22.2597 H   0  0  0  0  0  0  0  0  0  0  0  0
   19.9301   18.5371   21.6783 C   0  0  0  0  0  0  0  0  0  0  0  0
   20.4584   18.6502   20.7214 H   0  0  0  0  0  0  0  0  0  0  0  0
   19.0077   17.9796   21.4663 H   0  0  0  0  0  0  0  0  0  0  0  0
   19.5657   19.9277   22.2421 C   0  0  0  0  0  0  0  0  0  0  0  0
   20.4813   20.5028   22.4390 H   0  0  0  0  0  0  0  0  0  0  0  0
   19.0486   19.8135   23.2048 H   0  0  0  0  0  0  0  0  0  0  0  0
   18.6681   20.7162   21.2680 C   0  0  0  0  0  0  0  0  0  0  0  0
   19.1743   20.8715   20.3062 H   0  0  0  0  0  0  0  0  0  0  0  0
   18.4194   21.7016   21.6830 H   0  0  0  0  0  0  0  0  0  0  0  0
   17.7283   20.1810   21.0787 H   0  0  0  0  0  0  0  0  0  0  0  0
  1  2  1  0  0  0  0
  1  3  2  0  0  0  0
  1  4  1  0  0  0  0
  4  5  1  0  0  0  0
  4  6  1  0  0  0  0
  4  7  1  0  0  0  0
  7  8  1  0  0  0  0
  7  9  1  0  0  0  0
  7 10  1  0  0  0  0
 10 11  1  0  0  0  0
 10 12  1  0  0  0  0
 10 13  1  0  0  0  0
 13 14  1  0  0  0  0
 13 15  1  0  0  0  0
 13 16  1  0  0  0  0
M  END
> <VConfSearch Rank>
625

> <Conf_Id>
19

> <Delta U+W>
0.048

> <U+W>
-56.856

> <U>
8.276

> <W>
-65.132

> <W(PB)>
-67.031

> <W(SA)>
1.899

> <Valence>
6.513

> <Coulomb>
1.428

> <VdW>
0.335

> <VdW6>
-5.021

> <VdW12>
5.356

> <Bond>
0.092

> <Angle>
2.417

> <Pdih>
4.003

> <Idih>
0.001

> <Tether>
0.000

$$$$
VeraChem MOL file


 16 15  0  0  0  0  0  0  0  0999 V2000     
   20.2864   20.0620   19.9415 C   0  0  0  0  0  0  0  0  0  0  0  0
   21.4422   19.9476   19.5846 O   0  5  0  0  0  0  0  0  0  0  0  0
   19.6642   21.1037   19.8775 O   0  0  0  0  0  0  0  0  0  0  0  0
   19.5724   18.8238   20.4769 C   0  0  0  0  0  0  0  0  0  0  0  0
   19.7993   17.9943   19.7966 H   0  0  0  0  0  0  0  0  0  0  0  0
   18.4900   18.9920   20.4219 H   0  0  0  0  0  0  0  0  0  0  0  0
   19.9804   18.4340   21.9214 C   0  0  0  0  0  0  0  0  0  0  0  0
   19.5286   17.4640   22.1699 H   0  0  0  0  0  0  0  0  0  0  0  0
   21.0697   18.2967   21.9677 H   0  0  0  0  0  0  0  0  0  0  0  0
   19.5406   19.4825   22.9661 C   0  0  0  0  0  0  0  0  0  0  0  0
   18.4529   19.6277   22.9102 H   0  0  0  0  0  0  0  0  0  0  0  0
   20.0032   20.4531   22.7392 H   0  0  0  0  0  0  0  0  0  0  0  0
   19.9282   19.0548   24.3955 C   0  0  0  0  0  0  0  0  0  0  0  0
   19.4517   18.1027   24.6638 H   0  0  0  0  0  0  0  0  0  0  0  0
   19.6095   19.8107   25.1250 H   0  0  0  0  0  0  0  0  0  0  0  0
   21.0154   18.9323   24.4872 H   0  0  0  0  0  0  0  0  0  0  0  0
  1  2  1  0  0  0  0
  1  3  2  0  0  0  0
  1  4  1  0  0  0  0
  4  5  1  0  0  0  0
  4  6  1  0  0  0  0
  4  7  1  0  0  0  0
  7  8  1  0  0  0  0
  7  9  1  0  0  0  0
  7 10  1  0  0  0  0
 10 11  1  0  0  0  0
 10 12  1  0  0  0  0
 10 13  1  0  0  0  0
 13 14  1  0  0  0  0
 13 15  1  0  0  0  0
 13 16  1  0  0  0  0
M  END
> <VConfSearch Rank>
626

> <Conf_Id>
20

> <Delta U+W>
-0.010

> <U+W>
-56.914

> <U>
8.277

> <W>
-65.191

> <W(PB)>
-67.081

> <W(SA)>
1.890

> <Valence>
6.513

> <Coulomb>
1.429

> <VdW>
0.335

> <VdW6>
-5.021

> <VdW12>
5.356

> <Bond>
0.092

> <Angle>
2.417

> <Pdih>
4.002

> <Idih>
0.001

> <Tether>
0.000

$$$$
VeraChem MOL file


 16 15  0  0  0  0  0  0  0  0999 V2000     
   18.5829   17.4982   22.6330 C   0  0  0  0  0  0  0  0  0  0  0  0
   18.9193   16.5800   23.3544 O   0  5  0  0  0  0  0  0  0  0  0  0
   18.0298   17.3416   21.5625 O   0  0  0  0  0  0  0  0  0  0  0  0
   18.8393   18.9235   23.1152 C   0  0  0  0  0  0  0  0  0  0  0  0
   18.4447   18.9979   24.1354 H   0  0  0  0  0  0  0  0  0  0  0  0
   18.2478   19.6139   22.5030 H   0  0  0  0  0  0  0  0  0  0  0  0
   20.3368   19.3357   23.1136 C   0  0  0  0  0  0  0  0  0  0  0  0
   20.4345   20.3397   23.5482 H   0  0  0  0  0  0  0  0  0  0  0  0
   20.8901   18.6575   23.7778 H   0  0  0  0  0  0  0  0  0  0  0  0
   21.0014   19.3191   21.7164 C   0  0  0  0  0  0  0  0  0  0  0  0
   20.9411   18.3102   21.2850 H   0  0  0  0  0  0  0  0  0  0  0  0
   22.0709   19.5424   21.8322 H   0  0  0  0  0  0  0  0  0  0  0  0
   20.3831   20.3386   20.7362 C   0  0  0  0  0  0  0  0  0  0  0  0
   19.3441   20.0797   20.4955 H   0  0  0  0  0  0  0  0  0  0  0  0
   20.9471   20.3560   19.7947 H   0  0  0  0  0  0  0  0  0  0  0  0
   20.3988   21.3515   21.1592 H   0  0  0  0  0  0  0  0  0  0  0  0
  1  2  1  0  0  0  0
  1  3  2  0  0  0  0
  1  4  1  0  0  0  0
  4  5  1  0  0  0  0
  4  6  1  0  0  0  0
  4  7  1  0  0  0  0
  7  8  1  0  0  0  0
  7  9  1  0  0  0  0
  7 10  1  0  0  0  0
 10 11  1  0  0  0  0
 10 12  1  0  0  0  0
 10 13  1  0  0  0  0
 13 14  1  0  0  0  0
 13 15  1  0  0  0  0
 13 16  1  0  0  0  0
M  END
> <VConfSearch Rank>
627

> <Conf_Id>
37

> <Delta U+W>
1.063

> <U+W>
-55.841

> <U>
9.719

> <W>
-65.560

> <W(PB)>
-67.414

> <W(SA)>
1.854

> <Valence>
7.002

> <Coulomb>
2.402

> <VdW>
0.314

> <VdW6>
-5.861

> <VdW12>
6.175

> <Bond>
0.134

> <Angle>
2.733

> <Pdih>
4.133

> <Idih>
0.002

> <Tether>
0.000

$$$$
VeraChem MOL file


 16 15  0  0  0  0  0  0  0  0999 V2000     
   20.5984   17.0704   21.8005 C   0  0  0  0  0  0  0  0  0  0  0  0
   20.2062   16.4679   20.8208 O   0  5  0  0  0  0  0  0  0  0  0  0
   21.7441   17.0230   22.2023 O   0  0  0  0  0  0  0  0  0  0  0  0
   19.5881   17.9023   22.5860 C   0  0  0  0  0  0  0  0  0  0  0  0
   20.0187   18.1479   23.5635 H   0  0  0  0  0  0  0  0  0  0  0  0
   18.7205   17.2613   22.7815 H   0  0  0  0  0  0  0  0  0  0  0  0
   19.1195   19.1902   21.8550 C   0  0  0  0  0  0  0  0  0  0  0  0
   18.6453   18.9044   20.9059 H   0  0  0  0  0  0  0  0  0  0  0  0
   18.3396   19.6804   22.4533 H   0  0  0  0  0  0  0  0  0  0  0  0
   20.2502   20.2052   21.5631 C   0  0  0  0  0  0  0  0  0  0  0  0
   19.8353   21.0356   20.9753 H   0  0  0  0  0  0  0  0  0  0  0  0
   21.0209   19.7369   20.9351 H   0  0  0  0  0  0  0  0  0  0  0  0
   20.9007   20.7760   22.8411 C   0  0  0  0  0  0  0  0  0  0  0  0
   20.1458   21.2191   23.5035 H   0  0  0  0  0  0  0  0  0  0  0  0
   21.6276   21.5577   22.5852 H   0  0  0  0  0  0  0  0  0  0  0  0
   21.4353   19.9959   23.3981 H   0  0  0  0  0  0  0  0  0  0  0  0
  1  2  1  0  0  0  0
  1  3  2  0  0  0  0
  1  4  1  0  0  0  0
  4  5  1  0  0  0  0
  4  6  1  0  0  0  0
  4  7  1  0  0  0  0
  7  8  1  0  0  0  0
  7  9  1  0  0  0  0
  7 10  1  0  0  0  0
 10 11  1  0  0  0  0
 10 12  1  0  0  0  0
 10 13  1  0  0  0  0
 13 14  1  0  0  0  0
 13 15  1  0  0  0  0
 13 16  1  0  0  0  0
M  END
> <VConfSearch Rank>
628

> <Conf_Id>
39

> <Delta U+W>
1.129

> <U+W>
-55.775

> <U>
9.718

> <W>
-65.493

> <W(PB)>
-67.361

> <W(SA)>
1.869

> <Valence>
7.002

> <Coulomb>
2.402

> <VdW>
0.314

> <VdW6>
-5.861

> <VdW12>
6.175

> <Bond>
0.134

> <Angle>
2.734

> <Pdih>
4.133

> <Idih>
0.002

> <Tether>
0.000

$$$$
VeraChem MOL file


 16 15  0  0  0  0  0  0  0  0999 V2000     
   18.2900   18.5063   21.2380 C   0  0  0  0  0  0  0  0  0  0  0  0
   18.1327   17.3030   21.3022 O   0  5  0  0  0  0  0  0  0  0  0  0
   18.2534   19.1307   20.1959 O   0  0  0  0  0  0  0  0  0  0  0  0
   18.4521   19.2829   22.5434 C   0  0  0  0  0  0  0  0  0  0  0  0
   18.3837   18.5836   23.3856 H   0  0  0  0  0  0  0  0  0  0  0  0
   17.5835   19.9477   22.6171 H   0  0  0  0  0  0  0  0  0  0  0  0
   19.7490   20.1330   22.6542 C   0  0  0  0  0  0  0  0  0  0  0  0
   19.9194   20.6801   21.7166 H   0  0  0  0  0  0  0  0  0  0  0  0
   19.5881   20.8979   23.4259 H   0  0  0  0  0  0  0  0  0  0  0  0
   21.0163   19.3326   23.0402 C   0  0  0  0  0  0  0  0  0  0  0  0
   20.8412   18.7856   23.9769 H   0  0  0  0  0  0  0  0  0  0  0  0
   21.8275   20.0446   23.2459 H   0  0  0  0  0  0  0  0  0  0  0  0
   21.4918   18.3523   21.9479 C   0  0  0  0  0  0  0  0  0  0  0  0
   20.7858   17.5226   21.8210 H   0  0  0  0  0  0  0  0  0  0  0  0
   22.4640   17.9198   22.2170 H   0  0  0  0  0  0  0  0  0  0  0  0
   21.6027   18.8621   20.9819 H   0  0  0  0  0  0  0  0  0  0  0  0
  1  2  1  0  0  0  0
  1  3  2  0  0  0  0
  1  4  1  0  0  0  0
  4  5  1  0  0  0  0
  4  6  1  0  0  0  0
  4  7  1  0  0  0  0
  7  8  1  0  0  0  0
  7  9  1  0  0  0  0
  7 10  1  0  0  0  0
 10 11  1  0  0  0  0
 10 12  1  0  0  0  0
 10 13  1  0  0  0  0
 13 14  1  0  0  0  0
 13 15  1  0  0  0  0
 13 16  1  0  0  0  0
M  END
> <VConfSearch Rank>
629

> <Conf_Id>
47

> <Delta U+W>
2.301

> <U+W>
-54.603

> <U>
11.258

> <W>
-65.861

> <W(PB)>
-67.702

> <W(SA)>
1.841

> <Valence>
8.169

> <Coulomb>
2.735

> <VdW>
0.355

> <VdW6>
-6.245

> <VdW12>
6.600

> <Bond>
0.149

> <Angle>
3.168

> <Pdih>
4.840

> <Idih>
0.011

> <Tether>
0.000

$$$$
VeraChem MOL file


 16 15  0  0  0  0  0  0  0  0999 V2000     
   19.8629   19.9186   20.4399 C   0  0  0  0  0  0  0  0  0  0  0  0
   20.8029   20.6833   20.3461 O   0  5  0  0  0  0  0  0  0  0  0  0
   18.7334   20.2018   20.0922 O   0  0  0  0  0  0  0  0  0  0  0  0
   20.1300   18.4987   20.9359 C   0  0  0  0  0  0  0  0  0  0  0  0
   20.8209   18.0449   20.2158 H   0  0  0  0  0  0  0  0  0  0  0  0
   19.1990   17.9213   20.8835 H   0  0  0  0  0  0  0  0  0  0  0  0
   20.7465   18.3971   22.3596 C   0  0  0  0  0  0  0  0  0  0  0  0
   21.2181   17.4097   22.4550 H   0  0  0  0  0  0  0  0  0  0  0  0
   21.5563   19.1315   22.4702 H   0  0  0  0  0  0  0  0  0  0  0  0
   19.7301   18.5484   23.5170 C   0  0  0  0  0  0  0  0  0  0  0  0
   20.2382   18.3023   24.4597 H   0  0  0  0  0  0  0  0  0  0  0  0
   18.9213   17.8138   23.4017 H   0  0  0  0  0  0  0  0  0  0  0  0
   19.1311   19.9649   23.6401 C   0  0  0  0  0  0  0  0  0  0  0  0
   18.5303   20.0495   24.5548 H   0  0  0  0  0  0  0  0  0  0  0  0
   18.4749   20.1961   22.7922 H   0  0  0  0  0  0  0  0  0  0  0  0
   19.9221   20.7251   23.6820 H   0  0  0  0  0  0  0  0  0  0  0  0
  1  2  1  0  0  0  0
  1  3  2  0  0  0  0
  1  4  1  0  0  0  0
  4  5  1  0  0  0  0
  4  6  1  0  0  0  0
  4  7  1  0  0  0  0
  7  8  1  0  0  0  0
  7  9  1  0  0  0  0
  7 10  1  0  0  0  0
 10 11  1  0  0  0  0
 10 12  1  0  0  0  0
 10 13  1  0  0  0  0
 13 14  1  0  0  0  0
 13 15  1  0  0  0  0
 13 16  1  0  0  0  0
M  END
> <VConfSearch Rank>
630

> <Conf_Id>
45

> <Delta U+W>
2.303

> <U+W>
-54.601

> <U>
11.258

> <W>
-65.860

> <W(PB)>
-67.709

> <W(SA)>
1.849

> <Valence>
8.169

> <Coulomb>
2.735

> <VdW>
0.355

> <VdW6>
-6.245

> <VdW12>
6.600

> <Bond>
0.149

> <Angle>
3.168

> <Pdih>
4.840

> <Idih>
0.011

> <Tether>
0.000

$$$$
VeraChem MOL file


 16 15  0  0  0  0  0  0  0  0999 V2000     
   19.3543   17.1540   23.7536 C   0  0  0  0  0  0  0  0  0  0  0  0
   18.2169   17.5486   23.9223 O   0  5  0  0  0  0  0  0  0  0  0  0
   19.8109   16.1851   24.3264 O   0  0  0  0  0  0  0  0  0  0  0  0
   20.2781   17.8904   22.7820 C   0  0  0  0  0  0  0  0  0  0  0  0
   20.6113   17.1630   22.0323 H   0  0  0  0  0  0  0  0  0  0  0  0
   21.1663   18.1997   23.3456 H   0  0  0  0  0  0  0  0  0  0  0  0
   19.6519   19.1217   22.0747 C   0  0  0  0  0  0  0  0  0  0  0  0
   18.7595   18.8066   21.5162 H   0  0  0  0  0  0  0  0  0  0  0  0
   19.3151   19.8444   22.8308 H   0  0  0  0  0  0  0  0  0  0  0  0
   20.6512   19.8018   21.1155 C   0  0  0  0  0  0  0  0  0  0  0  0
   20.9875   19.0806   20.3577 H   0  0  0  0  0  0  0  0  0  0  0  0
   21.5434   20.1190   21.6731 H   0  0  0  0  0  0  0  0  0  0  0  0
   20.0235   21.0237   20.4162 C   0  0  0  0  0  0  0  0  0  0  0  0
   19.1462   20.7301   19.8249 H   0  0  0  0  0  0  0  0  0  0  0  0
   20.7468   21.4953   19.7382 H   0  0  0  0  0  0  0  0  0  0  0  0
   19.7062   21.7761   21.1501 H   0  0  0  0  0  0  0  0  0  0  0  0
  1  2  1  0  0  0  0
  1  3  2  0  0  0  0
  1  4  1  0  0  0  0
  4  5  1  0  0  0  0
  4  6  1  0  0  0  0
  4  7  1  0  0  0  0
  7  8  1  0  0  0  0
  7  9  1  0  0  0  0
  7 10  1  0  0  0  0
 10 11  1  0  0  0  0
 10 12  1  0  0  0  0
 10 13  1  0  0  0  0
 13 14  1  0  0  0  0
 13 15  1  0  0  0  0
 13 16  1  0  0  0  0
M  END
> <VConfSearch Rank>
631

> <Conf_Id>
0

> <Delta U+W>
0.000

> <U+W>
-56.904

> <U>
7.329

> <W>
-64.233

> <W(PB)>
-66.148

> <W(SA)>
1.915

> <Valence>
6.755

> <Coulomb>
-0.421

> <VdW>
0.995

> <VdW6>
-4.495

> <VdW12>
5.490

> <Bond>
0.106

> <Angle>
2.715

> <Pdih>
3.934

> <Idih>
0.000

> <Tether>
0.000

$$$$
VeraChem MOL file


 16 15  0  0  0  0  0  0  0  0999 V2000     
   19.8271   20.0545   19.3818 C   0  0  0  0  0  0  0  0  0  0  0  0
   18.6953   20.3176   19.0271 O   0  5  0  0  0  0  0  0  0  0  0  0
   20.8124   20.6321   18.9679 O   0  0  0  0  0  0  0  0  0  0  0  0
   20.0199   18.9513   20.4164 C   0  0  0  0  0  0  0  0  0  0  0  0
   20.9799   18.4601   20.2163 H   0  0  0  0  0  0  0  0  0  0  0  0
   19.2344   18.2009   20.2652 H   0  0  0  0  0  0  0  0  0  0  0  0
   19.9826   19.4772   21.8724 C   0  0  0  0  0  0  0  0  0  0  0  0
   20.7663   20.2361   22.0045 H   0  0  0  0  0  0  0  0  0  0  0  0
   19.0208   19.9770   22.0534 H   0  0  0  0  0  0  0  0  0  0  0  0
   20.1799   18.3418   22.8983 C   0  0  0  0  0  0  0  0  0  0  0  0
   21.1419   17.8422   22.7181 H   0  0  0  0  0  0  0  0  0  0  0  0
   19.3960   17.5830   22.7670 H   0  0  0  0  0  0  0  0  0  0  0  0
   20.1416   18.8725   24.3450 C   0  0  0  0  0  0  0  0  0  0  0  0
   19.1773   19.3501   24.5628 H   0  0  0  0  0  0  0  0  0  0  0  0
   20.9361   19.6113   24.5135 H   0  0  0  0  0  0  0  0  0  0  0  0
   20.2834   18.0529   25.0615 H   0  0  0  0  0  0  0  0  0  0  0  0
  1  2  1  0  0  0  0
  1  3  2  0  0  0  0
  1  4  1  0  0  0  0
  4  5  1  0  0  0  0
  4  6  1  0  0  0  0
  4  7  1  0  0  0  0
  7  8  1  0  0  0  0
  7  9  1  0  0  0  0
  7 10  1  0  0  0  0
 10 11  1  0  0  0  0
 10 12  1  0  0  0  0
 10 13  1  0  0  0  0
 13 14  1  0  0  0  0
 13 15  1  0  0  0  0
 13 16  1  0  0  0  0
M  END
> <VConfSearch Rank>
632

> <Conf_Id>
22

> <Delta U+W>
-1.185

> <U+W>
-58.089

> <U>
6.298

> <W>
-64.387

> <W(PB)>
-66.329

> <W(SA)>
1.942

> <Valence>
6.246

> <Coulomb>
-0.408

> <VdW>
0.460

> <VdW6>
-4.207

> <VdW12>
4.667

> <Bond>
0.072

> <Angle>
2.246

> <Pdih>
3.928

> <Idih>
0.001

> <Tether>
0.000

$$$$
VeraChem MOL file


 16 15  0  0  0  0  0  0  0  0999 V2000     
   17.8821   18.8073   20.4893 C   0  0  0  0  0  0  0  0  0  0  0  0
   16.9610   18.0827   20.8095 O   0  5  0  0  0  0  0  0  0  0  0  0
   18.1076   19.1399   19.3428 O   0  0  0  0  0  0  0  0  0  0  0  0
   18.8172   19.3100   21.5836 C   0  0  0  0  0  0  0  0  0  0  0  0
   18.2322   19.4289   22.5034 H   0  0  0  0  0  0  0  0  0  0  0  0
   19.1693   20.3058   21.2912 H   0  0  0  0  0  0  0  0  0  0  0  0
   20.0169   18.3593   21.8326 C   0  0  0  0  0  0  0  0  0  0  0  0
   19.6317   17.3508   22.0376 H   0  0  0  0  0  0  0  0  0  0  0  0
   20.6193   18.2816   20.9170 H   0  0  0  0  0  0  0  0  0  0  0  0
   20.9146   18.7974   23.0127 C   0  0  0  0  0  0  0  0  0  0  0  0
   21.6694   18.0189   23.1902 H   0  0  0  0  0  0  0  0  0  0  0  0
   20.3148   18.8637   23.9309 H   0  0  0  0  0  0  0  0  0  0  0  0
   21.6339   20.1405   22.7643 C   0  0  0  0  0  0  0  0  0  0  0  0
   20.9199   20.9706   22.6937 H   0  0  0  0  0  0  0  0  0  0  0  0
   22.2177   20.1076   21.8351 H   0  0  0  0  0  0  0  0  0  0  0  0
   22.3232   20.3646   23.5886 H   0  0  0  0  0  0  0  0  0  0  0  0
  1  2  1  0  0  0  0
  1  3  2  0  0  0  0
  1  4  1  0  0  0  0
  4  5  1  0  0  0  0
  4  6  1  0  0  0  0
  4  7  1  0  0  0  0
  7  8  1  0  0  0  0
  7  9  1  0  0  0  0
  7 10  1  0  0  0  0
 10 11  1  0  0  0  0
 10 12  1  0  0  0  0
 10 13  1  0  0  0  0
 13 14  1  0  0  0  0
 13 15  1  0  0  0  0
 13 16  1  0  0  0  0
M  END
> <VConfSearch Rank>
633

> <Conf_Id>
36

> <Delta U+W>
-0.427

> <U+W>
-57.331

> <U>
7.263

> <W>
-64.594

> <W(PB)>
-66.513

> <W(SA)>
1.920

> <Valence>
6.734

> <Coulomb>
-0.068

> <VdW>
0.598

> <VdW6>
-4.819

> <VdW12>
5.417

> <Bond>
0.107

> <Angle>
2.469

> <Pdih>
4.157

> <Idih>
0.001

> <Tether>
0.000

$$$$
VeraChem MOL file


 16 15  0  0  0  0  0  0  0  0999 V2000     
   22.0286   18.3117   23.3121 C   0  0  0  0  0  0  0  0  0  0  0  0
   22.0812   17.0980   23.3281 O   0  5  0  0  0  0  0  0  0  0  0  0
   22.6247   19.0201   24.0988 O   0  0  0  0  0  0  0  0  0  0  0  0
   21.1510   18.9820   22.2609 C   0  0  0  0  0  0  0  0  0  0  0  0
   21.1702   18.3566   21.3611 H   0  0  0  0  0  0  0  0  0  0  0  0
   21.6082   19.9436   21.9985 H   0  0  0  0  0  0  0  0  0  0  0  0
   19.6931   19.1976   22.7436 C   0  0  0  0  0  0  0  0  0  0  0  0
   19.2318   18.2246   22.9626 H   0  0  0  0  0  0  0  0  0  0  0  0
   19.7134   19.7523   23.6919 H   0  0  0  0  0  0  0  0  0  0  0  0
   18.8186   19.9743   21.7324 C   0  0  0  0  0  0  0  0  0  0  0  0
   19.2736   20.9521   21.5223 H   0  0  0  0  0  0  0  0  0  0  0  0
   17.8424   20.1786   22.1936 H   0  0  0  0  0  0  0  0  0  0  0  0
   18.5942   19.2111   20.4095 C   0  0  0  0  0  0  0  0  0  0  0  0
   19.5329   19.0832   19.8562 H   0  0  0  0  0  0  0  0  0  0  0  0
   17.8994   19.7617   19.7621 H   0  0  0  0  0  0  0  0  0  0  0  0
   18.1660   18.2177   20.5969 H   0  0  0  0  0  0  0  0  0  0  0  0
  1  2  1  0  0  0  0
  1  3  2  0  0  0  0
  1  4  1  0  0  0  0
  4  5  1  0  0  0  0
  4  6  1  0  0  0  0
  4  7  1  0  0  0  0
  7  8  1  0  0  0  0
  7  9  1  0  0  0  0
  7 10  1  0  0  0  0
 10 11  1  0  0  0  0
 10 12  1  0  0  0  0
 10 13  1  0  0  0  0
 13 14  1  0  0  0  0
 13 15  1  0  0  0  0
 13 16  1  0  0  0  0
M  END
> <VConfSearch Rank>
634

> <Conf_Id>
17

> <Delta U+W>
-0.432

> <U+W>
-57.336

> <U>
7.263

> <W>
-64.599

> <W(PB)>
-66.503

> <W(SA)>
1.904

> <Valence>
6.734

> <Coulomb>
-0.068

> <VdW>
0.598

> <VdW6>
-4.819

> <VdW12>
5.417

> <Bond>
0.107

> <Angle>
2.469

> <Pdih>
4.157

> <Idih>
0.001

> <Tether>
0.000

$$$$
VeraChem MOL file


 16 15  0  0  0  0  0  0  0  0999 V2000     
   21.2744   19.5719   20.0610 C   0  0  0  0  0  0  0  0  0  0  0  0
   22.3978   19.1104   20.0244 O   0  5  0  0  0  0  0  0  0  0  0  0
   20.4596   19.4256   19.1717 O   0  0  0  0  0  0  0  0  0  0  0  0
   20.8757   20.3997   21.2796 C   0  0  0  0  0  0  0  0  0  0  0  0
   20.0066   21.0149   21.0164 H   0  0  0  0  0  0  0  0  0  0  0  0
   21.7005   21.0905   21.4913 H   0  0  0  0  0  0  0  0  0  0  0  0
   20.5704   19.5560   22.5445 C   0  0  0  0  0  0  0  0  0  0  0  0
   21.4384   18.9243   22.7792 H   0  0  0  0  0  0  0  0  0  0  0  0
   20.4311   20.2321   23.3989 H   0  0  0  0  0  0  0  0  0  0  0  0
   19.3120   18.6760   22.3818 C   0  0  0  0  0  0  0  0  0  0  0  0
   19.4482   17.9806   21.5418 H   0  0  0  0  0  0  0  0  0  0  0  0
   18.4475   19.3076   22.1350 H   0  0  0  0  0  0  0  0  0  0  0  0
   19.0122   17.8742   23.6638 C   0  0  0  0  0  0  0  0  0  0  0  0
   19.8495   17.2105   23.9165 H   0  0  0  0  0  0  0  0  0  0  0  0
   18.1162   17.2540   23.5312 H   0  0  0  0  0  0  0  0  0  0  0  0
   18.8371   18.5450   24.5152 H   0  0  0  0  0  0  0  0  0  0  0  0
  1  2  1  0  0  0  0
  1  3  2  0  0  0  0
  1  4  1  0  0  0  0
  4  5  1  0  0  0  0
  4  6  1  0  0  0  0
  4  7  1  0  0  0  0
  7  8  1  0  0  0  0
  7  9  1  0  0  0  0
  7 10  1  0  0  0  0
 10 11  1  0  0  0  0
 10 12  1  0  0  0  0
 10 13  1  0  0  0  0
 13 14  1  0  0  0  0
 13 15  1  0  0  0  0
 13 16  1  0  0  0  0
M  END
> <VConfSearch Rank>
635

> <Conf_Id>
19

> <Delta U+W>
0.048

> <U+W>
-56.856

> <U>
8.276

> <W>
-65.132

> <W(PB)>
-67.031

> <W(SA)>
1.899

> <Valence>
6.513

> <Coulomb>
1.428

> <VdW>
0.335

> <VdW6>
-5.021

> <VdW12>
5.356

> <Bond>
0.092

> <Angle>
2.417

> <Pdih>
4.003

> <Idih>
0.001

> <Tether>
0.000

$$$$
VeraChem MOL file


 16 15  0  0  0  0  0  0  0  0999 V2000     
   21.5679   20.1737   20.7939 C   0  0  0  0  0  0  0  0  0  0  0  0
   22.6670   19.6865   20.9694 O   0  5  0  0  0  0  0  0  0  0  0  0
   21.3523   21.3692   20.8169 O   0  0  0  0  0  0  0  0  0  0  0  0
   20.4010   19.2328   20.5061 C   0  0  0  0  0  0  0  0  0  0  0  0
   20.7429   18.5045   19.7612 H   0  0  0  0  0  0  0  0  0  0  0  0
   19.5932   19.8090   20.0387 H   0  0  0  0  0  0  0  0  0  0  0  0
   19.8699   18.4838   21.7559 C   0  0  0  0  0  0  0  0  0  0  0  0
   19.1339   17.7339   21.4358 H   0  0  0  0  0  0  0  0  0  0  0  0
   20.6956   17.9346   22.2294 H   0  0  0  0  0  0  0  0  0  0  0  0
   19.2156   19.4326   22.7834 C   0  0  0  0  0  0  0  0  0  0  0  0
   18.3983   19.9900   22.3052 H   0  0  0  0  0  0  0  0  0  0  0  0
   19.9493   20.1754   23.1264 H   0  0  0  0  0  0  0  0  0  0  0  0
   18.6668   18.6593   23.9988 C   0  0  0  0  0  0  0  0  0  0  0  0
   17.9045   17.9318   23.6904 H   0  0  0  0  0  0  0  0  0  0  0  0
   18.2063   19.3478   24.7192 H   0  0  0  0  0  0  0  0  0  0  0  0
   19.4702   18.1169   24.5142 H   0  0  0  0  0  0  0  0  0  0  0  0
  1  2  1  0  0  0  0
  1  3  2  0  0  0  0
  1  4  1  0  0  0  0
  4  5  1  0  0  0  0
  4  6  1  0  0  0  0
  4  7  1  0  0  0  0
  7  8  1  0  0  0  0
  7  9  1  0  0  0  0
  7 10  1  0  0  0  0
 10 11  1  0  0  0  0
 10 12  1  0  0  0  0
 10 13  1  0  0  0  0
 13 14  1  0  0  0  0
 13 15  1  0  0  0  0
 13 16  1  0  0  0  0
M  END
> <VConfSearch Rank>
636

> <Conf_Id>
20

> <Delta U+W>
-0.010

> <U+W>
-56.914

> <U>
8.277

> <W>
-65.191

> <W(PB)>
-67.081

> <W(SA)>
1.890

> <Valence>
6.513

> <Coulomb>
1.429

> <VdW>
0.335

> <VdW6>
-5.021

> <VdW12>
5.356

> <Bond>
0.092

> <Angle>
2.417

> <Pdih>
4.002

> <Idih>
0.001

> <Tether>
0.000

$$$$
VeraChem MOL file


 16 15  0  0  0  0  0  0  0  0999 V2000     
   21.1213   20.6616   21.2864 C   0  0  0  0  0  0  0  0  0  0  0  0
   20.8250   21.2642   20.2736 O   0  5  0  0  0  0  0  0  0  0  0  0
   22.2172   20.1739   21.4797 O   0  0  0  0  0  0  0  0  0  0  0  0
   20.0699   20.5419   22.3864 C   0  0  0  0  0  0  0  0  0  0  0  0
   19.6771   21.5485   22.5720 H   0  0  0  0  0  0  0  0  0  0  0  0
   20.5638   20.2262   23.3124 H   0  0  0  0  0  0  0  0  0  0  0  0
   18.8935   19.5884   22.0407 C   0  0  0  0  0  0  0  0  0  0  0  0
   18.1503   19.6257   22.8486 H   0  0  0  0  0  0  0  0  0  0  0  0
   18.3883   19.9636   21.1399 H   0  0  0  0  0  0  0  0  0  0  0  0
   19.3129   18.1183   21.8026 C   0  0  0  0  0  0  0  0  0  0  0  0
   20.0310   18.0634   20.9725 H   0  0  0  0  0  0  0  0  0  0  0  0
   18.4298   17.5467   21.4856 H   0  0  0  0  0  0  0  0  0  0  0  0
   19.9173   17.4474   23.0544 C   0  0  0  0  0  0  0  0  0  0  0  0
   20.8714   17.9124   23.3338 H   0  0  0  0  0  0  0  0  0  0  0  0
   20.1101   16.3837   22.8642 H   0  0  0  0  0  0  0  0  0  0  0  0
   19.2329   17.5200   23.9097 H   0  0  0  0  0  0  0  0  0  0  0  0
  1  2  1  0  0  0  0
  1  3  2  0  0  0  0
  1  4  1  0  0  0  0
  4  5  1  0  0  0  0
  4  6  1  0  0  0  0
  4  7  1  0  0  0  0
  7  8  1  0  0  0  0
  7  9  1  0  0  0  0
  7 10  1  0  0  0  0
 10 11  1  0  0  0  0
 10 12  1  0  0  0  0
 10 13  1  0  0  0  0
 13 14  1  0  0  0  0
 13 15  1  0  0  0  0
 13 16  1  0  0  0  0
M  END
> <VConfSearch Rank>
637

> <Conf_Id>
37

> <Delta U+W>
1.063

> <U+W>
-55.841

> <U>
9.719

> <W>
-65.560

> <W(PB)>
-67.414

> <W(SA)>
1.854

> <Valence>
7.002

> <Coulomb>
2.402

> <VdW>
0.314

> <VdW6>
-5.861

> <VdW12>
6.175

> <Bond>
0.134

> <Angle>
2.733

> <Pdih>
4.133

> <Idih>
0.002

> <Tether>
0.000

$$$$
VeraChem MOL file


 16 15  0  0  0  0  0  0  0  0999 V2000     
   21.1385   20.9772   22.6474 C   0  0  0  0  0  0  0  0  0  0  0  0
   21.2555   21.8930   21.8572 O   0  5  0  0  0  0  0  0  0  0  0  0
   20.7899   21.1282   23.8015 O   0  0  0  0  0  0  0  0  0  0  0  0
   21.4815   19.5680   22.1718 C   0  0  0  0  0  0  0  0  0  0  0  0
   21.5904   18.9178   23.0474 H   0  0  0  0  0  0  0  0  0  0  0  0
   22.4683   19.6160   21.6966 H   0  0  0  0  0  0  0  0  0  0  0  0
   20.4582   18.9686   21.1686 C   0  0  0  0  0  0  0  0  0  0  0  0
   20.4139   19.6152   20.2813 H   0  0  0  0  0  0  0  0  0  0  0  0
   20.8240   17.9931   20.8207 H   0  0  0  0  0  0  0  0  0  0  0  0
   19.0291   18.8028   21.7379 C   0  0  0  0  0  0  0  0  0  0  0  0
   18.3676   18.4532   20.9334 H   0  0  0  0  0  0  0  0  0  0  0  0
   18.6379   19.7786   22.0578 H   0  0  0  0  0  0  0  0  0  0  0  0
   18.9541   17.8049   22.9131 C   0  0  0  0  0  0  0  0  0  0  0  0
   19.3723   16.8303   22.6299 H   0  0  0  0  0  0  0  0  0  0  0  0
   17.9113   17.6501   23.2188 H   0  0  0  0  0  0  0  0  0  0  0  0
   19.5039   18.1771   23.7870 H   0  0  0  0  0  0  0  0  0  0  0  0
  1  2  1  0  0  0  0
  1  3  2  0  0  0  0
  1  4  1  0  0  0  0
  4  5  1  0  0  0  0
  4  6  1  0  0  0  0
  4  7  1  0  0  0  0
  7  8  1  0  0  0  0
  7  9  1  0  0  0  0
  7 10  1  0  0  0  0
 10 11  1  0  0  0  0
 10 12  1  0  0  0  0
 10 13  1  0  0  0  0
 13 14  1  0  0  0  0
 13 15  1  0  0  0  0
 13 16  1  0  0  0  0
M  END
> <VConfSearch Rank>
638

> <Conf_Id>
39

> <Delta U+W>
1.129

> <U+W>
-55.775

> <U>
9.718

> <W>
-65.493

> <W(PB)>
-67.361

> <W(SA)>
1.869

> <Valence>
7.002

> <Coulomb>
2.402

> <VdW>
0.314

> <VdW6>
-5.861

> <VdW12>
6.175

> <Bond>
0.134

> <Angle>
2.734

> <Pdih>
4.133

> <Idih>
0.002

> <Tether>
0.000

$$$$
VeraChem MOL file


 16 15  0  0  0  0  0  0  0  0999 V2000     
   19.3741   18.7615   24.1679 C   0  0  0  0  0  0  0  0  0  0  0  0
   20.1430   19.3075   24.9344 O   0  5  0  0  0  0  0  0  0  0  0  0
   19.0229   17.6039   24.2848 O   0  0  0  0  0  0  0  0  0  0  0  0
   18.7489   19.6001   23.0546 C   0  0  0  0  0  0  0  0  0  0  0  0
   19.1100   20.6323   23.1396 H   0  0  0  0  0  0  0  0  0  0  0  0
   17.6717   19.6276   23.2565 H   0  0  0  0  0  0  0  0  0  0  0  0
   18.9786   19.0671   21.6124 C   0  0  0  0  0  0  0  0  0  0  0  0
   18.8092   17.9817   21.5829 H   0  0  0  0  0  0  0  0  0  0  0  0
   18.2132   19.5105   20.9612 H   0  0  0  0  0  0  0  0  0  0  0  0
   20.3638   19.4053   21.0105 C   0  0  0  0  0  0  0  0  0  0  0  0
   20.5300   20.4909   21.0436 H   0  0  0  0  0  0  0  0  0  0  0  0
   20.3581   19.1265   19.9477 H   0  0  0  0  0  0  0  0  0  0  0  0
   21.5376   18.6793   21.6999 C   0  0  0  0  0  0  0  0  0  0  0  0
   21.6900   19.0472   22.7218 H   0  0  0  0  0  0  0  0  0  0  0  0
   22.4707   18.8466   21.1466 H   0  0  0  0  0  0  0  0  0  0  0  0
   21.3595   17.5969   21.7456 H   0  0  0  0  0  0  0  0  0  0  0  0
  1  2  1  0  0  0  0
  1  3  2  0  0  0  0
  1  4  1  0  0  0  0
  4  5  1  0  0  0  0
  4  6  1  0  0  0  0
  4  7  1  0  0  0  0
  7  8  1  0  0  0  0
  7  9  1  0  0  0  0
  7 10  1  0  0  0  0
 10 11  1  0  0  0  0
 10 12  1  0  0  0  0
 10 13  1  0  0  0  0
 13 14  1  0  0  0  0
 13 15  1  0  0  0  0
 13 16  1  0  0  0  0
M  END
> <VConfSearch Rank>
639

> <Conf_Id>
47

> <Delta U+W>
2.301

> <U+W>
-54.603

> <U>
11.258

> <W>
-65.861

> <W(PB)>
-67.702

> <W(SA)>
1.841

> <Valence>
8.169

> <Coulomb>
2.735

> <VdW>
0.355

> <VdW6>
-6.245

> <VdW12>
6.600

> <Bond>
0.149

> <Angle>
3.168

> <Pdih>
4.840

> <Idih>
0.011

> <Tether>
0.000

$$$$
VeraChem MOL file


 16 15  0  0  0  0  0  0  0  0999 V2000     
   21.7504   18.4348   22.3594 C   0  0  0  0  0  0  0  0  0  0  0  0
   22.3293   18.7505   21.3384 O   0  5  0  0  0  0  0  0  0  0  0  0
   21.7902   17.3158   22.8318 O   0  0  0  0  0  0  0  0  0  0  0  0
   21.0087   19.5201   23.1376 C   0  0  0  0  0  0  0  0  0  0  0  0
   21.7628   20.2594   23.4315 H   0  0  0  0  0  0  0  0  0  0  0  0
   20.6152   19.0879   24.0657 H   0  0  0  0  0  0  0  0  0  0  0  0
   19.8738   20.2401   22.3561 C   0  0  0  0  0  0  0  0  0  0  0  0
   19.6750   21.1988   22.8539 H   0  0  0  0  0  0  0  0  0  0  0  0
   20.2175   20.4906   21.3429 H   0  0  0  0  0  0  0  0  0  0  0  0
   18.5395   19.4589   22.2867 C   0  0  0  0  0  0  0  0  0  0  0  0
   17.7723   20.1191   21.8591 H   0  0  0  0  0  0  0  0  0  0  0  0
   18.2004   19.2088   23.3015 H   0  0  0  0  0  0  0  0  0  0  0  0
   18.6114   18.1760   21.4327 C   0  0  0  0  0  0  0  0  0  0  0  0
   17.6109   17.7430   21.3053 H   0  0  0  0  0  0  0  0  0  0  0  0
   19.2420   17.4146   21.9078 H   0  0  0  0  0  0  0  0  0  0  0  0
   19.0188   18.3886   20.4356 H   0  0  0  0  0  0  0  0  0  0  0  0
  1  2  1  0  0  0  0
  1  3  2  0  0  0  0
  1  4  1  0  0  0  0
  4  5  1  0  0  0  0
  4  6  1  0  0  0  0
  4  7  1  0  0  0  0
  7  8  1  0  0  0  0
  7  9  1  0  0  0  0
  7 10  1  0  0  0  0
 10 11  1  0  0  0  0
 10 12  1  0  0  0  0
 10 13  1  0  0  0  0
 13 14  1  0  0  0  0
 13 15  1  0  0  0  0
 13 16  1  0  0  0  0
M  END
> <VConfSearch Rank>
640

> <Conf_Id>
45

> <Delta U+W>
2.303

> <U+W>
-54.601

> <U>
11.258

> <W>
-65.860

> <W(PB)>
-67.709

> <W(SA)>
1.849

> <Valence>
8.169

> <Coulomb>
2.735

> <VdW>
0.355

> <VdW6>
-6.245

> <VdW12>
6.600

> <Bond>
0.149

> <Angle>
3.168

> <Pdih>
4.840

> <Idih>
0.011

> <Tether>
0.000

$$$$
VeraChem MOL file


 16 15  0  0  0  0  0  0  0  0999 V2000     
   17.8177   18.3477   20.4246 C   0  0  0  0  0  0  0  0  0  0  0  0
   17.0000   18.8035   21.2001 O   0  5  0  0  0  0  0  0  0  0  0  0
   17.5102   17.7827   19.3943 O   0  0  0  0  0  0  0  0  0  0  0  0
   19.3107   18.4754   20.7321 C   0  0  0  0  0  0  0  0  0  0  0  0
   19.7745   19.0022   19.8898 H   0  0  0  0  0  0  0  0  0  0  0  0
   19.7297   17.4623   20.7466 H   0  0  0  0  0  0  0  0  0  0  0  0
   19.6553   19.2035   22.0586 C   0  0  0  0  0  0  0  0  0  0  0  0
   19.2284   20.2159   22.0404 H   0  0  0  0  0  0  0  0  0  0  0  0
   19.1835   18.6744   22.8982 H   0  0  0  0  0  0  0  0  0  0  0  0
   21.1790   19.2868   22.2880 C   0  0  0  0  0  0  0  0  0  0  0  0
   21.6518   19.8173   21.4499 H   0  0  0  0  0  0  0  0  0  0  0  0
   21.6069   18.2749   22.3082 H   0  0  0  0  0  0  0  0  0  0  0  0
   21.5148   20.0109   23.6068 C   0  0  0  0  0  0  0  0  0  0  0  0
   21.1252   21.0374   23.6014 H   0  0  0  0  0  0  0  0  0  0  0  0
   22.6014   20.0615   23.7545 H   0  0  0  0  0  0  0  0  0  0  0  0
   21.0800   19.4836   24.4661 H   0  0  0  0  0  0  0  0  0  0  0  0
  1  2  1  0  0  0  0
  1  3  2  0  0  0  0
  1  4  1  0  0  0  0
  4  5  1  0  0  0  0
  4  6  1  0  0  0  0
  4  7  1  0  0  0  0
  7  8  1  0  0  0  0
  7  9  1  0  0  0  0
  7 10  1  0  0  0  0
 10 11  1  0  0  0  0
 10 12  1  0  0  0  0
 10 13  1  0  0  0  0
 13 14  1  0  0  0  0
 13 15  1  0  0  0  0
 13 16  1  0  0  0  0
M  END
> <VConfSearch Rank>
641

> <Conf_Id>
0

> <Delta U+W>
0.000

> <U+W>
-56.904

> <U>
7.329

> <W>
-64.233

> <W(PB)>
-66.148

> <W(SA)>
1.915

> <Valence>
6.755

> <Coulomb>
-0.421

> <VdW>
0.995

> <VdW6>
-4.495

> <VdW12>
5.490

> <Bond>
0.106

> <Angle>
2.715

> <Pdih>
3.934

> <Idih>
0.000

> <Tether>
0.000

$$$$
VeraChem MOL file


 16 15  0  0  0  0  0  0  0  0999 V2000     
   22.1997   20.7327   22.3871 C   0  0  0  0  0  0  0  0  0  0  0  0
   22.6919   20.6298   23.4930 O   0  5  0  0  0  0  0  0  0  0  0  0
   22.8362   21.0167   21.3920 O   0  0  0  0  0  0  0  0  0  0  0  0
   20.7048   20.4733   22.2366 C   0  0  0  0  0  0  0  0  0  0  0  0
   20.3274   21.1120   21.4288 H   0  0  0  0  0  0  0  0  0  0  0  0
   20.2085   20.7929   23.1609 H   0  0  0  0  0  0  0  0  0  0  0  0
   20.3774   18.9889   21.9407 C   0  0  0  0  0  0  0  0  0  0  0  0
   20.8912   18.6805   21.0195 H   0  0  0  0  0  0  0  0  0  0  0  0
   20.7723   18.3614   22.7517 H   0  0  0  0  0  0  0  0  0  0  0  0
   18.8596   18.7540   21.7932 C   0  0  0  0  0  0  0  0  0  0  0  0
   18.4645   19.3809   20.9818 H   0  0  0  0  0  0  0  0  0  0  0  0
   18.3455   19.0618   22.7144 H   0  0  0  0  0  0  0  0  0  0  0  0
   18.5413   17.2748   21.4988 C   0  0  0  0  0  0  0  0  0  0  0  0
   18.8981   16.6272   22.3105 H   0  0  0  0  0  0  0  0  0  0  0  0
   19.0180   16.9487   20.5651 H   0  0  0  0  0  0  0  0  0  0  0  0
   17.4585   17.1251   21.3969 H   0  0  0  0  0  0  0  0  0  0  0  0
  1  2  1  0  0  0  0
  1  3  2  0  0  0  0
  1  4  1  0  0  0  0
  4  5  1  0  0  0  0
  4  6  1  0  0  0  0
  4  7  1  0  0  0  0
  7  8  1  0  0  0  0
  7  9  1  0  0  0  0
  7 10  1  0  0  0  0
 10 11  1  0  0  0  0
 10 12  1  0  0  0  0
 10 13  1  0  0  0  0
 13 14  1  0  0  0  0
 13 15  1  0  0  0  0
 13 16  1  0  0  0  0
M  END
> <VConfSearch Rank>
642

> <Conf_Id>
22

> <Delta U+W>
-1.185

> <U+W>
-58.089

> <U>
6.298

> <W>
-64.387

> <W(PB)>
-66.329

> <W(SA)>
1.942

> <Valence>
6.246

> <Coulomb>
-0.408

> <VdW>
0.460

> <VdW6>
-4.207

> <VdW12>
4.667

> <Bond>
0.072

> <Angle>
2.246

> <Pdih>
3.928

> <Idih>
0.001

> <Tether>
0.000

$$$$
VeraChem MOL file


 16 15  0  0  0  0  0  0  0  0999 V2000     
   20.3105   17.0809   20.4669 C   0  0  0  0  0  0  0  0  0  0  0  0
   19.3879   16.3791   20.1033 O   0  5  0  0  0  0  0  0  0  0  0  0
   21.4684   16.7134   20.4816 O   0  0  0  0  0  0  0  0  0  0  0  0
   19.9953   18.4922   20.9499 C   0  0  0  0  0  0  0  0  0  0  0  0
   19.1282   18.8589   20.3876 H   0  0  0  0  0  0  0  0  0  0  0  0
   20.8459   19.1325   20.6897 H   0  0  0  0  0  0  0  0  0  0  0  0
   19.7105   18.5568   22.4730 C   0  0  0  0  0  0  0  0  0  0  0  0
   18.9126   17.8407   22.7137 H   0  0  0  0  0  0  0  0  0  0  0  0
   20.6008   18.2277   23.0266 H   0  0  0  0  0  0  0  0  0  0  0  0
   19.2820   19.9602   22.9599 C   0  0  0  0  0  0  0  0  0  0  0  0
   18.9953   19.8944   24.0186 H   0  0  0  0  0  0  0  0  0  0  0  0
   18.3849   20.2846   22.4147 H   0  0  0  0  0  0  0  0  0  0  0  0
   20.3926   21.0218   22.8102 C   0  0  0  0  0  0  0  0  0  0  0  0
   20.6332   21.2043   21.7554 H   0  0  0  0  0  0  0  0  0  0  0  0
   21.3101   20.7057   23.3236 H   0  0  0  0  0  0  0  0  0  0  0  0
   20.0724   21.9763   23.2477 H   0  0  0  0  0  0  0  0  0  0  0  0
  1  2  1  0  0  0  0
  1  3  2  0  0  0  0
  1  4  1  0  0  0  0
  4  5  1  0  0  0  0
  4  6  1  0  0  0  0
  4  7  1  0  0  0  0
  7  8  1  0  0  0  0
  7  9  1  0  0  0  0
  7 10  1  0  0  0  0
 10 11  1  0  0  0  0
 10 12  1  0  0  0  0
 10 13  1  0  0  0  0
 13 14  1  0  0  0  0
 13 15  1  0  0  0  0
 13 16  1  0  0  0  0
M  END
> <VConfSearch Rank>
643

> <Conf_Id>
36

> <Delta U+W>
-0.427

> <U+W>
-57.331

> <U>
7.263

> <W>
-64.594

> <W(PB)>
-66.513

> <W(SA)>
1.920

> <Valence>
6.734

> <Coulomb>
-0.068

> <VdW>
0.598

> <VdW6>
-4.819

> <VdW12>
5.417

> <Bond>
0.107

> <Angle>
2.469

> <Pdih>
4.157

> <Idih>
0.001

> <Tether>
0.000

$$$$
VeraChem MOL file


 16 15  0  0  0  0  0  0  0  0999 V2000     
   20.1564   21.4042   23.2315 C   0  0  0  0  0  0  0  0  0  0  0  0
   19.3290   21.4909   24.1169 O   0  5  0  0  0  0  0  0  0  0  0  0
   20.7311   22.3619   22.7534 O   0  0  0  0  0  0  0  0  0  0  0  0
   20.4766   20.0208   22.6763 C   0  0  0  0  0  0  0  0  0  0  0  0
   20.3769   19.3002   23.4960 H   0  0  0  0  0  0  0  0  0  0  0  0
   21.5276   20.0143   22.3635 H   0  0  0  0  0  0  0  0  0  0  0  0
   19.5630   19.6239   21.4877 C   0  0  0  0  0  0  0  0  0  0  0  0
   18.5173   19.5923   21.8238 H   0  0  0  0  0  0  0  0  0  0  0  0
   19.6194   20.4093   20.7213 H   0  0  0  0  0  0  0  0  0  0  0  0
   19.9452   18.2719   20.8424 C   0  0  0  0  0  0  0  0  0  0  0  0
   20.9873   18.3074   20.4957 H   0  0  0  0  0  0  0  0  0  0  0  0
   19.3253   18.1196   19.9481 H   0  0  0  0  0  0  0  0  0  0  0  0
   19.7545   17.0692   21.7910 C   0  0  0  0  0  0  0  0  0  0  0  0
   20.4390   17.1211   22.6469 H   0  0  0  0  0  0  0  0  0  0  0  0
   19.9545   16.1282   21.2624 H   0  0  0  0  0  0  0  0  0  0  0  0
   18.7262   17.0298   22.1736 H   0  0  0  0  0  0  0  0  0  0  0  0
  1  2  1  0  0  0  0
  1  3  2  0  0  0  0
  1  4  1  0  0  0  0
  4  5  1  0  0  0  0
  4  6  1  0  0  0  0
  4  7  1  0  0  0  0
  7  8  1  0  0  0  0
  7  9  1  0  0  0  0
  7 10  1  0  0  0  0
 10 11  1  0  0  0  0
 10 12  1  0  0  0  0
 10 13  1  0  0  0  0
 13 14  1  0  0  0  0
 13 15  1  0  0  0  0
 13 16  1  0  0  0  0
M  END
> <VConfSearch Rank>
644

> <Conf_Id>
17

> <Delta U+W>
-0.432

> <U+W>
-57.336

> <U>
7.263

> <W>
-64.599

> <W(PB)>
-66.503

> <W(SA)>
1.904

> <Valence>
6.734

> <Coulomb>
-0.068

> <VdW>
0.598

> <VdW6>
-4.819

> <VdW12>
5.417

> <Bond>
0.107

> <Angle>
2.469

> <Pdih>
4.157

> <Idih>
0.001

> <Tether>
0.000

$$$$
VeraChem MOL file


 16 15  0  0  0  0  0  0  0  0999 V2000     
   19.2547   16.9636   22.4235 C   0  0  0  0  0  0  0  0  0  0  0  0
   19.9244   16.0843   21.9188 O   0  5  0  0  0  0  0  0  0  0  0  0
   18.8535   16.9274   23.5698 O   0  0  0  0  0  0  0  0  0  0  0  0
   18.8782   18.1660   21.5621 C   0  0  0  0  0  0  0  0  0  0  0  0
   18.0193   18.6708   22.0209 H   0  0  0  0  0  0  0  0  0  0  0  0
   18.5393   17.7819   20.5926 H   0  0  0  0  0  0  0  0  0  0  0  0
   20.0363   19.1738   21.3427 C   0  0  0  0  0  0  0  0  0  0  0  0
   20.8989   18.6486   20.9095 H   0  0  0  0  0  0  0  0  0  0  0  0
   19.7205   19.9246   20.6058 H   0  0  0  0  0  0  0  0  0  0  0  0
   20.4584   19.8862   22.6459 C   0  0  0  0  0  0  0  0  0  0  0  0
   20.7960   19.1456   23.3843 H   0  0  0  0  0  0  0  0  0  0  0  0
   19.5921   20.4005   23.0845 H   0  0  0  0  0  0  0  0  0  0  0  0
   21.5868   20.9058   22.3940 C   0  0  0  0  0  0  0  0  0  0  0  0
   22.4774   20.4121   21.9836 H   0  0  0  0  0  0  0  0  0  0  0  0
   21.8753   21.4022   23.3297 H   0  0  0  0  0  0  0  0  0  0  0  0
   21.2660   21.6799   21.6846 H   0  0  0  0  0  0  0  0  0  0  0  0
  1  2  1  0  0  0  0
  1  3  2  0  0  0  0
  1  4  1  0  0  0  0
  4  5  1  0  0  0  0
  4  6  1  0  0  0  0
  4  7  1  0  0  0  0
  7  8  1  0  0  0  0
  7  9  1  0  0  0  0
  7 10  1  0  0  0  0
 10 11  1  0  0  0  0
 10 12  1  0  0  0  0
 10 13  1  0  0  0  0
 13 14  1  0  0  0  0
 13 15  1  0  0  0  0
 13 16  1  0  0  0  0
M  END
> <VConfSearch Rank>
645

> <Conf_Id>
19

> <Delta U+W>
0.048

> <U+W>
-56.856

> <U>
8.276

> <W>
-65.132

> <W(PB)>
-67.031

> <W(SA)>
1.899

> <Valence>
6.513

> <Coulomb>
1.428

> <VdW>
0.335

> <VdW6>
-5.021

> <VdW12>
5.356

> <Bond>
0.092

> <Angle>
2.417

> <Pdih>
4.003

> <Idih>
0.001

> <Tether>
0.000

$$$$
VeraChem MOL file


 16 15  0  0  0  0  0  0  0  0999 V2000     
   19.7409   16.8971   21.4089 C   0  0  0  0  0  0  0  0  0  0  0  0
   19.9481   16.1067   22.3082 O   0  5  0  0  0  0  0  0  0  0  0  0
   20.2823   16.8351   20.3229 O   0  0  0  0  0  0  0  0  0  0  0  0
   18.7284   18.0133   21.6506 C   0  0  0  0  0  0  0  0  0  0  0  0
   17.8482   17.5613   22.1231 H   0  0  0  0  0  0  0  0  0  0  0  0
   18.4008   18.4057   20.6802 H   0  0  0  0  0  0  0  0  0  0  0  0
   19.2590   19.1660   22.5422 C   0  0  0  0  0  0  0  0  0  0  0  0
   18.4293   19.8467   22.7758 H   0  0  0  0  0  0  0  0  0  0  0  0
   19.6096   18.7545   23.4989 H   0  0  0  0  0  0  0  0  0  0  0  0
   20.3964   19.9631   21.8676 C   0  0  0  0  0  0  0  0  0  0  0  0
   20.0482   20.3635   20.9054 H   0  0  0  0  0  0  0  0  0  0  0  0
   21.2412   19.2956   21.6474 H   0  0  0  0  0  0  0  0  0  0  0  0
   20.8819   21.1225   22.7601 C   0  0  0  0  0  0  0  0  0  0  0  0
   20.0656   21.8262   22.9690 H   0  0  0  0  0  0  0  0  0  0  0  0
   21.6902   21.6778   22.2667 H   0  0  0  0  0  0  0  0  0  0  0  0
   21.2646   20.7465   23.7180 H   0  0  0  0  0  0  0  0  0  0  0  0
  1  2  1  0  0  0  0
  1  3  2  0  0  0  0
  1  4  1  0  0  0  0
  4  5  1  0  0  0  0
  4  6  1  0  0  0  0
  4  7  1  0  0  0  0
  7  8  1  0  0  0  0
  7  9  1  0  0  0  0
  7 10  1  0  0  0  0
 10 11  1  0  0  0  0
 10 12  1  0  0  0  0
 10 13  1  0  0  0  0
 13 14  1  0  0  0  0
 13 15  1  0  0  0  0
 13 16  1  0  0  0  0
M  END
> <VConfSearch Rank>
646

> <Conf_Id>
20

> <Delta U+W>
-0.010

> <U+W>
-56.914

> <U>
8.277

> <W>
-65.191

> <W(PB)>
-67.081

> <W(SA)>
1.890

> <Valence>
6.513

> <Coulomb>
1.429

> <VdW>
0.335

> <VdW6>
-5.021

> <VdW12>
5.356

> <Bond>
0.092

> <Angle>
2.417

> <Pdih>
4.002

> <Idih>
0.001

> <Tether>
0.000

$$$$
VeraChem MOL file


 16 15  0  0  0  0  0  0  0  0999 V2000     
   19.1896   18.2330   23.9898 C   0  0  0  0  0  0  0  0  0  0  0  0
   19.9467   17.8268   24.8492 O   0  5  0  0  0  0  0  0  0  0  0  0
   18.2428   17.5946   23.5745 O   0  0  0  0  0  0  0  0  0  0  0  0
   19.4226   19.6331   23.4285 C   0  0  0  0  0  0  0  0  0  0  0  0
   19.5247   20.3132   24.2823 H   0  0  0  0  0  0  0  0  0  0  0  0
   18.5239   19.9490   22.8864 H   0  0  0  0  0  0  0  0  0  0  0  0
   20.6790   19.7545   22.5234 C   0  0  0  0  0  0  0  0  0  0  0  0
   20.8129   20.8050   22.2321 H   0  0  0  0  0  0  0  0  0  0  0  0
   21.5658   19.4828   23.1125 H   0  0  0  0  0  0  0  0  0  0  0  0
   20.6358   18.8752   21.2510 C   0  0  0  0  0  0  0  0  0  0  0  0
   20.5369   17.8170   21.5302 H   0  0  0  0  0  0  0  0  0  0  0  0
   21.5963   18.9678   20.7258 H   0  0  0  0  0  0  0  0  0  0  0  0
   19.4989   19.2628   20.2816 C   0  0  0  0  0  0  0  0  0  0  0  0
   18.5140   19.0677   20.7249 H   0  0  0  0  0  0  0  0  0  0  0  0
   19.5677   18.6770   19.3559 H   0  0  0  0  0  0  0  0  0  0  0  0
   19.5540   20.3261   20.0144 H   0  0  0  0  0  0  0  0  0  0  0  0
  1  2  1  0  0  0  0
  1  3  2  0  0  0  0
  1  4  1  0  0  0  0
  4  5  1  0  0  0  0
  4  6  1  0  0  0  0
  4  7  1  0  0  0  0
  7  8  1  0  0  0  0
  7  9  1  0  0  0  0
  7 10  1  0  0  0  0
 10 11  1  0  0  0  0
 10 12  1  0  0  0  0
 10 13  1  0  0  0  0
 13 14  1  0  0  0  0
 13 15  1  0  0  0  0
 13 16  1  0  0  0  0
M  END
> <VConfSearch Rank>
647

> <Conf_Id>
37

> <Delta U+W>
1.063

> <U+W>
-55.841

> <U>
9.719

> <W>
-65.560

> <W(PB)>
-67.414

> <W(SA)>
1.854

> <Valence>
7.002

> <Coulomb>
2.402

> <VdW>
0.314

> <VdW6>
-5.861

> <VdW12>
6.175

> <Bond>
0.134

> <Angle>
2.733

> <Pdih>
4.133

> <Idih>
0.002

> <Tether>
0.000

$$$$
VeraChem MOL file


 16 15  0  0  0  0  0  0  0  0999 V2000     
   18.9860   20.2975   23.5671 C   0  0  0  0  0  0  0  0  0  0  0  0
   19.2849   21.4285   23.8964 O   0  5  0  0  0  0  0  0  0  0  0  0
   17.8596   19.9659   23.2549 O   0  0  0  0  0  0  0  0  0  0  0  0
   20.0785   19.2316   23.5806 C   0  0  0  0  0  0  0  0  0  0  0  0
   19.6067   18.2435   23.5316 H   0  0  0  0  0  0  0  0  0  0  0  0
   20.5772   19.2891   24.5552 H   0  0  0  0  0  0  0  0  0  0  0  0
   21.1357   19.3900   22.4537 C   0  0  0  0  0  0  0  0  0  0  0  0
   21.6259   20.3671   22.5648 H   0  0  0  0  0  0  0  0  0  0  0  0
   21.9213   18.6343   22.5881 H   0  0  0  0  0  0  0  0  0  0  0  0
   20.5622   19.2787   21.0210 C   0  0  0  0  0  0  0  0  0  0  0  0
   21.3669   19.4860   20.3022 H   0  0  0  0  0  0  0  0  0  0  0  0
   19.7987   20.0529   20.8620 H   0  0  0  0  0  0  0  0  0  0  0  0
   19.9633   17.8903   20.7112 C   0  0  0  0  0  0  0  0  0  0  0  0
   20.6965   17.0945   20.8965 H   0  0  0  0  0  0  0  0  0  0  0  0
   19.6574   17.8306   19.6588 H   0  0  0  0  0  0  0  0  0  0  0  0
   19.0757   17.6935   21.3260 H   0  0  0  0  0  0  0  0  0  0  0  0
  1  2  1  0  0  0  0
  1  3  2  0  0  0  0
  1  4  1  0  0  0  0
  4  5  1  0  0  0  0
  4  6  1  0  0  0  0
  4  7  1  0  0  0  0
  7  8  1  0  0  0  0
  7  9  1  0  0  0  0
  7 10  1  0  0  0  0
 10 11  1  0  0  0  0
 10 12  1  0  0  0  0
 10 13  1  0  0  0  0
 13 14  1  0  0  0  0
 13 15  1  0  0  0  0
 13 16  1  0  0  0  0
M  END
> <VConfSearch Rank>
648

> <Conf_Id>
39

> <Delta U+W>
1.129

> <U+W>
-55.775

> <U>
9.718

> <W>
-65.493

> <W(PB)>
-67.361

> <W(SA)>
1.869

> <Valence>
7.002

> <Coulomb>
2.402

> <VdW>
0.314

> <VdW6>
-5.861

> <VdW12>
6.175

> <Bond>
0.134

> <Angle>
2.734

> <Pdih>
4.133

> <Idih>
0.002

> <Tether>
0.000

$$$$
VeraChem MOL file


 16 15  0  0  0  0  0  0  0  0999 V2000     
   18.7085   19.9668   23.6031 C   0  0  0  0  0  0  0  0  0  0  0  0
   18.6221   21.1602   23.3907 O   0  5  0  0  0  0  0  0  0  0  0  0
   18.9378   19.4979   24.7007 O   0  0  0  0  0  0  0  0  0  0  0  0
   18.4252   19.0067   22.4491 C   0  0  0  0  0  0  0  0  0  0  0  0
   18.1599   19.5884   21.5579 H   0  0  0  0  0  0  0  0  0  0  0  0
   17.5301   18.4403   22.7313 H   0  0  0  0  0  0  0  0  0  0  0  0
   19.5705   18.0087   22.1186 C   0  0  0  0  0  0  0  0  0  0  0  0
   19.9717   17.5784   23.0467 H   0  0  0  0  0  0  0  0  0  0  0  0
   19.1374   17.1692   21.5583 H   0  0  0  0  0  0  0  0  0  0  0  0
   20.7196   18.6013   21.2676 C   0  0  0  0  0  0  0  0  0  0  0  0
   20.3142   19.0321   20.3417 H   0  0  0  0  0  0  0  0  0  0  0  0
   21.3834   17.7810   20.9612 H   0  0  0  0  0  0  0  0  0  0  0  0
   21.5618   19.6609   22.0079 C   0  0  0  0  0  0  0  0  0  0  0  0
   20.9831   20.5745   22.1911 H   0  0  0  0  0  0  0  0  0  0  0  0
   22.4388   19.9405   21.4101 H   0  0  0  0  0  0  0  0  0  0  0  0
   21.9171   19.2779   22.9735 H   0  0  0  0  0  0  0  0  0  0  0  0
  1  2  1  0  0  0  0
  1  3  2  0  0  0  0
  1  4  1  0  0  0  0
  4  5  1  0  0  0  0
  4  6  1  0  0  0  0
  4  7  1  0  0  0  0
  7  8  1  0  0  0  0
  7  9  1  0  0  0  0
  7 10  1  0  0  0  0
 10 11  1  0  0  0  0
 10 12  1  0  0  0  0
 10 13  1  0  0  0  0
 13 14  1  0  0  0  0
 13 15  1  0  0  0  0
 13 16  1  0  0  0  0
M  END
> <VConfSearch Rank>
649

> <Conf_Id>
47

> <Delta U+W>
2.301

> <U+W>
-54.603

> <U>
11.258

> <W>
-65.861

> <W(PB)>
-67.702

> <W(SA)>
1.841

> <Valence>
8.169

> <Coulomb>
2.735

> <VdW>
0.355

> <VdW6>
-6.245

> <VdW12>
6.600

> <Bond>
0.149

> <Angle>
3.168

> <Pdih>
4.840

> <Idih>
0.011

> <Tether>
0.000

$$$$
VeraChem MOL file


 16 15  0  0  0  0  0  0  0  0999 V2000     
   18.4757   18.9538   20.8529 C   0  0  0  0  0  0  0  0  0  0  0  0
   17.4059   19.2810   21.3280 O   0  5  0  0  0  0  0  0  0  0  0  0
   18.6328   17.9481   20.1891 O   0  0  0  0  0  0  0  0  0  0  0  0
   19.6638   19.8990   21.0219 C   0  0  0  0  0  0  0  0  0  0  0  0
   19.3851   20.8368   20.5272 H   0  0  0  0  0  0  0  0  0  0  0  0
   20.5216   19.4963   20.4697 H   0  0  0  0  0  0  0  0  0  0  0  0
   20.0660   20.2044   22.4923 C   0  0  0  0  0  0  0  0  0  0  0  0
   20.6522   21.1333   22.4975 H   0  0  0  0  0  0  0  0  0  0  0  0
   19.1679   20.4097   23.0913 H   0  0  0  0  0  0  0  0  0  0  0  0
   20.9179   19.1051   23.1717 C   0  0  0  0  0  0  0  0  0  0  0  0
   21.2763   19.4901   24.1364 H   0  0  0  0  0  0  0  0  0  0  0  0
   21.8137   18.9014   22.5689 H   0  0  0  0  0  0  0  0  0  0  0  0
   20.1523   17.7897   23.4245 C   0  0  0  0  0  0  0  0  0  0  0  0
   20.7584   17.1029   24.0291 H   0  0  0  0  0  0  0  0  0  0  0  0
   19.9150   17.2785   22.4835 H   0  0  0  0  0  0  0  0  0  0  0  0
   19.2135   17.9770   23.9620 H   0  0  0  0  0  0  0  0  0  0  0  0
  1  2  1  0  0  0  0
  1  3  2  0  0  0  0
  1  4  1  0  0  0  0
  4  5  1  0  0  0  0
  4  6  1  0  0  0  0
  4  7  1  0  0  0  0
  7  8  1  0  0  0  0
  7  9  1  0  0  0  0
  7 10  1  0  0  0  0
 10 11  1  0  0  0  0
 10 12  1  0  0  0  0
 10 13  1  0  0  0  0
 13 14  1  0  0  0  0
 13 15  1  0  0  0  0
 13 16  1  0  0  0  0
M  END
> <VConfSearch Rank>
650

> <Conf_Id>
45

> <Delta U+W>
2.303

> <U+W>
-54.601

> <U>
11.258

> <W>
-65.860

> <W(PB)>
-67.709

> <W(SA)>
1.849

> <Valence>
8.169

> <Coulomb>
2.735

> <VdW>
0.355

> <VdW6>
-6.245

> <VdW12>
6.600

> <Bond>
0.149

> <Angle>
3.168

> <Pdih>
4.840

> <Idih>
0.011

> <Tether>
0.000

$$$$
VeraChem MOL file


 16 15  0  0  0  0  0  0  0  0999 V2000     
   20.5324   21.3106   23.5211 C   0  0  0  0  0  0  0  0  0  0  0  0
   21.7204   21.3285   23.2637 O   0  5  0  0  0  0  0  0  0  0  0  0
   20.0046   22.1099   24.2681 O   0  0  0  0  0  0  0  0  0  0  0  0
   19.6340   20.2447   22.8914 C   0  0  0  0  0  0  0  0  0  0  0  0
   18.8405   20.7672   22.3441 H   0  0  0  0  0  0  0  0  0  0  0  0
   19.1521   19.6975   23.7102 H   0  0  0  0  0  0  0  0  0  0  0  0
   20.3521   19.2457   21.9455 C   0  0  0  0  0  0  0  0  0  0  0  0
   20.8376   19.8001   21.1303 H   0  0  0  0  0  0  0  0  0  0  0  0
   21.1494   18.7293   22.4978 H   0  0  0  0  0  0  0  0  0  0  0  0
   19.3730   18.2085   21.3566 C   0  0  0  0  0  0  0  0  0  0  0  0
   18.5761   18.7236   20.8024 H   0  0  0  0  0  0  0  0  0  0  0  0
   18.8881   17.6522   22.1708 H   0  0  0  0  0  0  0  0  0  0  0  0
   20.0920   17.2194   20.4181 C   0  0  0  0  0  0  0  0  0  0  0  0
   20.5602   17.7464   19.5763 H   0  0  0  0  0  0  0  0  0  0  0  0
   19.3820   16.4893   20.0083 H   0  0  0  0  0  0  0  0  0  0  0  0
   20.8745   16.6670   20.9548 H   0  0  0  0  0  0  0  0  0  0  0  0
  1  2  1  0  0  0  0
  1  3  2  0  0  0  0
  1  4  1  0  0  0  0
  4  5  1  0  0  0  0
  4  6  1  0  0  0  0
  4  7  1  0  0  0  0
  7  8  1  0  0  0  0
  7  9  1  0  0  0  0
  7 10  1  0  0  0  0
 10 11  1  0  0  0  0
 10 12  1  0  0  0  0
 10 13  1  0  0  0  0
 13 14  1  0  0  0  0
 13 15  1  0  0  0  0
 13 16  1  0  0  0  0
M  END
> <VConfSearch Rank>
651

> <Conf_Id>
0

> <Delta U+W>
0.000

> <U+W>
-56.904

> <U>
7.329

> <W>
-64.233

> <W(PB)>
-66.148

> <W(SA)>
1.915

> <Valence>
6.755

> <Coulomb>
-0.421

> <VdW>
0.995

> <VdW6>
-4.495

> <VdW12>
5.490

> <Bond>
0.106

> <Angle>
2.715

> <Pdih>
3.934

> <Idih>
0.000

> <Tether>
0.000

$$$$
VeraChem MOL file


 16 15  0  0  0  0  0  0  0  0999 V2000     
   20.4750   21.8075   22.1997 C   0  0  0  0  0  0  0  0  0  0  0  0
   20.5886   22.4078   21.1497 O   0  5  0  0  0  0  0  0  0  0  0  0
   20.0191   22.3028   23.2110 O   0  0  0  0  0  0  0  0  0  0  0  0
   20.9115   20.3474   22.2459 C   0  0  0  0  0  0  0  0  0  0  0  0
   21.2848   20.1348   23.2550 H   0  0  0  0  0  0  0  0  0  0  0  0
   21.7543   20.2214   21.5555 H   0  0  0  0  0  0  0  0  0  0  0  0
   19.7710   19.3655   21.8808 C   0  0  0  0  0  0  0  0  0  0  0  0
   18.9301   19.5123   22.5729 H   0  0  0  0  0  0  0  0  0  0  0  0
   19.3995   19.5990   20.8733 H   0  0  0  0  0  0  0  0  0  0  0  0
   20.2389   17.8962   21.9351 C   0  0  0  0  0  0  0  0  0  0  0  0
   20.6098   17.6622   22.9427 H   0  0  0  0  0  0  0  0  0  0  0  0
   21.0793   17.7489   21.2427 H   0  0  0  0  0  0  0  0  0  0  0  0
   19.0988   16.9249   21.5707 C   0  0  0  0  0  0  0  0  0  0  0  0
   18.7295   17.1162   20.5546 H   0  0  0  0  0  0  0  0  0  0  0  0
   18.2564   17.0289   22.2671 H   0  0  0  0  0  0  0  0  0  0  0  0
   19.4480   15.8850   21.6142 H   0  0  0  0  0  0  0  0  0  0  0  0
  1  2  1  0  0  0  0
  1  3  2  0  0  0  0
  1  4  1  0  0  0  0
  4  5  1  0  0  0  0
  4  6  1  0  0  0  0
  4  7  1  0  0  0  0
  7  8  1  0  0  0  0
  7  9  1  0  0  0  0
  7 10  1  0  0  0  0
 10 11  1  0  0  0  0
 10 12  1  0  0  0  0
 10 13  1  0  0  0  0
 13 14  1  0  0  0  0
 13 15  1  0  0  0  0
 13 16  1  0  0  0  0
M  END
> <VConfSearch Rank>
652

> <Conf_Id>
22

> <Delta U+W>
-1.185

> <U+W>
-58.089

> <U>
6.298

> <W>
-64.387

> <W(PB)>
-66.329

> <W(SA)>
1.942

> <Valence>
6.246

> <Coulomb>
-0.408

> <VdW>
0.460

> <VdW6>
-4.207

> <VdW12>
4.667

> <Bond>
0.072

> <Angle>
2.246

> <Pdih>
3.928

> <Idih>
0.001

> <Tether>
0.000

$$$$
VeraChem MOL file


 16 15  0  0  0  0  0  0  0  0999 V2000     
   20.6676   19.8475   19.5989 C   0  0  0  0  0  0  0  0  0  0  0  0
   20.9347   19.0361   18.7350 O   0  5  0  0  0  0  0  0  0  0  0  0
   21.0392   21.0039   19.5720 O   0  0  0  0  0  0  0  0  0  0  0  0
   19.8381   19.3838   20.7911 C   0  0  0  0  0  0  0  0  0  0  0  0
   19.1480   18.6056   20.4437 H   0  0  0  0  0  0  0  0  0  0  0  0
   19.2299   20.2320   21.1255 H   0  0  0  0  0  0  0  0  0  0  0  0
   20.7086   18.8447   21.9559 C   0  0  0  0  0  0  0  0  0  0  0  0
   21.3677   18.0555   21.5682 H   0  0  0  0  0  0  0  0  0  0  0  0
   21.3654   19.6452   22.3235 H   0  0  0  0  0  0  0  0  0  0  0  0
   19.8805   18.2691   23.1278 C   0  0  0  0  0  0  0  0  0  0  0  0
   20.5668   17.8127   23.8545 H   0  0  0  0  0  0  0  0  0  0  0  0
   19.2322   17.4607   22.7625 H   0  0  0  0  0  0  0  0  0  0  0  0
   19.0266   19.3332   23.8499 C   0  0  0  0  0  0  0  0  0  0  0  0
   18.2482   19.7375   23.1908 H   0  0  0  0  0  0  0  0  0  0  0  0
   19.6501   20.1666   24.1991 H   0  0  0  0  0  0  0  0  0  0  0  0
   18.5271   18.8956   24.7240 H   0  0  0  0  0  0  0  0  0  0  0  0
  1  2  1  0  0  0  0
  1  3  2  0  0  0  0
  1  4  1  0  0  0  0
  4  5  1  0  0  0  0
  4  6  1  0  0  0  0
  4  7  1  0  0  0  0
  7  8  1  0  0  0  0
  7  9  1  0  0  0  0
  7 10  1  0  0  0  0
 10 11  1  0  0  0  0
 10 12  1  0  0  0  0
 10 13  1  0  0  0  0
 13 14  1  0  0  0  0
 13 15  1  0  0  0  0
 13 16  1  0  0  0  0
M  END
> <VConfSearch Rank>
653

> <Conf_Id>
36

> <Delta U+W>
-0.427

> <U+W>
-57.331

> <U>
7.263

> <W>
-64.594

> <W(PB)>
-66.513

> <W(SA)>
1.920

> <Valence>
6.734

> <Coulomb>
-0.068

> <VdW>
0.598

> <VdW6>
-4.819

> <VdW12>
5.417

> <Bond>
0.107

> <Angle>
2.469

> <Pdih>
4.157

> <Idih>
0.001

> <Tether>
0.000

$$$$
VeraChem MOL file


 16 15  0  0  0  0  0  0  0  0999 V2000     
   21.1232   20.9574   20.5544 C   0  0  0  0  0  0  0  0  0  0  0  0
   21.9421   21.5753   21.2053 O   0  5  0  0  0  0  0  0  0  0  0  0
   20.6490   21.3634   19.5122 O   0  0  0  0  0  0  0  0  0  0  0  0
   20.6498   19.6084   21.0841 C   0  0  0  0  0  0  0  0  0  0  0  0
   21.4890   19.1442   21.6147 H   0  0  0  0  0  0  0  0  0  0  0  0
   20.4144   18.9688   20.2250 H   0  0  0  0  0  0  0  0  0  0  0  0
   19.4155   19.7278   22.0154 C   0  0  0  0  0  0  0  0  0  0  0  0
   19.6761   20.3350   22.8933 H   0  0  0  0  0  0  0  0  0  0  0  0
   18.6237   20.2736   21.4840 H   0  0  0  0  0  0  0  0  0  0  0  0
   18.8556   18.3613   22.4732 C   0  0  0  0  0  0  0  0  0  0  0  0
   18.5840   17.7584   21.5957 H   0  0  0  0  0  0  0  0  0  0  0  0
   17.9258   18.5305   23.0337 H   0  0  0  0  0  0  0  0  0  0  0  0
   19.8365   17.5691   23.3639 C   0  0  0  0  0  0  0  0  0  0  0  0
   20.7368   17.2781   22.8084 H   0  0  0  0  0  0  0  0  0  0  0  0
   19.3627   16.6504   23.7333 H   0  0  0  0  0  0  0  0  0  0  0  0
   20.1449   18.1635   24.2338 H   0  0  0  0  0  0  0  0  0  0  0  0
  1  2  1  0  0  0  0
  1  3  2  0  0  0  0
  1  4  1  0  0  0  0
  4  5  1  0  0  0  0
  4  6  1  0  0  0  0
  4  7  1  0  0  0  0
  7  8  1  0  0  0  0
  7  9  1  0  0  0  0
  7 10  1  0  0  0  0
 10 11  1  0  0  0  0
 10 12  1  0  0  0  0
 10 13  1  0  0  0  0
 13 14  1  0  0  0  0
 13 15  1  0  0  0  0
 13 16  1  0  0  0  0
M  END
> <VConfSearch Rank>
654

> <Conf_Id>
17

> <Delta U+W>
-0.432

> <U+W>
-57.336

> <U>
7.263

> <W>
-64.599

> <W(PB)>
-66.503

> <W(SA)>
1.904

> <Valence>
6.734

> <Coulomb>
-0.068

> <VdW>
0.598

> <VdW6>
-4.819

> <VdW12>
5.417

> <Bond>
0.107

> <Angle>
2.469

> <Pdih>
4.157

> <Idih>
0.001

> <Tether>
0.000

$$$$
VeraChem MOL file


 16 15  0  0  0  0  0  0  0  0999 V2000     
   21.4353   20.8486   23.0830 C   0  0  0  0  0  0  0  0  0  0  0  0
   20.8712   21.4209   23.9945 O   0  5  0  0  0  0  0  0  0  0  0  0
   22.5692   20.4190   23.1599 O   0  0  0  0  0  0  0  0  0  0  0  0
   20.6859   20.6828   21.7638 C   0  0  0  0  0  0  0  0  0  0  0  0
   21.4148   20.4810   20.9695 H   0  0  0  0  0  0  0  0  0  0  0  0
   20.2191   21.6466   21.5282 H   0  0  0  0  0  0  0  0  0  0  0  0
   19.6009   19.5751   21.7881 C   0  0  0  0  0  0  0  0  0  0  0  0
   18.8947   19.7748   22.6061 H   0  0  0  0  0  0  0  0  0  0  0  0
   19.0241   19.6205   20.8543 H   0  0  0  0  0  0  0  0  0  0  0  0
   20.1996   18.1608   21.9478 C   0  0  0  0  0  0  0  0  0  0  0  0
   20.7623   18.0973   22.8896 H   0  0  0  0  0  0  0  0  0  0  0  0
   20.9147   17.9672   21.1363 H   0  0  0  0  0  0  0  0  0  0  0  0
   19.1034   17.0770   21.9349 C   0  0  0  0  0  0  0  0  0  0  0  0
   18.3912   17.2294   22.7565 H   0  0  0  0  0  0  0  0  0  0  0  0
   19.5453   16.0788   22.0502 H   0  0  0  0  0  0  0  0  0  0  0  0
   18.5453   17.0935   20.9896 H   0  0  0  0  0  0  0  0  0  0  0  0
  1  2  1  0  0  0  0
  1  3  2  0  0  0  0
  1  4  1  0  0  0  0
  4  5  1  0  0  0  0
  4  6  1  0  0  0  0
  4  7  1  0  0  0  0
  7  8  1  0  0  0  0
  7  9  1  0  0  0  0
  7 10  1  0  0  0  0
 10 11  1  0  0  0  0
 10 12  1  0  0  0  0
 10 13  1  0  0  0  0
 13 14  1  0  0  0  0
 13 15  1  0  0  0  0
 13 16  1  0  0  0  0
M  END
> <VConfSearch Rank>
655

> <Conf_Id>
19

> <Delta U+W>
0.048

> <U+W>
-56.856

> <U>
8.276

> <W>
-65.132

> <W(PB)>
-67.031

> <W(SA)>
1.899

> <Valence>
6.513

> <Coulomb>
1.428

> <VdW>
0.335

> <VdW6>
-5.021

> <VdW12>
5.356

> <Bond>
0.092

> <Angle>
2.417

> <Pdih>
4.003

> <Idih>
0.001

> <Tether>
0.000

$$$$
VeraChem MOL file


 16 15  0  0  0  0  0  0  0  0999 V2000     
   21.3563   19.7116   23.8449 C   0  0  0  0  0  0  0  0  0  0  0  0
   22.4954   19.9089   23.4708 O   0  5  0  0  0  0  0  0  0  0  0  0
   21.0723   18.9862   24.7774 O   0  0  0  0  0  0  0  0  0  0  0  0
   20.2247   20.4330   23.1178 C   0  0  0  0  0  0  0  0  0  0  0  0
   20.5291   21.4789   22.9930 H   0  0  0  0  0  0  0  0  0  0  0  0
   19.3384   20.4357   23.7640 H   0  0  0  0  0  0  0  0  0  0  0  0
   19.8755   19.8274   21.7335 C   0  0  0  0  0  0  0  0  0  0  0  0
   19.1565   20.4858   21.2276 H   0  0  0  0  0  0  0  0  0  0  0  0
   20.7785   19.8048   21.1076 H   0  0  0  0  0  0  0  0  0  0  0  0
   19.2775   18.4078   21.8401 C   0  0  0  0  0  0  0  0  0  0  0  0
   18.3819   18.4297   22.4763 H   0  0  0  0  0  0  0  0  0  0  0  0
   19.9971   17.7347   22.3269 H   0  0  0  0  0  0  0  0  0  0  0  0
   18.9085   17.8432   20.4540 C   0  0  0  0  0  0  0  0  0  0  0  0
   18.1634   18.4779   19.9566 H   0  0  0  0  0  0  0  0  0  0  0  0
   18.4862   16.8343   20.5474 H   0  0  0  0  0  0  0  0  0  0  0  0
   19.7935   17.7817   19.8070 H   0  0  0  0  0  0  0  0  0  0  0  0
  1  2  1  0  0  0  0
  1  3  2  0  0  0  0
  1  4  1  0  0  0  0
  4  5  1  0  0  0  0
  4  6  1  0  0  0  0
  4  7  1  0  0  0  0
  7  8  1  0  0  0  0
  7  9  1  0  0  0  0
  7 10  1  0  0  0  0
 10 11  1  0  0  0  0
 10 12  1  0  0  0  0
 10 13  1  0  0  0  0
 13 14  1  0  0  0  0
 13 15  1  0  0  0  0
 13 16  1  0  0  0  0
M  END
> <VConfSearch Rank>
656

> <Conf_Id>
20

> <Delta U+W>
-0.010

> <U+W>
-56.914

> <U>
8.277

> <W>
-65.191

> <W(PB)>
-67.081

> <W(SA)>
1.890

> <Valence>
6.513

> <Coulomb>
1.429

> <VdW>
0.335

> <VdW6>
-5.021

> <VdW12>
5.356

> <Bond>
0.092

> <Angle>
2.417

> <Pdih>
4.002

> <Idih>
0.001

> <Tether>
0.000

$$$$
VeraChem MOL file


 16 15  0  0  0  0  0  0  0  0999 V2000     
   19.4531   20.1974   24.0103 C   0  0  0  0  0  0  0  0  0  0  0  0
   19.1294   21.3679   24.0558 O   0  5  0  0  0  0  0  0  0  0  0  0
   20.2965   19.7067   24.7342 O   0  0  0  0  0  0  0  0  0  0  0  0
   18.7362   19.2907   23.0134 C   0  0  0  0  0  0  0  0  0  0  0  0
   17.6593   19.4447   23.1494 H   0  0  0  0  0  0  0  0  0  0  0  0
   18.9362   18.2467   23.2803 H   0  0  0  0  0  0  0  0  0  0  0  0
   19.1087   19.5575   21.5292 C   0  0  0  0  0  0  0  0  0  0  0  0
   18.4907   18.9200   20.8827 H   0  0  0  0  0  0  0  0  0  0  0  0
   18.8460   20.5950   21.2806 H   0  0  0  0  0  0  0  0  0  0  0  0
   20.6016   19.3261   21.1948 C   0  0  0  0  0  0  0  0  0  0  0  0
   21.2297   19.9841   21.8113 H   0  0  0  0  0  0  0  0  0  0  0  0
   20.7784   19.6192   20.1508 H   0  0  0  0  0  0  0  0  0  0  0  0
   21.0474   17.8604   21.3829 C   0  0  0  0  0  0  0  0  0  0  0  0
   21.0035   17.5634   22.4385 H   0  0  0  0  0  0  0  0  0  0  0  0
   22.0831   17.7281   21.0441 H   0  0  0  0  0  0  0  0  0  0  0  0
   20.4118   17.1777   20.8041 H   0  0  0  0  0  0  0  0  0  0  0  0
  1  2  1  0  0  0  0
  1  3  2  0  0  0  0
  1  4  1  0  0  0  0
  4  5  1  0  0  0  0
  4  6  1  0  0  0  0
  4  7  1  0  0  0  0
  7  8  1  0  0  0  0
  7  9  1  0  0  0  0
  7 10  1  0  0  0  0
 10 11  1  0  0  0  0
 10 12  1  0  0  0  0
 10 13  1  0  0  0  0
 13 14  1  0  0  0  0
 13 15  1  0  0  0  0
 13 16  1  0  0  0  0
M  END
> <VConfSearch Rank>
657

> <Conf_Id>
37

> <Delta U+W>
1.063

> <U+W>
-55.841

> <U>
9.719

> <W>
-65.560

> <W(PB)>
-67.414

> <W(SA)>
1.854

> <Valence>
7.002

> <Coulomb>
2.402

> <VdW>
0.314

> <VdW6>
-5.861

> <VdW12>
6.175

> <Bond>
0.134

> <Angle>
2.733

> <Pdih>
4.133

> <Idih>
0.002

> <Tether>
0.000

$$$$
VeraChem MOL file


 16 15  0  0  0  0  0  0  0  0999 V2000     
   20.6900   18.4301   24.1261 C   0  0  0  0  0  0  0  0  0  0  0  0
   21.8360   18.1778   24.4422 O   0  5  0  0  0  0  0  0  0  0  0  0
   19.9308   19.0780   24.8191 O   0  0  0  0  0  0  0  0  0  0  0  0
   20.1688   17.8731   22.8041 C   0  0  0  0  0  0  0  0  0  0  0  0
   19.0755   17.9496   22.7966 H   0  0  0  0  0  0  0  0  0  0  0  0
   20.4049   16.8027   22.7862 H   0  0  0  0  0  0  0  0  0  0  0  0
   20.7738   18.5525   21.5451 C   0  0  0  0  0  0  0  0  0  0  0  0
   21.8634   18.4105   21.5568 H   0  0  0  0  0  0  0  0  0  0  0  0
   20.4061   18.0385   20.6467 H   0  0  0  0  0  0  0  0  0  0  0  0
   20.4682   20.0646   21.4273 C   0  0  0  0  0  0  0  0  0  0  0  0
   21.0045   20.4658   20.5564 H   0  0  0  0  0  0  0  0  0  0  0  0
   20.8624   20.5958   22.3048 H   0  0  0  0  0  0  0  0  0  0  0  0
   18.9636   20.3710   21.2699 C   0  0  0  0  0  0  0  0  0  0  0  0
   18.5366   19.8235   20.4196 H   0  0  0  0  0  0  0  0  0  0  0  0
   18.8067   21.4433   21.0955 H   0  0  0  0  0  0  0  0  0  0  0  0
   18.4050   20.0971   22.1740 H   0  0  0  0  0  0  0  0  0  0  0  0
  1  2  1  0  0  0  0
  1  3  2  0  0  0  0
  1  4  1  0  0  0  0
  4  5  1  0  0  0  0
  4  6  1  0  0  0  0
  4  7  1  0  0  0  0
  7  8  1  0  0  0  0
  7  9  1  0  0  0  0
  7 10  1  0  0  0  0
 10 11  1  0  0  0  0
 10 12  1  0  0  0  0
 10 13  1  0  0  0  0
 13 14  1  0  0  0  0
 13 15  1  0  0  0  0
 13 16  1  0  0  0  0
M  END
> <VConfSearch Rank>
658

> <Conf_Id>
39

> <Delta U+W>
1.129

> <U+W>
-55.775

> <U>
9.718

> <W>
-65.493

> <W(PB)>
-67.361

> <W(SA)>
1.869

> <Valence>
7.002

> <Coulomb>
2.402

> <VdW>
0.314

> <VdW6>
-5.861

> <VdW12>
6.175

> <Bond>
0.134

> <Angle>
2.734

> <Pdih>
4.133

> <Idih>
0.002

> <Tether>
0.000

$$$$
VeraChem MOL file


 16 15  0  0  0  0  0  0  0  0999 V2000     
   19.1596   20.5755   21.1742 C   0  0  0  0  0  0  0  0  0  0  0  0
   17.9911   20.7788   21.4391 O   0  5  0  0  0  0  0  0  0  0  0  0
   19.5791   20.4695   20.0384 O   0  0  0  0  0  0  0  0  0  0  0  0
   20.1643   20.5417   22.3245 C   0  0  0  0  0  0  0  0  0  0  0  0
   19.6350   20.7310   23.2663 H   0  0  0  0  0  0  0  0  0  0  0  0
   20.8403   21.3906   22.1691 H   0  0  0  0  0  0  0  0  0  0  0  0
   21.0064   19.2394   22.4331 C   0  0  0  0  0  0  0  0  0  0  0  0
   21.3672   18.9427   21.4385 H   0  0  0  0  0  0  0  0  0  0  0  0
   21.9034   19.4642   23.0258 H   0  0  0  0  0  0  0  0  0  0  0  0
   20.2786   18.0529   23.1101 C   0  0  0  0  0  0  0  0  0  0  0  0
   19.9178   18.3542   24.1032 H   0  0  0  0  0  0  0  0  0  0  0  0
   21.0079   17.2484   23.2780 H   0  0  0  0  0  0  0  0  0  0  0  0
   19.1069   17.4855   22.2823 C   0  0  0  0  0  0  0  0  0  0  0  0
   18.2755   18.1987   22.2257 H   0  0  0  0  0  0  0  0  0  0  0  0
   18.7219   16.5661   22.7419 H   0  0  0  0  0  0  0  0  0  0  0  0
   19.4264   17.2457   21.2597 H   0  0  0  0  0  0  0  0  0  0  0  0
  1  2  1  0  0  0  0
  1  3  2  0  0  0  0
  1  4  1  0  0  0  0
  4  5  1  0  0  0  0
  4  6  1  0  0  0  0
  4  7  1  0  0  0  0
  7  8  1  0  0  0  0
  7  9  1  0  0  0  0
  7 10  1  0  0  0  0
 10 11  1  0  0  0  0
 10 12  1  0  0  0  0
 10 13  1  0  0  0  0
 13 14  1  0  0  0  0
 13 15  1  0  0  0  0
 13 16  1  0  0  0  0
M  END
> <VConfSearch Rank>
659

> <Conf_Id>
47

> <Delta U+W>
2.301

> <U+W>
-54.603

> <U>
11.258

> <W>
-65.861

> <W(PB)>
-67.702

> <W(SA)>
1.841

> <Valence>
8.169

> <Coulomb>
2.735

> <VdW>
0.355

> <VdW6>
-6.245

> <VdW12>
6.600

> <Bond>
0.149

> <Angle>
3.168

> <Pdih>
4.840

> <Idih>
0.011

> <Tether>
0.000

$$$$
VeraChem MOL file


 16 15  0  0  0  0  0  0  0  0999 V2000     
   18.0526   19.2754   23.0591 C   0  0  0  0  0  0  0  0  0  0  0  0
   17.2321   19.2012   22.1655 O   0  5  0  0  0  0  0  0  0  0  0  0
   18.0237   20.1284   23.9241 O   0  0  0  0  0  0  0  0  0  0  0  0
   19.1226   18.1891   23.1530 C   0  0  0  0  0  0  0  0  0  0  0  0
   18.5899   17.2434   23.3066 H   0  0  0  0  0  0  0  0  0  0  0  0
   19.7255   18.3589   24.0533 H   0  0  0  0  0  0  0  0  0  0  0  0
   20.0428   18.0534   21.9072 C   0  0  0  0  0  0  0  0  0  0  0  0
   20.4989   17.0544   21.9300 H   0  0  0  0  0  0  0  0  0  0  0  0
   19.4389   18.0896   20.9899 H   0  0  0  0  0  0  0  0  0  0  0  0
   21.1869   19.0930   21.8316 C   0  0  0  0  0  0  0  0  0  0  0  0
   21.8607   18.8087   21.0116 H   0  0  0  0  0  0  0  0  0  0  0  0
   21.7870   19.0549   22.7511 H   0  0  0  0  0  0  0  0  0  0  0  0
   20.7023   20.5372   21.5875 C   0  0  0  0  0  0  0  0  0  0  0  0
   21.5558   21.2027   21.4043 H   0  0  0  0  0  0  0  0  0  0  0  0
   20.1598   20.9288   22.4566 H   0  0  0  0  0  0  0  0  0  0  0  0
   20.0386   20.5881   20.7145 H   0  0  0  0  0  0  0  0  0  0  0  0
  1  2  1  0  0  0  0
  1  3  2  0  0  0  0
  1  4  1  0  0  0  0
  4  5  1  0  0  0  0
  4  6  1  0  0  0  0
  4  7  1  0  0  0  0
  7  8  1  0  0  0  0
  7  9  1  0  0  0  0
  7 10  1  0  0  0  0
 10 11  1  0  0  0  0
 10 12  1  0  0  0  0
 10 13  1  0  0  0  0
 13 14  1  0  0  0  0
 13 15  1  0  0  0  0
 13 16  1  0  0  0  0
M  END
> <VConfSearch Rank>
660

> <Conf_Id>
45

> <Delta U+W>
2.303

> <U+W>
-54.601

> <U>
11.258

> <W>
-65.860

> <W(PB)>
-67.709

> <W(SA)>
1.849

> <Valence>
8.169

> <Coulomb>
2.735

> <VdW>
0.355

> <VdW6>
-6.245

> <VdW12>
6.600

> <Bond>
0.149

> <Angle>
3.168

> <Pdih>
4.840

> <Idih>
0.011

> <Tether>
0.000

$$$$
VeraChem MOL file


 16 15  0  0  0  0  0  0  0  0999 V2000     
   17.8846   20.5753   22.9455 C   0  0  0  0  0  0  0  0  0  0  0  0
   17.0368   19.9454   22.3437 O   0  5  0  0  0  0  0  0  0  0  0  0
   17.6203   21.4986   23.6891 O   0  0  0  0  0  0  0  0  0  0  0  0
   19.3615   20.2132   22.7795 C   0  0  0  0  0  0  0  0  0  0  0  0
   19.7569   19.9864   23.7767 H   0  0  0  0  0  0  0  0  0  0  0  0
   19.8809   21.1115   22.4253 H   0  0  0  0  0  0  0  0  0  0  0  0
   19.6507   19.0285   21.8197 C   0  0  0  0  0  0  0  0  0  0  0  0
   19.1234   18.1330   22.1766 H   0  0  0  0  0  0  0  0  0  0  0  0
   19.2476   19.2593   20.8238 H   0  0  0  0  0  0  0  0  0  0  0  0
   21.1615   18.7330   21.7123 C   0  0  0  0  0  0  0  0  0  0  0  0
   21.5655   18.5004   22.7073 H   0  0  0  0  0  0  0  0  0  0  0  0
   21.6898   19.6274   21.3537 H   0  0  0  0  0  0  0  0  0  0  0  0
   21.4422   17.5557   20.7578 C   0  0  0  0  0  0  0  0  0  0  0  0
   20.9508   16.6390   21.1097 H   0  0  0  0  0  0  0  0  0  0  0  0
   22.5203   17.3589   20.6929 H   0  0  0  0  0  0  0  0  0  0  0  0
   21.0760   17.7743   19.7461 H   0  0  0  0  0  0  0  0  0  0  0  0
  1  2  1  0  0  0  0
  1  3  2  0  0  0  0
  1  4  1  0  0  0  0
  4  5  1  0  0  0  0
  4  6  1  0  0  0  0
  4  7  1  0  0  0  0
  7  8  1  0  0  0  0
  7  9  1  0  0  0  0
  7 10  1  0  0  0  0
 10 11  1  0  0  0  0
 10 12  1  0  0  0  0
 10 13  1  0  0  0  0
 13 14  1  0  0  0  0
 13 15  1  0  0  0  0
 13 16  1  0  0  0  0
M  END
> <VConfSearch Rank>
661

> <Conf_Id>
0

> <Delta U+W>
0.000

> <U+W>
-56.904

> <U>
7.329

> <W>
-64.233

> <W(PB)>
-66.148

> <W(SA)>
1.915

> <Valence>
6.755

> <Coulomb>
-0.421

> <VdW>
0.995

> <VdW6>
-4.495

> <VdW12>
5.490

> <Bond>
0.106

> <Angle>
2.715

> <Pdih>
3.934

> <Idih>
0.000

> <Tether>
0.000

$$$$
VeraChem MOL file


 16 15  0  0  0  0  0  0  0  0999 V2000     
   18.2075   18.0279   23.6510 C   0  0  0  0  0  0  0  0  0  0  0  0
   18.0813   16.8232   23.5583 O   0  5  0  0  0  0  0  0  0  0  0  0
   18.0467   18.6426   24.6865 O   0  0  0  0  0  0  0  0  0  0  0  0
   18.6071   18.8088   22.4040 C   0  0  0  0  0  0  0  0  0  0  0  0
   18.1472   19.8028   22.4620 H   0  0  0  0  0  0  0  0  0  0  0  0
   18.1757   18.3027   21.5319 H   0  0  0  0  0  0  0  0  0  0  0  0
   20.1415   18.9394   22.2406 C   0  0  0  0  0  0  0  0  0  0  0  0
   20.5599   19.4366   23.1267 H   0  0  0  0  0  0  0  0  0  0  0  0
   20.5885   17.9365   22.1965 H   0  0  0  0  0  0  0  0  0  0  0  0
   20.5184   19.7330   20.9722 C   0  0  0  0  0  0  0  0  0  0  0  0
   20.0720   20.7362   21.0162 H   0  0  0  0  0  0  0  0  0  0  0  0
   20.1006   19.2357   20.0858 H   0  0  0  0  0  0  0  0  0  0  0  0
   22.0467   19.8589   20.8161 C   0  0  0  0  0  0  0  0  0  0  0  0
   22.5164   18.8696   20.7381 H   0  0  0  0  0  0  0  0  0  0  0  0
   22.4876   20.3811   21.6753 H   0  0  0  0  0  0  0  0  0  0  0  0
   22.2975   20.4256   19.9099 H   0  0  0  0  0  0  0  0  0  0  0  0
  1  2  1  0  0  0  0
  1  3  2  0  0  0  0
  1  4  1  0  0  0  0
  4  5  1  0  0  0  0
  4  6  1  0  0  0  0
  4  7  1  0  0  0  0
  7  8  1  0  0  0  0
  7  9  1  0  0  0  0
  7 10  1  0  0  0  0
 10 11  1  0  0  0  0
 10 12  1  0  0  0  0
 10 13  1  0  0  0  0
 13 14  1  0  0  0  0
 13 15  1  0  0  0  0
 13 16  1  0  0  0  0
M  END
> <VConfSearch Rank>
662

> <Conf_Id>
22

> <Delta U+W>
-1.185

> <U+W>
-58.089

> <U>
6.298

> <W>
-64.387

> <W(PB)>
-66.329

> <W(SA)>
1.942

> <Valence>
6.246

> <Coulomb>
-0.408

> <VdW>
0.460

> <VdW6>
-4.207

> <VdW12>
4.667

> <Bond>
0.072

> <Angle>
2.246

> <Pdih>
3.928

> <Idih>
0.001

> <Tether>
0.000

$$$$
VeraChem MOL file


 16 15  0  0  0  0  0  0  0  0999 V2000     
   18.4012   19.7969   23.9463 C   0  0  0  0  0  0  0  0  0  0  0  0
   17.1906   19.7513   23.8546 O   0  5  0  0  0  0  0  0  0  0  0  0
   18.9872   20.4686   24.7717 O   0  0  0  0  0  0  0  0  0  0  0  0
   19.2298   18.9825   22.9590 C   0  0  0  0  0  0  0  0  0  0  0  0
   18.6657   18.0764   22.7072 H   0  0  0  0  0  0  0  0  0  0  0  0
   20.1441   18.6641   23.4725 H   0  0  0  0  0  0  0  0  0  0  0  0
   19.5756   19.7720   21.6697 C   0  0  0  0  0  0  0  0  0  0  0  0
   18.6439   20.1505   21.2268 H   0  0  0  0  0  0  0  0  0  0  0  0
   20.1766   20.6542   21.9303 H   0  0  0  0  0  0  0  0  0  0  0  0
   20.3209   18.9264   20.6115 C   0  0  0  0  0  0  0  0  0  0  0  0
   20.4292   19.5229   19.6952 H   0  0  0  0  0  0  0  0  0  0  0  0
   19.7148   18.0503   20.3422 H   0  0  0  0  0  0  0  0  0  0  0  0
   21.7200   18.4671   21.0747 C   0  0  0  0  0  0  0  0  0  0  0  0
   21.6541   17.7742   21.9228 H   0  0  0  0  0  0  0  0  0  0  0  0
   22.3350   19.3249   21.3769 H   0  0  0  0  0  0  0  0  0  0  0  0
   22.2420   17.9472   20.2609 H   0  0  0  0  0  0  0  0  0  0  0  0
  1  2  1  0  0  0  0
  1  3  2  0  0  0  0
  1  4  1  0  0  0  0
  4  5  1  0  0  0  0
  4  6  1  0  0  0  0
  4  7  1  0  0  0  0
  7  8  1  0  0  0  0
  7  9  1  0  0  0  0
  7 10  1  0  0  0  0
 10 11  1  0  0  0  0
 10 12  1  0  0  0  0
 10 13  1  0  0  0  0
 13 14  1  0  0  0  0
 13 15  1  0  0  0  0
 13 16  1  0  0  0  0
M  END
> <VConfSearch Rank>
663

> <Conf_Id>
36

> <Delta U+W>
-0.427

> <U+W>
-57.331

> <U>
7.263

> <W>
-64.594

> <W(PB)>
-66.513

> <W(SA)>
1.920

> <Valence>
6.734

> <Coulomb>
-0.068

> <VdW>
0.598

> <VdW6>
-4.819

> <VdW12>
5.417

> <Bond>
0.107

> <Angle>
2.469

> <Pdih>
4.157

> <Idih>
0.001

> <Tether>
0.000

$$$$
VeraChem MOL file


 16 15  0  0  0  0  0  0  0  0999 V2000     
   18.5107   21.2827   21.9462 C   0  0  0  0  0  0  0  0  0  0  0  0
   17.3429   21.0252   22.1601 O   0  5  0  0  0  0  0  0  0  0  0  0
   18.8864   22.3133   21.4239 O   0  0  0  0  0  0  0  0  0  0  0  0
   19.5607   20.2481   22.3357 C   0  0  0  0  0  0  0  0  0  0  0  0
   19.2010   19.7270   23.2303 H   0  0  0  0  0  0  0  0  0  0  0  0
   20.4768   20.7816   22.6163 H   0  0  0  0  0  0  0  0  0  0  0  0
   19.8587   19.2365   21.1987 C   0  0  0  0  0  0  0  0  0  0  0  0
   18.9440   18.6783   20.9556 H   0  0  0  0  0  0  0  0  0  0  0  0
   20.1322   19.7944   20.2924 H   0  0  0  0  0  0  0  0  0  0  0  0
   20.9989   18.2487   21.5370 C   0  0  0  0  0  0  0  0  0  0  0  0
   21.9169   18.8065   21.7686 H   0  0  0  0  0  0  0  0  0  0  0  0
   21.2189   17.6447   20.6459 H   0  0  0  0  0  0  0  0  0  0  0  0
   20.6570   17.3025   22.7077 C   0  0  0  0  0  0  0  0  0  0  0  0
   20.5399   17.8547   23.6485 H   0  0  0  0  0  0  0  0  0  0  0  0
   21.4583   16.5662   22.8524 H   0  0  0  0  0  0  0  0  0  0  0  0
   19.7262   16.7546   22.5111 H   0  0  0  0  0  0  0  0  0  0  0  0
  1  2  1  0  0  0  0
  1  3  2  0  0  0  0
  1  4  1  0  0  0  0
  4  5  1  0  0  0  0
  4  6  1  0  0  0  0
  4  7  1  0  0  0  0
  7  8  1  0  0  0  0
  7  9  1  0  0  0  0
  7 10  1  0  0  0  0
 10 11  1  0  0  0  0
 10 12  1  0  0  0  0
 10 13  1  0  0  0  0
 13 14  1  0  0  0  0
 13 15  1  0  0  0  0
 13 16  1  0  0  0  0
M  END
> <VConfSearch Rank>
664

> <Conf_Id>
17

> <Delta U+W>
-0.432

> <U+W>
-57.336

> <U>
7.263

> <W>
-64.599

> <W(PB)>
-66.503

> <W(SA)>
1.904

> <Valence>
6.734

> <Coulomb>
-0.068

> <VdW>
0.598

> <VdW6>
-4.819

> <VdW12>
5.417

> <Bond>
0.107

> <Angle>
2.469

> <Pdih>
4.157

> <Idih>
0.001

> <Tether>
0.000

$$$$
VeraChem MOL file


 16 15  0  0  0  0  0  0  0  0999 V2000     
   18.2585   18.3275   23.2856 C   0  0  0  0  0  0  0  0  0  0  0  0
   17.7990   17.2986   22.8313 O   0  5  0  0  0  0  0  0  0  0  0  0
   18.5055   18.4893   24.4642 O   0  0  0  0  0  0  0  0  0  0  0  0
   18.5161   19.4861   22.3260 C   0  0  0  0  0  0  0  0  0  0  0  0
   18.5861   20.4137   22.9071 H   0  0  0  0  0  0  0  0  0  0  0  0
   17.6337   19.5813   21.6821 H   0  0  0  0  0  0  0  0  0  0  0  0
   19.7811   19.3092   21.4466 C   0  0  0  0  0  0  0  0  0  0  0  0
   19.7100   18.3629   20.8925 H   0  0  0  0  0  0  0  0  0  0  0  0
   19.8100   20.1125   20.6980 H   0  0  0  0  0  0  0  0  0  0  0  0
   21.0862   19.3355   22.2714 C   0  0  0  0  0  0  0  0  0  0  0  0
   21.0775   18.5225   23.0108 H   0  0  0  0  0  0  0  0  0  0  0  0
   21.1498   20.2769   22.8345 H   0  0  0  0  0  0  0  0  0  0  0  0
   22.3286   19.1917   21.3703 C   0  0  0  0  0  0  0  0  0  0  0  0
   22.3053   18.2429   20.8182 H   0  0  0  0  0  0  0  0  0  0  0  0
   23.2468   19.2114   21.9718 H   0  0  0  0  0  0  0  0  0  0  0  0
   22.3829   20.0114   20.6419 H   0  0  0  0  0  0  0  0  0  0  0  0
  1  2  1  0  0  0  0
  1  3  2  0  0  0  0
  1  4  1  0  0  0  0
  4  5  1  0  0  0  0
  4  6  1  0  0  0  0
  4  7  1  0  0  0  0
  7  8  1  0  0  0  0
  7  9  1  0  0  0  0
  7 10  1  0  0  0  0
 10 11  1  0  0  0  0
 10 12  1  0  0  0  0
 10 13  1  0  0  0  0
 13 14  1  0  0  0  0
 13 15  1  0  0  0  0
 13 16  1  0  0  0  0
M  END
> <VConfSearch Rank>
665

> <Conf_Id>
19

> <Delta U+W>
0.048

> <U+W>
-56.856

> <U>
8.276

> <W>
-65.132

> <W(PB)>
-67.031

> <W(SA)>
1.899

> <Valence>
6.513

> <Coulomb>
1.428

> <VdW>
0.335

> <VdW6>
-5.021

> <VdW12>
5.356

> <Bond>
0.092

> <Angle>
2.417

> <Pdih>
4.003

> <Idih>
0.001

> <Tether>
0.000

$$$$
VeraChem MOL file


 16 15  0  0  0  0  0  0  0  0999 V2000     
   20.4098   21.4650   22.0407 C   0  0  0  0  0  0  0  0  0  0  0  0
   21.6053   21.6819   22.0414 O   0  5  0  0  0  0  0  0  0  0  0  0
   19.6267   22.0194   22.7861 O   0  0  0  0  0  0  0  0  0  0  0  0
   19.8614   20.4589   21.0325 C   0  0  0  0  0  0  0  0  0  0  0  0
   20.3235   20.6804   20.0632 H   0  0  0  0  0  0  0  0  0  0  0  0
   18.7842   20.6302   20.9167 H   0  0  0  0  0  0  0  0  0  0  0  0
   20.1302   18.9782   21.4070 C   0  0  0  0  0  0  0  0  0  0  0  0
   19.8289   18.3377   20.5670 H   0  0  0  0  0  0  0  0  0  0  0  0
   21.2098   18.8283   21.5476 H   0  0  0  0  0  0  0  0  0  0  0  0
   19.3715   18.5400   22.6784 C   0  0  0  0  0  0  0  0  0  0  0  0
   18.2935   18.7019   22.5410 H   0  0  0  0  0  0  0  0  0  0  0  0
   19.6805   19.1611   23.5308 H   0  0  0  0  0  0  0  0  0  0  0  0
   19.6294   17.0565   23.0088 C   0  0  0  0  0  0  0  0  0  0  0  0
   19.2981   16.4075   22.1875 H   0  0  0  0  0  0  0  0  0  0  0  0
   19.0841   16.7617   23.9148 H   0  0  0  0  0  0  0  0  0  0  0  0
   20.6980   16.8729   23.1815 H   0  0  0  0  0  0  0  0  0  0  0  0
  1  2  1  0  0  0  0
  1  3  2  0  0  0  0
  1  4  1  0  0  0  0
  4  5  1  0  0  0  0
  4  6  1  0  0  0  0
  4  7  1  0  0  0  0
  7  8  1  0  0  0  0
  7  9  1  0  0  0  0
  7 10  1  0  0  0  0
 10 11  1  0  0  0  0
 10 12  1  0  0  0  0
 10 13  1  0  0  0  0
 13 14  1  0  0  0  0
 13 15  1  0  0  0  0
 13 16  1  0  0  0  0
M  END
> <VConfSearch Rank>
666

> <Conf_Id>
20

> <Delta U+W>
-0.010

> <U+W>
-56.914

> <U>
8.277

> <W>
-65.191

> <W(PB)>
-67.081

> <W(SA)>
1.890

> <Valence>
6.513

> <Coulomb>
1.429

> <VdW>
0.335

> <VdW6>
-5.021

> <VdW12>
5.356

> <Bond>
0.092

> <Angle>
2.417

> <Pdih>
4.002

> <Idih>
0.001

> <Tether>
0.000

$$$$
VeraChem MOL file


 16 15  0  0  0  0  0  0  0  0999 V2000     
   20.7215   17.8345   20.7166 C   0  0  0  0  0  0  0  0  0  0  0  0
   21.3187   18.2239   19.7325 O   0  5  0  0  0  0  0  0  0  0  0  0
   19.8759   16.9625   20.6860 O   0  0  0  0  0  0  0  0  0  0  0  0
   21.0789   18.4513   22.0662 C   0  0  0  0  0  0  0  0  0  0  0  0
   22.1696   18.4054   22.1664 H   0  0  0  0  0  0  0  0  0  0  0  0
   20.6676   17.8195   22.8618 H   0  0  0  0  0  0  0  0  0  0  0  0
   20.6098   19.9221   22.2375 C   0  0  0  0  0  0  0  0  0  0  0  0
   20.9774   20.3078   23.1979 H   0  0  0  0  0  0  0  0  0  0  0  0
   21.0821   20.5360   21.4580 H   0  0  0  0  0  0  0  0  0  0  0  0
   19.0764   20.1151   22.1648 C   0  0  0  0  0  0  0  0  0  0  0  0
   18.7005   19.7647   21.1935 H   0  0  0  0  0  0  0  0  0  0  0  0
   18.8538   21.1899   22.2128 H   0  0  0  0  0  0  0  0  0  0  0  0
   18.3181   19.3982   23.3021 C   0  0  0  0  0  0  0  0  0  0  0  0
   18.4130   18.3081   23.2184 H   0  0  0  0  0  0  0  0  0  0  0  0
   17.2486   19.6418   23.2631 H   0  0  0  0  0  0  0  0  0  0  0  0
   18.6997   19.7049   24.2847 H   0  0  0  0  0  0  0  0  0  0  0  0
  1  2  1  0  0  0  0
  1  3  2  0  0  0  0
  1  4  1  0  0  0  0
  4  5  1  0  0  0  0
  4  6  1  0  0  0  0
  4  7  1  0  0  0  0
  7  8  1  0  0  0  0
  7  9  1  0  0  0  0
  7 10  1  0  0  0  0
 10 11  1  0  0  0  0
 10 12  1  0  0  0  0
 10 13  1  0  0  0  0
 13 14  1  0  0  0  0
 13 15  1  0  0  0  0
 13 16  1  0  0  0  0
M  END
> <VConfSearch Rank>
667

> <Conf_Id>
37

> <Delta U+W>
1.063

> <U+W>
-55.841

> <U>
9.719

> <W>
-65.560

> <W(PB)>
-67.414

> <W(SA)>
1.854

> <Valence>
7.002

> <Coulomb>
2.402

> <VdW>
0.314

> <VdW6>
-5.861

> <VdW12>
6.175

> <Bond>
0.134

> <Angle>
2.733

> <Pdih>
4.133

> <Idih>
0.002

> <Tether>
0.000

$$$$
VeraChem MOL file


 16 15  0  0  0  0  0  0  0  0999 V2000     
   20.6167   19.2960   20.0846 C   0  0  0  0  0  0  0  0  0  0  0  0
   20.2969   20.2478   19.4000 O   0  5  0  0  0  0  0  0  0  0  0  0
   21.7288   18.8065   20.0742 O   0  0  0  0  0  0  0  0  0  0  0  0
   19.5536   18.6623   20.9778 C   0  0  0  0  0  0  0  0  0  0  0  0
   19.9104   17.6795   21.3066 H   0  0  0  0  0  0  0  0  0  0  0  0
   18.6712   18.4790   20.3537 H   0  0  0  0  0  0  0  0  0  0  0  0
   19.1465   19.5333   22.1979 C   0  0  0  0  0  0  0  0  0  0  0  0
   18.7440   20.4877   21.8313 H   0  0  0  0  0  0  0  0  0  0  0  0
   18.3259   19.0392   22.7352 H   0  0  0  0  0  0  0  0  0  0  0  0
   20.3001   19.8243   23.1870 C   0  0  0  0  0  0  0  0  0  0  0  0
   19.9340   20.5100   23.9635 H   0  0  0  0  0  0  0  0  0  0  0  0
   21.1140   20.3503   22.6688 H   0  0  0  0  0  0  0  0  0  0  0  0
   20.8550   18.5540   23.8659 C   0  0  0  0  0  0  0  0  0  0  0  0
   20.0541   17.9904   24.3619 H   0  0  0  0  0  0  0  0  0  0  0  0
   21.6021   18.8198   24.6247 H   0  0  0  0  0  0  0  0  0  0  0  0
   21.3429   17.8941   23.1372 H   0  0  0  0  0  0  0  0  0  0  0  0
  1  2  1  0  0  0  0
  1  3  2  0  0  0  0
  1  4  1  0  0  0  0
  4  5  1  0  0  0  0
  4  6  1  0  0  0  0
  4  7  1  0  0  0  0
  7  8  1  0  0  0  0
  7  9  1  0  0  0  0
  7 10  1  0  0  0  0
 10 11  1  0  0  0  0
 10 12  1  0  0  0  0
 10 13  1  0  0  0  0
 13 14  1  0  0  0  0
 13 15  1  0  0  0  0
 13 16  1  0  0  0  0
M  END
> <VConfSearch Rank>
668

> <Conf_Id>
39

> <Delta U+W>
1.129

> <U+W>
-55.775

> <U>
9.718

> <W>
-65.493

> <W(PB)>
-67.361

> <W(SA)>
1.869

> <Valence>
7.002

> <Coulomb>
2.402

> <VdW>
0.314

> <VdW6>
-5.861

> <VdW12>
6.175

> <Bond>
0.134

> <Angle>
2.734

> <Pdih>
4.133

> <Idih>
0.002

> <Tether>
0.000

$$$$
VeraChem MOL file


 16 15  0  0  0  0  0  0  0  0999 V2000     
   19.3438   20.9969   22.2557 C   0  0  0  0  0  0  0  0  0  0  0  0
   20.0111   21.6535   23.0306 O   0  5  0  0  0  0  0  0  0  0  0  0
   18.1306   21.0497   22.2070 O   0  0  0  0  0  0  0  0  0  0  0  0
   20.0737   20.1297   21.2314 C   0  0  0  0  0  0  0  0  0  0  0  0
   21.1552   20.2575   21.3616 H   0  0  0  0  0  0  0  0  0  0  0  0
   19.8261   20.5414   20.2460 H   0  0  0  0  0  0  0  0  0  0  0  0
   19.7038   18.6199   21.2551 C   0  0  0  0  0  0  0  0  0  0  0  0
   18.6138   18.5025   21.3311 H   0  0  0  0  0  0  0  0  0  0  0  0
   19.9881   18.1861   20.2869 H   0  0  0  0  0  0  0  0  0  0  0  0
   20.4052   17.7992   22.3641 C   0  0  0  0  0  0  0  0  0  0  0  0
   21.4944   17.9208   22.2859 H   0  0  0  0  0  0  0  0  0  0  0  0
   20.2005   16.7338   22.1898 H   0  0  0  0  0  0  0  0  0  0  0  0
   19.9441   18.1582   23.7920 C   0  0  0  0  0  0  0  0  0  0  0  0
   20.2733   19.1649   24.0768 H   0  0  0  0  0  0  0  0  0  0  0  0
   20.3673   17.4545   24.5204 H   0  0  0  0  0  0  0  0  0  0  0  0
   18.8502   18.1161   23.8753 H   0  0  0  0  0  0  0  0  0  0  0  0
  1  2  1  0  0  0  0
  1  3  2  0  0  0  0
  1  4  1  0  0  0  0
  4  5  1  0  0  0  0
  4  6  1  0  0  0  0
  4  7  1  0  0  0  0
  7  8  1  0  0  0  0
  7  9  1  0  0  0  0
  7 10  1  0  0  0  0
 10 11  1  0  0  0  0
 10 12  1  0  0  0  0
 10 13  1  0  0  0  0
 13 14  1  0  0  0  0
 13 15  1  0  0  0  0
 13 16  1  0  0  0  0
M  END
> <VConfSearch Rank>
669

> <Conf_Id>
47

> <Delta U+W>
2.301

> <U+W>
-54.603

> <U>
11.258

> <W>
-65.861

> <W(PB)>
-67.702

> <W(SA)>
1.841

> <Valence>
8.169

> <Coulomb>
2.735

> <VdW>
0.355

> <VdW6>
-6.245

> <VdW12>
6.600

> <Bond>
0.149

> <Angle>
3.168

> <Pdih>
4.840

> <Idih>
0.011

> <Tether>
0.000

$$$$
VeraChem MOL file


 16 15  0  0  0  0  0  0  0  0999 V2000     
   18.7133   17.7729   23.1783 C   0  0  0  0  0  0  0  0  0  0  0  0
   19.4153   16.8799   23.6108 O   0  5  0  0  0  0  0  0  0  0  0  0
   17.6922   17.5756   22.5497 O   0  0  0  0  0  0  0  0  0  0  0  0
   19.0833   19.2155   23.5184 C   0  0  0  0  0  0  0  0  0  0  0  0
   19.0400   19.2960   24.6108 H   0  0  0  0  0  0  0  0  0  0  0  0
   18.3093   19.8849   23.1239 H   0  0  0  0  0  0  0  0  0  0  0  0
   20.4880   19.6729   23.0340 C   0  0  0  0  0  0  0  0  0  0  0  0
   20.7819   20.5499   23.6265 H   0  0  0  0  0  0  0  0  0  0  0  0
   21.2320   18.8951   23.2550 H   0  0  0  0  0  0  0  0  0  0  0  0
   20.5601   20.0677   21.5392 C   0  0  0  0  0  0  0  0  0  0  0  0
   21.5420   20.5216   21.3468 H   0  0  0  0  0  0  0  0  0  0  0  0
   19.8136   20.8441   21.3219 H   0  0  0  0  0  0  0  0  0  0  0  0
   20.3720   18.8814   20.5709 C   0  0  0  0  0  0  0  0  0  0  0  0
   20.5711   19.1938   19.5377 H   0  0  0  0  0  0  0  0  0  0  0  0
   19.3459   18.4955   20.6065 H   0  0  0  0  0  0  0  0  0  0  0  0
   21.0583   18.0602   20.8155 H   0  0  0  0  0  0  0  0  0  0  0  0
  1  2  1  0  0  0  0
  1  3  2  0  0  0  0
  1  4  1  0  0  0  0
  4  5  1  0  0  0  0
  4  6  1  0  0  0  0
  4  7  1  0  0  0  0
  7  8  1  0  0  0  0
  7  9  1  0  0  0  0
  7 10  1  0  0  0  0
 10 11  1  0  0  0  0
 10 12  1  0  0  0  0
 10 13  1  0  0  0  0
 13 14  1  0  0  0  0
 13 15  1  0  0  0  0
 13 16  1  0  0  0  0
M  END
> <VConfSearch Rank>
670

> <Conf_Id>
45

> <Delta U+W>
2.303

> <U+W>
-54.601

> <U>
11.258

> <W>
-65.860

> <W(PB)>
-67.709

> <W(SA)>
1.849

> <Valence>
8.169

> <Coulomb>
2.735

> <VdW>
0.355

> <VdW6>
-6.245

> <VdW12>
6.600

> <Bond>
0.149

> <Angle>
3.168

> <Pdih>
4.840

> <Idih>
0.011

> <Tether>
0.000

$$$$
VeraChem MOL file


 16 15  0  0  0  0  0  0  0  0999 V2000     
   20.6081   20.5768   24.1924 C   0  0  0  0  0  0  0  0  0  0  0  0
   21.5698   21.1291   23.6946 O   0  5  0  0  0  0  0  0  0  0  0  0
   20.2466   20.7778   25.3344 O   0  0  0  0  0  0  0  0  0  0  0  0
   19.7951   19.5767   23.3684 C   0  0  0  0  0  0  0  0  0  0  0  0
   18.7582   19.9327   23.3520 H   0  0  0  0  0  0  0  0  0  0  0  0
   19.7988   18.6249   23.9125 H   0  0  0  0  0  0  0  0  0  0  0  0
   20.2944   19.3518   21.9164 C   0  0  0  0  0  0  0  0  0  0  0  0
   20.2937   20.3097   21.3780 H   0  0  0  0  0  0  0  0  0  0  0  0
   21.3354   19.0005   21.9391 H   0  0  0  0  0  0  0  0  0  0  0  0
   19.4185   18.3308   21.1604 C   0  0  0  0  0  0  0  0  0  0  0  0
   18.3775   18.6818   21.1354 H   0  0  0  0  0  0  0  0  0  0  0  0
   19.4198   17.3718   21.6968 H   0  0  0  0  0  0  0  0  0  0  0  0
   19.9194   18.1117   19.7191 C   0  0  0  0  0  0  0  0  0  0  0  0
   19.8990   19.0500   19.1493 H   0  0  0  0  0  0  0  0  0  0  0  0
   19.2860   17.3835   19.1959 H   0  0  0  0  0  0  0  0  0  0  0  0
   20.9489   17.7303   19.7149 H   0  0  0  0  0  0  0  0  0  0  0  0
  1  2  1  0  0  0  0
  1  3  2  0  0  0  0
  1  4  1  0  0  0  0
  4  5  1  0  0  0  0
  4  6  1  0  0  0  0
  4  7  1  0  0  0  0
  7  8  1  0  0  0  0
  7  9  1  0  0  0  0
  7 10  1  0  0  0  0
 10 11  1  0  0  0  0
 10 12  1  0  0  0  0
 10 13  1  0  0  0  0
 13 14  1  0  0  0  0
 13 15  1  0  0  0  0
 13 16  1  0  0  0  0
M  END
> <VConfSearch Rank>
671

> <Conf_Id>
0

> <Delta U+W>
0.000

> <U+W>
-56.904

> <U>
7.329

> <W>
-64.233

> <W(PB)>
-66.148

> <W(SA)>
1.915

> <Valence>
6.755

> <Coulomb>
-0.421

> <VdW>
0.995

> <VdW6>
-4.495

> <VdW12>
5.490

> <Bond>
0.106

> <Angle>
2.715

> <Pdih>
3.934

> <Idih>
0.000

> <Tether>
0.000

$$$$
VeraChem MOL file


 16 15  0  0  0  0  0  0  0  0999 V2000     
   21.1881   16.6546   21.7149 C   0  0  0  0  0  0  0  0  0  0  0  0
   21.9211   16.5210   20.7554 O   0  5  0  0  0  0  0  0  0  0  0  0
   21.3442   16.0670   22.7667 O   0  0  0  0  0  0  0  0  0  0  0  0
   20.0189   17.6262   21.5989 C   0  0  0  0  0  0  0  0  0  0  0  0
   19.1965   17.2455   22.2166 H   0  0  0  0  0  0  0  0  0  0  0  0
   19.6722   17.6199   20.5584 H   0  0  0  0  0  0  0  0  0  0  0  0
   20.3876   19.0671   22.0300 C   0  0  0  0  0  0  0  0  0  0  0  0
   20.7444   19.0551   23.0693 H   0  0  0  0  0  0  0  0  0  0  0  0
   21.2202   19.4294   21.4110 H   0  0  0  0  0  0  0  0  0  0  0  0
   19.1880   20.0292   21.9030 C   0  0  0  0  0  0  0  0  0  0  0  0
   18.3555   19.6676   22.5224 H   0  0  0  0  0  0  0  0  0  0  0  0
   18.8314   20.0420   20.8637 H   0  0  0  0  0  0  0  0  0  0  0  0
   19.5623   21.4612   22.3336 C   0  0  0  0  0  0  0  0  0  0  0  0
   20.3726   21.8599   21.7094 H   0  0  0  0  0  0  0  0  0  0  0  0
   19.8933   21.4827   23.3803 H   0  0  0  0  0  0  0  0  0  0  0  0
   18.6987   22.1321   22.2374 H   0  0  0  0  0  0  0  0  0  0  0  0
  1  2  1  0  0  0  0
  1  3  2  0  0  0  0
  1  4  1  0  0  0  0
  4  5  1  0  0  0  0
  4  6  1  0  0  0  0
  4  7  1  0  0  0  0
  7  8  1  0  0  0  0
  7  9  1  0  0  0  0
  7 10  1  0  0  0  0
 10 11  1  0  0  0  0
 10 12  1  0  0  0  0
 10 13  1  0  0  0  0
 13 14  1  0  0  0  0
 13 15  1  0  0  0  0
 13 16  1  0  0  0  0
M  END
> <VConfSearch Rank>
672

> <Conf_Id>
22

> <Delta U+W>
-1.185

> <U+W>
-58.089

> <U>
6.298

> <W>
-64.387

> <W(PB)>
-66.329

> <W(SA)>
1.942

> <Valence>
6.246

> <Coulomb>
-0.408

> <VdW>
0.460

> <VdW6>
-4.207

> <VdW12>
4.667

> <Bond>
0.072

> <Angle>
2.246

> <Pdih>
3.928

> <Idih>
0.001

> <Tether>
0.000

$$$$
VeraChem MOL file


 16 15  0  0  0  0  0  0  0  0999 V2000     
   19.9284   20.2522   24.3285 C   0  0  0  0  0  0  0  0  0  0  0  0
   19.1504   19.9114   25.1971 O   0  5  0  0  0  0  0  0  0  0  0  0
   20.4871   21.3308   24.3129 O   0  0  0  0  0  0  0  0  0  0  0  0
   20.2029   19.2810   23.1856 C   0  0  0  0  0  0  0  0  0  0  0  0
   20.1308   18.2607   23.5811 H   0  0  0  0  0  0  0  0  0  0  0  0
   21.2387   19.4313   22.8605 H   0  0  0  0  0  0  0  0  0  0  0  0
   19.2262   19.4626   21.9948 C   0  0  0  0  0  0  0  0  0  0  0  0
   18.1956   19.3925   22.3694 H   0  0  0  0  0  0  0  0  0  0  0  0
   19.3379   20.4740   21.5801 H   0  0  0  0  0  0  0  0  0  0  0  0
   19.4200   18.4147   20.8746 C   0  0  0  0  0  0  0  0  0  0  0  0
   18.6246   18.5449   20.1278 H   0  0  0  0  0  0  0  0  0  0  0  0
   19.2967   17.4036   21.2867 H   0  0  0  0  0  0  0  0  0  0  0  0
   20.7884   18.5243   20.1687 C   0  0  0  0  0  0  0  0  0  0  0  0
   21.6127   18.2889   20.8534 H   0  0  0  0  0  0  0  0  0  0  0  0
   20.9465   19.5361   19.7732 H   0  0  0  0  0  0  0  0  0  0  0  0
   20.8437   17.8205   19.3280 H   0  0  0  0  0  0  0  0  0  0  0  0
  1  2  1  0  0  0  0
  1  3  2  0  0  0  0
  1  4  1  0  0  0  0
  4  5  1  0  0  0  0
  4  6  1  0  0  0  0
  4  7  1  0  0  0  0
  7  8  1  0  0  0  0
  7  9  1  0  0  0  0
  7 10  1  0  0  0  0
 10 11  1  0  0  0  0
 10 12  1  0  0  0  0
 10 13  1  0  0  0  0
 13 14  1  0  0  0  0
 13 15  1  0  0  0  0
 13 16  1  0  0  0  0
M  END
> <VConfSearch Rank>
673

> <Conf_Id>
36

> <Delta U+W>
-0.427

> <U+W>
-57.331

> <U>
7.263

> <W>
-64.594

> <W(PB)>
-66.513

> <W(SA)>
1.920

> <Valence>
6.734

> <Coulomb>
-0.068

> <VdW>
0.598

> <VdW6>
-4.819

> <VdW12>
5.417

> <Bond>
0.107

> <Angle>
2.469

> <Pdih>
4.157

> <Idih>
0.001

> <Tether>
0.000

$$$$
VeraChem MOL file


 16 15  0  0  0  0  0  0  0  0999 V2000     
   22.5300   19.3071   22.2883 C   0  0  0  0  0  0  0  0  0  0  0  0
   23.0652   19.7101   21.2749 O   0  5  0  0  0  0  0  0  0  0  0  0
   23.1212   18.7183   23.1714 O   0  0  0  0  0  0  0  0  0  0  0  0
   21.0313   19.5348   22.4522 C   0  0  0  0  0  0  0  0  0  0  0  0
   20.7813   20.4821   21.9610 H   0  0  0  0  0  0  0  0  0  0  0  0
   20.8204   19.6571   23.5214 H   0  0  0  0  0  0  0  0  0  0  0  0
   20.1802   18.3772   21.8687 C   0  0  0  0  0  0  0  0  0  0  0  0
   20.3679   18.2920   20.7895 H   0  0  0  0  0  0  0  0  0  0  0  0
   20.5147   17.4317   22.3178 H   0  0  0  0  0  0  0  0  0  0  0  0
   18.6639   18.5391   22.1239 C   0  0  0  0  0  0  0  0  0  0  0  0
   18.4748   18.6125   23.2038 H   0  0  0  0  0  0  0  0  0  0  0  0
   18.1489   17.6317   21.7792 H   0  0  0  0  0  0  0  0  0  0  0  0
   18.0530   19.7614   21.4057 C   0  0  0  0  0  0  0  0  0  0  0  0
   18.4577   20.7018   21.8001 H   0  0  0  0  0  0  0  0  0  0  0  0
   16.9644   19.7838   21.5454 H   0  0  0  0  0  0  0  0  0  0  0  0
   18.2545   19.7245   20.3271 H   0  0  0  0  0  0  0  0  0  0  0  0
  1  2  1  0  0  0  0
  1  3  2  0  0  0  0
  1  4  1  0  0  0  0
  4  5  1  0  0  0  0
  4  6  1  0  0  0  0
  4  7  1  0  0  0  0
  7  8  1  0  0  0  0
  7  9  1  0  0  0  0
  7 10  1  0  0  0  0
 10 11  1  0  0  0  0
 10 12  1  0  0  0  0
 10 13  1  0  0  0  0
 13 14  1  0  0  0  0
 13 15  1  0  0  0  0
 13 16  1  0  0  0  0
M  END
> <VConfSearch Rank>
674

> <Conf_Id>
17

> <Delta U+W>
-0.432

> <U+W>
-57.336

> <U>
7.263

> <W>
-64.599

> <W(PB)>
-66.503

> <W(SA)>
1.904

> <Valence>
6.734

> <Coulomb>
-0.068

> <VdW>
0.598

> <VdW6>
-4.819

> <VdW12>
5.417

> <Bond>
0.107

> <Angle>
2.469

> <Pdih>
4.157

> <Idih>
0.001

> <Tether>
0.000

$$$$
VeraChem MOL file


 16 15  0  0  0  0  0  0  0  0999 V2000     
   19.2586   17.0823   22.8777 C   0  0  0  0  0  0  0  0  0  0  0  0
   18.3746   16.6307   22.1770 O   0  5  0  0  0  0  0  0  0  0  0  0
   20.2071   16.4294   23.2655 O   0  0  0  0  0  0  0  0  0  0  0  0
   19.1578   18.5418   23.3124 C   0  0  0  0  0  0  0  0  0  0  0  0
   19.8024   18.6925   24.1870 H   0  0  0  0  0  0  0  0  0  0  0  0
   18.1273   18.7148   23.6448 H   0  0  0  0  0  0  0  0  0  0  0  0
   19.5198   19.5593   22.1995 C   0  0  0  0  0  0  0  0  0  0  0  0
   18.8861   19.3780   21.3202 H   0  0  0  0  0  0  0  0  0  0  0  0
   19.2868   20.5727   22.5536 H   0  0  0  0  0  0  0  0  0  0  0  0
   21.0082   19.4918   21.7944 C   0  0  0  0  0  0  0  0  0  0  0  0
   21.2482   18.4872   21.4189 H   0  0  0  0  0  0  0  0  0  0  0  0
   21.6406   19.6609   22.6769 H   0  0  0  0  0  0  0  0  0  0  0  0
   21.3485   20.5353   20.7120 C   0  0  0  0  0  0  0  0  0  0  0  0
   20.7512   20.3697   19.8057 H   0  0  0  0  0  0  0  0  0  0  0  0
   22.4089   20.4733   20.4350 H   0  0  0  0  0  0  0  0  0  0  0  0
   21.1510   21.5536   21.0718 H   0  0  0  0  0  0  0  0  0  0  0  0
  1  2  1  0  0  0  0
  1  3  2  0  0  0  0
  1  4  1  0  0  0  0
  4  5  1  0  0  0  0
  4  6  1  0  0  0  0
  4  7  1  0  0  0  0
  7  8  1  0  0  0  0
  7  9  1  0  0  0  0
  7 10  1  0  0  0  0
 10 11  1  0  0  0  0
 10 12  1  0  0  0  0
 10 13  1  0  0  0  0
 13 14  1  0  0  0  0
 13 15  1  0  0  0  0
 13 16  1  0  0  0  0
M  END
> <VConfSearch Rank>
675

> <Conf_Id>
19

> <Delta U+W>
0.048

> <U+W>
-56.856

> <U>
8.276

> <W>
-65.132

> <W(PB)>
-67.031

> <W(SA)>
1.899

> <Valence>
6.513

> <Coulomb>
1.428

> <VdW>
0.335

> <VdW6>
-5.021

> <VdW12>
5.356

> <Bond>
0.092

> <Angle>
2.417

> <Pdih>
4.003

> <Idih>
0.001

> <Tether>
0.000

$$$$
VeraChem MOL file


 16 15  0  0  0  0  0  0  0  0999 V2000     
   18.5752   17.2448   21.5702 C   0  0  0  0  0  0  0  0  0  0  0  0
   17.3802   17.4082   21.7173 O   0  5  0  0  0  0  0  0  0  0  0  0
   19.1821   16.2912   22.0159 O   0  0  0  0  0  0  0  0  0  0  0  0
   19.3495   18.2824   20.7619 C   0  0  0  0  0  0  0  0  0  0  0  0
   18.7658   18.4973   19.8590 H   0  0  0  0  0  0  0  0  0  0  0  0
   20.2940   17.8346   20.4297 H   0  0  0  0  0  0  0  0  0  0  0  0
   19.6238   19.6034   21.5268 C   0  0  0  0  0  0  0  0  0  0  0  0
   20.0564   20.3349   20.8309 H   0  0  0  0  0  0  0  0  0  0  0  0
   18.6717   20.0253   21.8778 H   0  0  0  0  0  0  0  0  0  0  0  0
   20.5821   19.4097   22.7219 C   0  0  0  0  0  0  0  0  0  0  0  0
   21.5289   18.9762   22.3712 H   0  0  0  0  0  0  0  0  0  0  0  0
   20.1498   18.6944   23.4355 H   0  0  0  0  0  0  0  0  0  0  0  0
   20.8642   20.7424   23.4433 C   0  0  0  0  0  0  0  0  0  0  0  0
   21.3293   21.4673   22.7624 H   0  0  0  0  0  0  0  0  0  0  0  0
   21.5456   20.5870   24.2899 H   0  0  0  0  0  0  0  0  0  0  0  0
   19.9362   21.1826   23.8314 H   0  0  0  0  0  0  0  0  0  0  0  0
  1  2  1  0  0  0  0
  1  3  2  0  0  0  0
  1  4  1  0  0  0  0
  4  5  1  0  0  0  0
  4  6  1  0  0  0  0
  4  7  1  0  0  0  0
  7  8  1  0  0  0  0
  7  9  1  0  0  0  0
  7 10  1  0  0  0  0
 10 11  1  0  0  0  0
 10 12  1  0  0  0  0
 10 13  1  0  0  0  0
 13 14  1  0  0  0  0
 13 15  1  0  0  0  0
 13 16  1  0  0  0  0
M  END
> <VConfSearch Rank>
676

> <Conf_Id>
20

> <Delta U+W>
-0.010

> <U+W>
-56.914

> <U>
8.277

> <W>
-65.191

> <W(PB)>
-67.081

> <W(SA)>
1.890

> <Valence>
6.513

> <Coulomb>
1.429

> <VdW>
0.335

> <VdW6>
-5.021

> <VdW12>
5.356

> <Bond>
0.092

> <Angle>
2.417

> <Pdih>
4.002

> <Idih>
0.001

> <Tether>
0.000

$$$$
VeraChem MOL file


 16 15  0  0  0  0  0  0  0  0999 V2000     
   20.3260   21.0081   21.1754 C   0  0  0  0  0  0  0  0  0  0  0  0
   19.5064   21.6471   20.5455 O   0  5  0  0  0  0  0  0  0  0  0  0
   21.4442   20.7650   20.7669 O   0  0  0  0  0  0  0  0  0  0  0  0
   19.9392   20.5152   22.5672 C   0  0  0  0  0  0  0  0  0  0  0  0
   19.5344   21.3738   23.1157 H   0  0  0  0  0  0  0  0  0  0  0  0
   20.8482   20.2093   23.0975 H   0  0  0  0  0  0  0  0  0  0  0  0
   18.8927   19.3673   22.5673 C   0  0  0  0  0  0  0  0  0  0  0  0
   18.6154   19.1329   23.6039 H   0  0  0  0  0  0  0  0  0  0  0  0
   17.9768   19.7250   22.0769 H   0  0  0  0  0  0  0  0  0  0  0  0
   19.3649   18.0738   21.8618 C   0  0  0  0  0  0  0  0  0  0  0  0
   19.6124   18.2883   20.8129 H   0  0  0  0  0  0  0  0  0  0  0  0
   18.5312   17.3584   21.8426 H   0  0  0  0  0  0  0  0  0  0  0  0
   20.5746   17.4101   22.5535 C   0  0  0  0  0  0  0  0  0  0  0  0
   21.4684   18.0434   22.4863 H   0  0  0  0  0  0  0  0  0  0  0  0
   20.8113   16.4509   22.0751 H   0  0  0  0  0  0  0  0  0  0  0  0
   20.3655   17.2173   23.6138 H   0  0  0  0  0  0  0  0  0  0  0  0
  1  2  1  0  0  0  0
  1  3  2  0  0  0  0
  1  4  1  0  0  0  0
  4  5  1  0  0  0  0
  4  6  1  0  0  0  0
  4  7  1  0  0  0  0
  7  8  1  0  0  0  0
  7  9  1  0  0  0  0
  7 10  1  0  0  0  0
 10 11  1  0  0  0  0
 10 12  1  0  0  0  0
 10 13  1  0  0  0  0
 13 14  1  0  0  0  0
 13 15  1  0  0  0  0
 13 16  1  0  0  0  0
M  END
> <VConfSearch Rank>
677

> <Conf_Id>
37

> <Delta U+W>
1.063

> <U+W>
-55.841

> <U>
9.719

> <W>
-65.560

> <W(PB)>
-67.414

> <W(SA)>
1.854

> <Valence>
7.002

> <Coulomb>
2.402

> <VdW>
0.314

> <VdW6>
-5.861

> <VdW12>
6.175

> <Bond>
0.134

> <Angle>
2.733

> <Pdih>
4.133

> <Idih>
0.002

> <Tether>
0.000

$$$$
VeraChem MOL file


 16 15  0  0  0  0  0  0  0  0999 V2000     
   20.0897   18.2039   20.2375 C   0  0  0  0  0  0  0  0  0  0  0  0
   19.0732   17.7673   19.7346 O   0  5  0  0  0  0  0  0  0  0  0  0
   20.8902   18.8947   19.6390 O   0  0  0  0  0  0  0  0  0  0  0  0
   20.3914   17.8347   21.6874 C   0  0  0  0  0  0  0  0  0  0  0  0
   21.4419   18.0655   21.8981 H   0  0  0  0  0  0  0  0  0  0  0  0
   20.2896   16.7466   21.7741 H   0  0  0  0  0  0  0  0  0  0  0  0
   19.4612   18.5208   22.7251 C   0  0  0  0  0  0  0  0  0  0  0  0
   18.4233   18.2255   22.5181 H   0  0  0  0  0  0  0  0  0  0  0  0
   19.6960   18.1381   23.7276 H   0  0  0  0  0  0  0  0  0  0  0  0
   19.5485   20.0655   22.7367 C   0  0  0  0  0  0  0  0  0  0  0  0
   18.7991   20.4556   23.4391 H   0  0  0  0  0  0  0  0  0  0  0  0
   19.2816   20.4631   21.7476 H   0  0  0  0  0  0  0  0  0  0  0  0
   20.9393   20.5935   23.1484 C   0  0  0  0  0  0  0  0  0  0  0  0
   21.2455   20.1823   24.1190 H   0  0  0  0  0  0  0  0  0  0  0  0
   20.9243   21.6877   23.2337 H   0  0  0  0  0  0  0  0  0  0  0  0
   21.7015   20.3295   22.4042 H   0  0  0  0  0  0  0  0  0  0  0  0
  1  2  1  0  0  0  0
  1  3  2  0  0  0  0
  1  4  1  0  0  0  0
  4  5  1  0  0  0  0
  4  6  1  0  0  0  0
  4  7  1  0  0  0  0
  7  8  1  0  0  0  0
  7  9  1  0  0  0  0
  7 10  1  0  0  0  0
 10 11  1  0  0  0  0
 10 12  1  0  0  0  0
 10 13  1  0  0  0  0
 13 14  1  0  0  0  0
 13 15  1  0  0  0  0
 13 16  1  0  0  0  0
M  END
> <VConfSearch Rank>
678

> <Conf_Id>
39

> <Delta U+W>
1.129

> <U+W>
-55.775

> <U>
9.718

> <W>
-65.493

> <W(PB)>
-67.361

> <W(SA)>
1.869

> <Valence>
7.002

> <Coulomb>
2.402

> <VdW>
0.314

> <VdW6>
-5.861

> <VdW12>
6.175

> <Bond>
0.134

> <Angle>
2.734

> <Pdih>
4.133

> <Idih>
0.002

> <Tether>
0.000

$$$$
VeraChem MOL file


 16 15  0  0  0  0  0  0  0  0999 V2000     
   20.0345   17.1009   22.4818 C   0  0  0  0  0  0  0  0  0  0  0  0
   21.0368   16.6689   21.9474 O   0  5  0  0  0  0  0  0  0  0  0  0
   18.9310   16.6167   22.3239 O   0  0  0  0  0  0  0  0  0  0  0  0
   20.1854   18.2546   23.4716 C   0  0  0  0  0  0  0  0  0  0  0  0
   21.2471   18.5168   23.5550 H   0  0  0  0  0  0  0  0  0  0  0  0
   19.8815   17.8640   24.4498 H   0  0  0  0  0  0  0  0  0  0  0  0
   19.3425   19.5207   23.1498 C   0  0  0  0  0  0  0  0  0  0  0  0
   18.3217   19.2289   22.8661 H   0  0  0  0  0  0  0  0  0  0  0  0
   19.2440   20.1062   24.0739 H   0  0  0  0  0  0  0  0  0  0  0  0
   19.9509   20.4453   22.0680 C   0  0  0  0  0  0  0  0  0  0  0  0
   20.9718   20.7332   22.3544 H   0  0  0  0  0  0  0  0  0  0  0  0
   19.3658   21.3748   22.0365 H   0  0  0  0  0  0  0  0  0  0  0  0
   19.9631   19.8275   20.6543 C   0  0  0  0  0  0  0  0  0  0  0  0
   20.6666   18.9884   20.5912 H   0  0  0  0  0  0  0  0  0  0  0  0
   20.2728   20.5741   19.9117 H   0  0  0  0  0  0  0  0  0  0  0  0
   18.9658   19.4637   20.3744 H   0  0  0  0  0  0  0  0  0  0  0  0
  1  2  1  0  0  0  0
  1  3  2  0  0  0  0
  1  4  1  0  0  0  0
  4  5  1  0  0  0  0
  4  6  1  0  0  0  0
  4  7  1  0  0  0  0
  7  8  1  0  0  0  0
  7  9  1  0  0  0  0
  7 10  1  0  0  0  0
 10 11  1  0  0  0  0
 10 12  1  0  0  0  0
 10 13  1  0  0  0  0
 13 14  1  0  0  0  0
 13 15  1  0  0  0  0
 13 16  1  0  0  0  0
M  END
> <VConfSearch Rank>
679

> <Conf_Id>
47

> <Delta U+W>
2.301

> <U+W>
-54.603

> <U>
11.258

> <W>
-65.861

> <W(PB)>
-67.702

> <W(SA)>
1.841

> <Valence>
8.169

> <Coulomb>
2.735

> <VdW>
0.355

> <VdW6>
-6.245

> <VdW12>
6.600

> <Bond>
0.149

> <Angle>
3.168

> <Pdih>
4.840

> <Idih>
0.011

> <Tether>
0.000

$$$$
VeraChem MOL file


 16 15  0  0  0  0  0  0  0  0999 V2000     
   19.9734   17.2217   22.8941 C   0  0  0  0  0  0  0  0  0  0  0  0
   20.0559   16.4937   21.9243 O   0  5  0  0  0  0  0  0  0  0  0  0
   19.2054   17.0242   23.8149 O   0  0  0  0  0  0  0  0  0  0  0  0
   20.9462   18.3943   23.0054 C   0  0  0  0  0  0  0  0  0  0  0  0
   21.9520   17.9593   23.0359 H   0  0  0  0  0  0  0  0  0  0  0  0
   20.7922   18.8955   23.9687 H   0  0  0  0  0  0  0  0  0  0  0  0
   20.8779   19.4267   21.8450 C   0  0  0  0  0  0  0  0  0  0  0  0
   21.8221   19.9879   21.8346 H   0  0  0  0  0  0  0  0  0  0  0  0
   20.8264   18.9029   20.8803 H   0  0  0  0  0  0  0  0  0  0  0  0
   19.7220   20.4499   21.9565 C   0  0  0  0  0  0  0  0  0  0  0  0
   19.8631   21.2187   21.1843 H   0  0  0  0  0  0  0  0  0  0  0  0
   19.7760   20.9700   22.9229 H   0  0  0  0  0  0  0  0  0  0  0  0
   18.3206   19.8298   21.7784 C   0  0  0  0  0  0  0  0  0  0  0  0
   17.5565   20.6162   21.7274 H   0  0  0  0  0  0  0  0  0  0  0  0
   18.0637   19.1748   22.6199 H   0  0  0  0  0  0  0  0  0  0  0  0
   18.2645   19.2414   20.8532 H   0  0  0  0  0  0  0  0  0  0  0  0
  1  2  1  0  0  0  0
  1  3  2  0  0  0  0
  1  4  1  0  0  0  0
  4  5  1  0  0  0  0
  4  6  1  0  0  0  0
  4  7  1  0  0  0  0
  7  8  1  0  0  0  0
  7  9  1  0  0  0  0
  7 10  1  0  0  0  0
 10 11  1  0  0  0  0
 10 12  1  0  0  0  0
 10 13  1  0  0  0  0
 13 14  1  0  0  0  0
 13 15  1  0  0  0  0
 13 16  1  0  0  0  0
M  END
> <VConfSearch Rank>
680

> <Conf_Id>
45

> <Delta U+W>
2.303

> <U+W>
-54.601

> <U>
11.258

> <W>
-65.860

> <W(PB)>
-67.709

> <W(SA)>
1.849

> <Valence>
8.169

> <Coulomb>
2.735

> <VdW>
0.355

> <VdW6>
-6.245

> <VdW12>
6.600

> <Bond>
0.149

> <Angle>
3.168

> <Pdih>
4.840

> <Idih>
0.011

> <Tether>
0.000

$$$$
VeraChem MOL file


 16 15  0  0  0  0  0  0  0  0999 V2000     
   17.4121   19.8913   22.5070 C   0  0  0  0  0  0  0  0  0  0  0  0
   17.6727   20.2623   23.6349 O   0  5  0  0  0  0  0  0  0  0  0  0
   16.2956   19.9493   22.0322 O   0  0  0  0  0  0  0  0  0  0  0  0
   18.5194   19.3198   21.6198 C   0  0  0  0  0  0  0  0  0  0  0  0
   18.5555   19.9286   20.7086 H   0  0  0  0  0  0  0  0  0  0  0  0
   18.2107   18.3115   21.3197 H   0  0  0  0  0  0  0  0  0  0  0  0
   19.9279   19.2647   22.2688 C   0  0  0  0  0  0  0  0  0  0  0  0
   20.2295   20.2769   22.5722 H   0  0  0  0  0  0  0  0  0  0  0  0
   19.8843   18.6580   23.1839 H   0  0  0  0  0  0  0  0  0  0  0  0
   20.9805   18.6764   21.3058 C   0  0  0  0  0  0  0  0  0  0  0  0
   21.0264   19.2832   20.3909 H   0  0  0  0  0  0  0  0  0  0  0  0
   20.6810   17.6634   21.0029 H   0  0  0  0  0  0  0  0  0  0  0  0
   22.3771   18.6242   21.9560 C   0  0  0  0  0  0  0  0  0  0  0  0
   22.7155   19.6292   22.2408 H   0  0  0  0  0  0  0  0  0  0  0  0
   23.1132   18.2037   21.2585 H   0  0  0  0  0  0  0  0  0  0  0  0
   22.3676   17.9974   22.8574 H   0  0  0  0  0  0  0  0  0  0  0  0
  1  2  1  0  0  0  0
  1  3  2  0  0  0  0
  1  4  1  0  0  0  0
  4  5  1  0  0  0  0
  4  6  1  0  0  0  0
  4  7  1  0  0  0  0
  7  8  1  0  0  0  0
  7  9  1  0  0  0  0
  7 10  1  0  0  0  0
 10 11  1  0  0  0  0
 10 12  1  0  0  0  0
 10 13  1  0  0  0  0
 13 14  1  0  0  0  0
 13 15  1  0  0  0  0
 13 16  1  0  0  0  0
M  END
> <VConfSearch Rank>
681

> <Conf_Id>
0

> <Delta U+W>
0.000

> <U+W>
-56.904

> <U>
7.329

> <W>
-64.233

> <W(PB)>
-66.148

> <W(SA)>
1.915

> <Valence>
6.755

> <Coulomb>
-0.421

> <VdW>
0.995

> <VdW6>
-4.495

> <VdW12>
5.490

> <Bond>
0.106

> <Angle>
2.715

> <Pdih>
3.934

> <Idih>
0.000

> <Tether>
0.000

$$$$
VeraChem MOL file


 16 15  0  0  0  0  0  0  0  0999 V2000     
   21.2457   17.3763   20.2223 C   0  0  0  0  0  0  0  0  0  0  0  0
   20.5177   16.9233   19.3617 O   0  5  0  0  0  0  0  0  0  0  0  0
   22.4372   17.5561   20.0683 O   0  0  0  0  0  0  0  0  0  0  0  0
   20.6269   17.7567   21.5628 C   0  0  0  0  0  0  0  0  0  0  0  0
   21.3782   17.5912   22.3445 H   0  0  0  0  0  0  0  0  0  0  0  0
   19.7955   17.0696   21.7620 H   0  0  0  0  0  0  0  0  0  0  0  0
   20.1292   19.2225   21.6026 C   0  0  0  0  0  0  0  0  0  0  0  0
   20.9698   19.8973   21.3893 H   0  0  0  0  0  0  0  0  0  0  0  0
   19.3872   19.3757   20.8066 H   0  0  0  0  0  0  0  0  0  0  0  0
   19.5081   19.5812   22.9687 C   0  0  0  0  0  0  0  0  0  0  0  0
   20.2500   19.4288   23.7648 H   0  0  0  0  0  0  0  0  0  0  0  0
   18.6669   18.9071   23.1821 H   0  0  0  0  0  0  0  0  0  0  0  0
   19.0150   21.0413   23.0009 C   0  0  0  0  0  0  0  0  0  0  0  0
   18.2482   21.2140   22.2343 H   0  0  0  0  0  0  0  0  0  0  0  0
   19.8430   21.7396   22.8213 H   0  0  0  0  0  0  0  0  0  0  0  0
   18.5764   21.2799   23.9786 H   0  0  0  0  0  0  0  0  0  0  0  0
  1  2  1  0  0  0  0
  1  3  2  0  0  0  0
  1  4  1  0  0  0  0
  4  5  1  0  0  0  0
  4  6  1  0  0  0  0
  4  7  1  0  0  0  0
  7  8  1  0  0  0  0
  7  9  1  0  0  0  0
  7 10  1  0  0  0  0
 10 11  1  0  0  0  0
 10 12  1  0  0  0  0
 10 13  1  0  0  0  0
 13 14  1  0  0  0  0
 13 15  1  0  0  0  0
 13 16  1  0  0  0  0
M  END
> <VConfSearch Rank>
682

> <Conf_Id>
22

> <Delta U+W>
-1.185

> <U+W>
-58.089

> <U>
6.298

> <W>
-64.387

> <W(PB)>
-66.329

> <W(SA)>
1.942

> <Valence>
6.246

> <Coulomb>
-0.408

> <VdW>
0.460

> <VdW6>
-4.207

> <VdW12>
4.667

> <Bond>
0.072

> <Angle>
2.246

> <Pdih>
3.928

> <Idih>
0.001

> <Tether>
0.000

$$$$
VeraChem MOL file


 16 15  0  0  0  0  0  0  0  0999 V2000     
   20.6303   21.2849   20.6930 C   0  0  0  0  0  0  0  0  0  0  0  0
   19.9219   22.2712   20.6585 O   0  5  0  0  0  0  0  0  0  0  0  0
   21.4951   21.0503   19.8726 O   0  0  0  0  0  0  0  0  0  0  0  0
   20.4081   20.2771   21.8153 C   0  0  0  0  0  0  0  0  0  0  0  0
   20.0737   20.8255   22.7041 H   0  0  0  0  0  0  0  0  0  0  0  0
   21.3775   19.8266   22.0570 H   0  0  0  0  0  0  0  0  0  0  0  0
   19.3754   19.1815   21.4437 C   0  0  0  0  0  0  0  0  0  0  0  0
   18.4438   19.6683   21.1235 H   0  0  0  0  0  0  0  0  0  0  0  0
   19.7412   18.6113   20.5785 H   0  0  0  0  0  0  0  0  0  0  0  0
   19.0565   18.2160   22.6084 C   0  0  0  0  0  0  0  0  0  0  0  0
   18.2429   17.5455   22.2986 H   0  0  0  0  0  0  0  0  0  0  0  0
   18.6796   18.7848   23.4696 H   0  0  0  0  0  0  0  0  0  0  0  0
   20.2679   17.3621   23.0402 C   0  0  0  0  0  0  0  0  0  0  0  0
   21.0659   17.9841   23.4646 H   0  0  0  0  0  0  0  0  0  0  0  0
   20.6802   16.8059   22.1882 H   0  0  0  0  0  0  0  0  0  0  0  0
   19.9707   16.6346   23.8066 H   0  0  0  0  0  0  0  0  0  0  0  0
  1  2  1  0  0  0  0
  1  3  2  0  0  0  0
  1  4  1  0  0  0  0
  4  5  1  0  0  0  0
  4  6  1  0  0  0  0
  4  7  1  0  0  0  0
  7  8  1  0  0  0  0
  7  9  1  0  0  0  0
  7 10  1  0  0  0  0
 10 11  1  0  0  0  0
 10 12  1  0  0  0  0
 10 13  1  0  0  0  0
 13 14  1  0  0  0  0
 13 15  1  0  0  0  0
 13 16  1  0  0  0  0
M  END
> <VConfSearch Rank>
683

> <Conf_Id>
36

> <Delta U+W>
-0.427

> <U+W>
-57.331

> <U>
7.263

> <W>
-64.594

> <W(PB)>
-66.513

> <W(SA)>
1.920

> <Valence>
6.734

> <Coulomb>
-0.068

> <VdW>
0.598

> <VdW6>
-4.819

> <VdW12>
5.417

> <Bond>
0.107

> <Angle>
2.469

> <Pdih>
4.157

> <Idih>
0.001

> <Tether>
0.000

$$$$
VeraChem MOL file


 16 15  0  0  0  0  0  0  0  0999 V2000     
   17.6977   17.8958   22.0892 C   0  0  0  0  0  0  0  0  0  0  0  0
   17.0055   18.3151   22.9953 O   0  5  0  0  0  0  0  0  0  0  0  0
   17.5231   16.8194   21.5536 O   0  0  0  0  0  0  0  0  0  0  0  0
   18.8610   18.7580   21.6116 C   0  0  0  0  0  0  0  0  0  0  0  0
   18.5675   19.8078   21.7245 H   0  0  0  0  0  0  0  0  0  0  0  0
   19.0040   18.5736   20.5401 H   0  0  0  0  0  0  0  0  0  0  0  0
   20.1761   18.4738   22.3827 C   0  0  0  0  0  0  0  0  0  0  0  0
   20.0333   18.7027   23.4479 H   0  0  0  0  0  0  0  0  0  0  0  0
   20.3955   17.3988   22.3227 H   0  0  0  0  0  0  0  0  0  0  0  0
   21.3910   19.2598   21.8380 C   0  0  0  0  0  0  0  0  0  0  0  0
   21.5411   19.0220   20.7758 H   0  0  0  0  0  0  0  0  0  0  0  0
   22.2949   18.9212   22.3630 H   0  0  0  0  0  0  0  0  0  0  0  0
   21.2560   20.7875   22.0140 C   0  0  0  0  0  0  0  0  0  0  0  0
   20.4302   21.1888   21.4134 H   0  0  0  0  0  0  0  0  0  0  0  0
   22.1761   21.2932   21.6934 H   0  0  0  0  0  0  0  0  0  0  0  0
   21.0763   21.0475   23.0653 H   0  0  0  0  0  0  0  0  0  0  0  0
  1  2  1  0  0  0  0
  1  3  2  0  0  0  0
  1  4  1  0  0  0  0
  4  5  1  0  0  0  0
  4  6  1  0  0  0  0
  4  7  1  0  0  0  0
  7  8  1  0  0  0  0
  7  9  1  0  0  0  0
  7 10  1  0  0  0  0
 10 11  1  0  0  0  0
 10 12  1  0  0  0  0
 10 13  1  0  0  0  0
 13 14  1  0  0  0  0
 13 15  1  0  0  0  0
 13 16  1  0  0  0  0
M  END
> <VConfSearch Rank>
684

> <Conf_Id>
17

> <Delta U+W>
-0.432

> <U+W>
-57.336

> <U>
7.263

> <W>
-64.599

> <W(PB)>
-66.503

> <W(SA)>
1.904

> <Valence>
6.734

> <Coulomb>
-0.068

> <VdW>
0.598

> <VdW6>
-4.819

> <VdW12>
5.417

> <Bond>
0.107

> <Angle>
2.469

> <Pdih>
4.157

> <Idih>
0.001

> <Tether>
0.000

$$$$
VeraChem MOL file


 16 15  0  0  0  0  0  0  0  0999 V2000     
   19.2231   17.5366   23.5791 C   0  0  0  0  0  0  0  0  0  0  0  0
   18.0144   17.4374   23.5050 O   0  5  0  0  0  0  0  0  0  0  0  0
   19.9768   16.5836   23.5641 O   0  0  0  0  0  0  0  0  0  0  0  0
   19.8234   18.9325   23.7227 C   0  0  0  0  0  0  0  0  0  0  0  0
   20.8416   18.8371   24.1193 H   0  0  0  0  0  0  0  0  0  0  0  0
   19.2368   19.4656   24.4803 H   0  0  0  0  0  0  0  0  0  0  0  0
   19.8366   19.7533   22.4070 C   0  0  0  0  0  0  0  0  0  0  0  0
   18.8151   19.8161   22.0067 H   0  0  0  0  0  0  0  0  0  0  0  0
   20.1520   20.7813   22.6314 H   0  0  0  0  0  0  0  0  0  0  0  0
   20.7796   19.1530   21.3419 C   0  0  0  0  0  0  0  0  0  0  0  0
   20.4612   18.1307   21.0943 H   0  0  0  0  0  0  0  0  0  0  0  0
   21.7980   19.0793   21.7479 H   0  0  0  0  0  0  0  0  0  0  0  0
   20.7997   20.0059   20.0580 C   0  0  0  0  0  0  0  0  0  0  0  0
   19.7976   20.0702   19.6139 H   0  0  0  0  0  0  0  0  0  0  0  0
   21.4735   19.5652   19.3117 H   0  0  0  0  0  0  0  0  0  0  0  0
   21.1478   21.0256   20.2688 H   0  0  0  0  0  0  0  0  0  0  0  0
  1  2  1  0  0  0  0
  1  3  2  0  0  0  0
  1  4  1  0  0  0  0
  4  5  1  0  0  0  0
  4  6  1  0  0  0  0
  4  7  1  0  0  0  0
  7  8  1  0  0  0  0
  7  9  1  0  0  0  0
  7 10  1  0  0  0  0
 10 11  1  0  0  0  0
 10 12  1  0  0  0  0
 10 13  1  0  0  0  0
 13 14  1  0  0  0  0
 13 15  1  0  0  0  0
 13 16  1  0  0  0  0
M  END
> <VConfSearch Rank>
685

> <Conf_Id>
19

> <Delta U+W>
0.048

> <U+W>
-56.856

> <U>
8.276

> <W>
-65.132

> <W(PB)>
-67.031

> <W(SA)>
1.899

> <Valence>
6.513

> <Coulomb>
1.428

> <VdW>
0.335

> <VdW6>
-5.021

> <VdW12>
5.356

> <Bond>
0.092

> <Angle>
2.417

> <Pdih>
4.003

> <Idih>
0.001

> <Tether>
0.000

$$$$
VeraChem MOL file


 16 15  0  0  0  0  0  0  0  0999 V2000     
   19.5562   20.5760   20.2168 C   0  0  0  0  0  0  0  0  0  0  0  0
   18.8015   21.5046   20.4277 O   0  5  0  0  0  0  0  0  0  0  0  0
   19.4707   19.8485   19.2474 O   0  0  0  0  0  0  0  0  0  0  0  0
   20.6860   20.3263   21.2122 C   0  0  0  0  0  0  0  0  0  0  0  0
   21.1466   21.2958   21.4359 H   0  0  0  0  0  0  0  0  0  0  0  0
   21.4548   19.7151   20.7239 H   0  0  0  0  0  0  0  0  0  0  0  0
   20.2278   19.6546   22.5329 C   0  0  0  0  0  0  0  0  0  0  0  0
   21.0707   19.6414   23.2371 H   0  0  0  0  0  0  0  0  0  0  0  0
   19.4383   20.2627   22.9959 H   0  0  0  0  0  0  0  0  0  0  0  0
   19.7200   18.2120   22.3204 C   0  0  0  0  0  0  0  0  0  0  0  0
   20.5062   17.6084   21.8461 H   0  0  0  0  0  0  0  0  0  0  0  0
   18.8628   18.2149   21.6327 H   0  0  0  0  0  0  0  0  0  0  0  0
   19.3031   17.5565   23.6519 C   0  0  0  0  0  0  0  0  0  0  0  0
   20.1504   17.5081   24.3484 H   0  0  0  0  0  0  0  0  0  0  0  0
   18.9442   16.5329   23.4831 H   0  0  0  0  0  0  0  0  0  0  0  0
   18.4955   18.1240   24.1327 H   0  0  0  0  0  0  0  0  0  0  0  0
  1  2  1  0  0  0  0
  1  3  2  0  0  0  0
  1  4  1  0  0  0  0
  4  5  1  0  0  0  0
  4  6  1  0  0  0  0
  4  7  1  0  0  0  0
  7  8  1  0  0  0  0
  7  9  1  0  0  0  0
  7 10  1  0  0  0  0
 10 11  1  0  0  0  0
 10 12  1  0  0  0  0
 10 13  1  0  0  0  0
 13 14  1  0  0  0  0
 13 15  1  0  0  0  0
 13 16  1  0  0  0  0
M  END
> <VConfSearch Rank>
686

> <Conf_Id>
20

> <Delta U+W>
-0.010

> <U+W>
-56.914

> <U>
8.277

> <W>
-65.191

> <W(PB)>
-67.081

> <W(SA)>
1.890

> <Valence>
6.513

> <Coulomb>
1.429

> <VdW>
0.335

> <VdW6>
-5.021

> <VdW12>
5.356

> <Bond>
0.092

> <Angle>
2.417

> <Pdih>
4.002

> <Idih>
0.001

> <Tether>
0.000

$$$$
VeraChem MOL file


 16 15  0  0  0  0  0  0  0  0999 V2000     
   18.7390   20.6011   21.0404 C   0  0  0  0  0  0  0  0  0  0  0  0
   18.2580   20.3608   19.9506 O   0  5  0  0  0  0  0  0  0  0  0  0
   19.3619   21.6141   21.2895 O   0  0  0  0  0  0  0  0  0  0  0  0
   18.5181   19.5909   22.1631 C   0  0  0  0  0  0  0  0  0  0  0  0
   17.4450   19.3689   22.1948 H   0  0  0  0  0  0  0  0  0  0  0  0
   18.7644   20.0675   23.1188 H   0  0  0  0  0  0  0  0  0  0  0  0
   19.3107   18.2661   21.9916 C   0  0  0  0  0  0  0  0  0  0  0  0
   19.0311   17.5725   22.7960 H   0  0  0  0  0  0  0  0  0  0  0  0
   19.0007   17.7887   21.0517 H   0  0  0  0  0  0  0  0  0  0  0  0
   20.8482   18.4395   21.9806 C   0  0  0  0  0  0  0  0  0  0  0  0
   21.1441   19.1047   21.1575 H   0  0  0  0  0  0  0  0  0  0  0  0
   21.3113   17.4652   21.7724 H   0  0  0  0  0  0  0  0  0  0  0  0
   21.4089   18.9831   23.3120 C   0  0  0  0  0  0  0  0  0  0  0  0
   21.0669   20.0091   23.4986 H   0  0  0  0  0  0  0  0  0  0  0  0
   22.5062   18.9986   23.2882 H   0  0  0  0  0  0  0  0  0  0  0  0
   21.0972   18.3550   24.1566 H   0  0  0  0  0  0  0  0  0  0  0  0
  1  2  1  0  0  0  0
  1  3  2  0  0  0  0
  1  4  1  0  0  0  0
  4  5  1  0  0  0  0
  4  6  1  0  0  0  0
  4  7  1  0  0  0  0
  7  8  1  0  0  0  0
  7  9  1  0  0  0  0
  7 10  1  0  0  0  0
 10 11  1  0  0  0  0
 10 12  1  0  0  0  0
 10 13  1  0  0  0  0
 13 14  1  0  0  0  0
 13 15  1  0  0  0  0
 13 16  1  0  0  0  0
M  END
> <VConfSearch Rank>
687

> <Conf_Id>
37

> <Delta U+W>
1.063

> <U+W>
-55.841

> <U>
9.719

> <W>
-65.560

> <W(PB)>
-67.414

> <W(SA)>
1.854

> <Valence>
7.002

> <Coulomb>
2.402

> <VdW>
0.314

> <VdW6>
-5.861

> <VdW12>
6.175

> <Bond>
0.134

> <Angle>
2.733

> <Pdih>
4.133

> <Idih>
0.002

> <Tether>
0.000

$$$$
VeraChem MOL file


 16 15  0  0  0  0  0  0  0  0999 V2000     
   18.2410   18.2846   22.7184 C   0  0  0  0  0  0  0  0  0  0  0  0
   17.5419   18.7321   23.6060 O   0  5  0  0  0  0  0  0  0  0  0  0
   17.8161   17.9707   21.6242 O   0  0  0  0  0  0  0  0  0  0  0  0
   19.7249   18.0743   23.0078 C   0  0  0  0  0  0  0  0  0  0  0  0
   20.1468   17.4271   22.2305 H   0  0  0  0  0  0  0  0  0  0  0  0
   19.7971   17.5164   23.9488 H   0  0  0  0  0  0  0  0  0  0  0  0
   20.5420   19.3898   23.1280 C   0  0  0  0  0  0  0  0  0  0  0  0
   20.1267   19.9892   23.9500 H   0  0  0  0  0  0  0  0  0  0  0  0
   21.5743   19.1477   23.4147 H   0  0  0  0  0  0  0  0  0  0  0  0
   20.5594   20.2496   21.8418 C   0  0  0  0  0  0  0  0  0  0  0  0
   21.0882   21.1892   22.0530 H   0  0  0  0  0  0  0  0  0  0  0  0
   19.5334   20.5282   21.5636 H   0  0  0  0  0  0  0  0  0  0  0  0
   21.2461   19.5487   20.6503 C   0  0  0  0  0  0  0  0  0  0  0  0
   22.2623   19.2280   20.9141 H   0  0  0  0  0  0  0  0  0  0  0  0
   21.3179   20.2310   19.7935 H   0  0  0  0  0  0  0  0  0  0  0  0
   20.6781   18.6675   20.3257 H   0  0  0  0  0  0  0  0  0  0  0  0
  1  2  1  0  0  0  0
  1  3  2  0  0  0  0
  1  4  1  0  0  0  0
  4  5  1  0  0  0  0
  4  6  1  0  0  0  0
  4  7  1  0  0  0  0
  7  8  1  0  0  0  0
  7  9  1  0  0  0  0
  7 10  1  0  0  0  0
 10 11  1  0  0  0  0
 10 12  1  0  0  0  0
 10 13  1  0  0  0  0
 13 14  1  0  0  0  0
 13 15  1  0  0  0  0
 13 16  1  0  0  0  0
M  END
> <VConfSearch Rank>
688

> <Conf_Id>
39

> <Delta U+W>
1.129

> <U+W>
-55.775

> <U>
9.718

> <W>
-65.493

> <W(PB)>
-67.361

> <W(SA)>
1.869

> <Valence>
7.002

> <Coulomb>
2.402

> <VdW>
0.314

> <VdW6>
-5.861

> <VdW12>
6.175

> <Bond>
0.134

> <Angle>
2.734

> <Pdih>
4.133

> <Idih>
0.002

> <Tether>
0.000

$$$$
VeraChem MOL file


 16 15  0  0  0  0  0  0  0  0999 V2000     
   21.5154   17.9347   22.5056 C   0  0  0  0  0  0  0  0  0  0  0  0
   22.1342   18.2477   23.5035 O   0  5  0  0  0  0  0  0  0  0  0  0
   22.0364   17.7693   21.4201 O   0  0  0  0  0  0  0  0  0  0  0  0
   20.0214   17.6472   22.6443 C   0  0  0  0  0  0  0  0  0  0  0  0
   19.7312   17.7662   23.6953 H   0  0  0  0  0  0  0  0  0  0  0  0
   19.8870   16.5870   22.4003 H   0  0  0  0  0  0  0  0  0  0  0  0
   19.0938   18.4968   21.7307 C   0  0  0  0  0  0  0  0  0  0  0  0
   19.5075   18.5401   20.7136 H   0  0  0  0  0  0  0  0  0  0  0  0
   18.1319   17.9737   21.6441 H   0  0  0  0  0  0  0  0  0  0  0  0
   18.8081   19.9268   22.2495 C   0  0  0  0  0  0  0  0  0  0  0  0
   18.3966   19.8792   23.2671 H   0  0  0  0  0  0  0  0  0  0  0  0
   18.0258   20.3744   21.6210 H   0  0  0  0  0  0  0  0  0  0  0  0
   20.0404   20.8549   22.2308 C   0  0  0  0  0  0  0  0  0  0  0  0
   20.7882   20.5409   22.9693 H   0  0  0  0  0  0  0  0  0  0  0  0
   19.7490   21.8848   22.4740 H   0  0  0  0  0  0  0  0  0  0  0  0
   20.5144   20.8610   21.2406 H   0  0  0  0  0  0  0  0  0  0  0  0
  1  2  1  0  0  0  0
  1  3  2  0  0  0  0
  1  4  1  0  0  0  0
  4  5  1  0  0  0  0
  4  6  1  0  0  0  0
  4  7  1  0  0  0  0
  7  8  1  0  0  0  0
  7  9  1  0  0  0  0
  7 10  1  0  0  0  0
 10 11  1  0  0  0  0
 10 12  1  0  0  0  0
 10 13  1  0  0  0  0
 13 14  1  0  0  0  0
 13 15  1  0  0  0  0
 13 16  1  0  0  0  0
M  END
> <VConfSearch Rank>
689

> <Conf_Id>
47

> <Delta U+W>
2.301

> <U+W>
-54.603

> <U>
11.258

> <W>
-65.861

> <W(PB)>
-67.702

> <W(SA)>
1.841

> <Valence>
8.169

> <Coulomb>
2.735

> <VdW>
0.355

> <VdW6>
-6.245

> <VdW12>
6.600

> <Bond>
0.149

> <Angle>
3.168

> <Pdih>
4.840

> <Idih>
0.011

> <Tether>
0.000

$$$$
VeraChem MOL file


 16 15  0  0  0  0  0  0  0  0999 V2000     
   21.2931   19.0634   20.8613 C   0  0  0  0  0  0  0  0  0  0  0  0
   20.8022   19.4015   19.8021 O   0  5  0  0  0  0  0  0  0  0  0  0
   22.0031   18.0852   20.9872 O   0  0  0  0  0  0  0  0  0  0  0  0
   21.0815   19.9622   22.0783 C   0  0  0  0  0  0  0  0  0  0  0  0
   21.5318   20.9302   21.8292 H   0  0  0  0  0  0  0  0  0  0  0  0
   21.6527   19.5590   22.9233 H   0  0  0  0  0  0  0  0  0  0  0  0
   19.5989   20.1862   22.4892 C   0  0  0  0  0  0  0  0  0  0  0  0
   19.5512   21.0951   23.1041 H   0  0  0  0  0  0  0  0  0  0  0  0
   18.9901   20.3914   21.5977 H   0  0  0  0  0  0  0  0  0  0  0  0
   18.9722   19.0305   23.3059 C   0  0  0  0  0  0  0  0  0  0  0  0
   17.9910   19.3588   23.6758 H   0  0  0  0  0  0  0  0  0  0  0  0
   19.5847   18.8272   24.1952 H   0  0  0  0  0  0  0  0  0  0  0  0
   18.7801   17.7293   22.4996 C   0  0  0  0  0  0  0  0  0  0  0  0
   18.2086   16.9965   23.0836 H   0  0  0  0  0  0  0  0  0  0  0  0
   19.7435   17.2700   22.2468 H   0  0  0  0  0  0  0  0  0  0  0  0
   18.2335   17.9206   21.5668 H   0  0  0  0  0  0  0  0  0  0  0  0
  1  2  1  0  0  0  0
  1  3  2  0  0  0  0
  1  4  1  0  0  0  0
  4  5  1  0  0  0  0
  4  6  1  0  0  0  0
  4  7  1  0  0  0  0
  7  8  1  0  0  0  0
  7  9  1  0  0  0  0
  7 10  1  0  0  0  0
 10 11  1  0  0  0  0
 10 12  1  0  0  0  0
 10 13  1  0  0  0  0
 13 14  1  0  0  0  0
 13 15  1  0  0  0  0
 13 16  1  0  0  0  0
M  END
> <VConfSearch Rank>
690

> <Conf_Id>
45

> <Delta U+W>
2.303

> <U+W>
-54.601

> <U>
11.258

> <W>
-65.860

> <W(PB)>
-67.709

> <W(SA)>
1.849

> <Valence>
8.169

> <Coulomb>
2.735

> <VdW>
0.355

> <VdW6>
-6.245

> <VdW12>
6.600

> <Bond>
0.149

> <Angle>
3.168

> <Pdih>
4.840

> <Idih>
0.011

> <Tether>
0.000

$$$$
VeraChem MOL file


 16 15  0  0  0  0  0  0  0  0999 V2000     
   20.5801   16.8309   23.3535 C   0  0  0  0  0  0  0  0  0  0  0  0
   21.7837   16.9964   23.3131 O   0  5  0  0  0  0  0  0  0  0  0  0
   20.0603   15.8818   23.9052 O   0  0  0  0  0  0  0  0  0  0  0  0
   19.6503   17.8469   22.6880 C   0  0  0  0  0  0  0  0  0  0  0  0
   18.9666   18.2195   23.4599 H   0  0  0  0  0  0  0  0  0  0  0  0
   19.0416   17.3030   21.9559 H   0  0  0  0  0  0  0  0  0  0  0  0
   20.3590   19.0413   21.9955 C   0  0  0  0  0  0  0  0  0  0  0  0
   20.9715   19.5790   22.7325 H   0  0  0  0  0  0  0  0  0  0  0  0
   21.0466   18.6615   21.2270 H   0  0  0  0  0  0  0  0  0  0  0  0
   19.3479   20.0136   21.3525 C   0  0  0  0  0  0  0  0  0  0  0  0
   18.6608   20.3955   22.1203 H   0  0  0  0  0  0  0  0  0  0  0  0
   18.7359   19.4775   20.6139 H   0  0  0  0  0  0  0  0  0  0  0  0
   20.0578   21.1975   20.6665 C   0  0  0  0  0  0  0  0  0  0  0  0
   20.6531   21.7707   21.3893 H   0  0  0  0  0  0  0  0  0  0  0  0
   19.3250   21.8788   20.2148 H   0  0  0  0  0  0  0  0  0  0  0  0
   20.7288   20.8460   19.8717 H   0  0  0  0  0  0  0  0  0  0  0  0
  1  2  1  0  0  0  0
  1  3  2  0  0  0  0
  1  4  1  0  0  0  0
  4  5  1  0  0  0  0
  4  6  1  0  0  0  0
  4  7  1  0  0  0  0
  7  8  1  0  0  0  0
  7  9  1  0  0  0  0
  7 10  1  0  0  0  0
 10 11  1  0  0  0  0
 10 12  1  0  0  0  0
 10 13  1  0  0  0  0
 13 14  1  0  0  0  0
 13 15  1  0  0  0  0
 13 16  1  0  0  0  0
M  END
> <VConfSearch Rank>
691

> <Conf_Id>
0

> <Delta U+W>
0.000

> <U+W>
-56.904

> <U>
7.329

> <W>
-64.233

> <W(PB)>
-66.148

> <W(SA)>
1.915

> <Valence>
6.755

> <Coulomb>
-0.421

> <VdW>
0.995

> <VdW6>
-4.495

> <VdW12>
5.490

> <Bond>
0.106

> <Angle>
2.715

> <Pdih>
3.934

> <Idih>
0.000

> <Tether>
0.000

$$$$
VeraChem MOL file


 16 15  0  0  0  0  0  0  0  0999 V2000     
   22.3659   17.7718   21.4735 C   0  0  0  0  0  0  0  0  0  0  0  0
   22.2380   16.5729   21.3251 O   0  5  0  0  0  0  0  0  0  0  0  0
   23.2344   18.4270   20.9328 O   0  0  0  0  0  0  0  0  0  0  0  0
   21.3711   18.4968   22.3732 C   0  0  0  0  0  0  0  0  0  0  0  0
   21.8910   19.3372   22.8488 H   0  0  0  0  0  0  0  0  0  0  0  0
   21.0694   17.8086   23.1721 H   0  0  0  0  0  0  0  0  0  0  0  0
   20.1248   19.0047   21.6072 C   0  0  0  0  0  0  0  0  0  0  0  0
   20.4440   19.6824   20.8033 H   0  0  0  0  0  0  0  0  0  0  0  0
   19.6224   18.1538   21.1265 H   0  0  0  0  0  0  0  0  0  0  0  0
   19.1353   19.7337   22.5399 C   0  0  0  0  0  0  0  0  0  0  0  0
   19.6371   20.5852   23.0203 H   0  0  0  0  0  0  0  0  0  0  0  0
   18.8153   19.0561   23.3436 H   0  0  0  0  0  0  0  0  0  0  0  0
   17.8975   20.2364   21.7709 C   0  0  0  0  0  0  0  0  0  0  0  0
   17.3580   19.4008   21.3057 H   0  0  0  0  0  0  0  0  0  0  0  0
   18.1859   20.9412   20.9800 H   0  0  0  0  0  0  0  0  0  0  0  0
   17.2044   20.7521   22.4482 H   0  0  0  0  0  0  0  0  0  0  0  0
  1  2  1  0  0  0  0
  1  3  2  0  0  0  0
  1  4  1  0  0  0  0
  4  5  1  0  0  0  0
  4  6  1  0  0  0  0
  4  7  1  0  0  0  0
  7  8  1  0  0  0  0
  7  9  1  0  0  0  0
  7 10  1  0  0  0  0
 10 11  1  0  0  0  0
 10 12  1  0  0  0  0
 10 13  1  0  0  0  0
 13 14  1  0  0  0  0
 13 15  1  0  0  0  0
 13 16  1  0  0  0  0
M  END
> <VConfSearch Rank>
692

> <Conf_Id>
22

> <Delta U+W>
-1.185

> <U+W>
-58.089

> <U>
6.298

> <W>
-64.387

> <W(PB)>
-66.329

> <W(SA)>
1.942

> <Valence>
6.246

> <Coulomb>
-0.408

> <VdW>
0.460

> <VdW6>
-4.207

> <VdW12>
4.667

> <Bond>
0.072

> <Angle>
2.246

> <Pdih>
3.928

> <Idih>
0.001

> <Tether>
0.000

$$$$
VeraChem MOL file


 16 15  0  0  0  0  0  0  0  0999 V2000     
   21.4546   18.0167   23.7790 C   0  0  0  0  0  0  0  0  0  0  0  0
   22.1233   18.6565   24.5660 O   0  5  0  0  0  0  0  0  0  0  0  0
   21.6767   16.8560   23.4973 O   0  0  0  0  0  0  0  0  0  0  0  0
   20.2855   18.7146   23.0927 C   0  0  0  0  0  0  0  0  0  0  0  0
   19.8745   19.4551   23.7894 H   0  0  0  0  0  0  0  0  0  0  0  0
   19.5053   17.9654   22.9170 H   0  0  0  0  0  0  0  0  0  0  0  0
   20.6919   19.4005   21.7626 C   0  0  0  0  0  0  0  0  0  0  0  0
   21.5328   20.0803   21.9582 H   0  0  0  0  0  0  0  0  0  0  0  0
   21.0621   18.6432   21.0578 H   0  0  0  0  0  0  0  0  0  0  0  0
   19.5445   20.2050   21.1094 C   0  0  0  0  0  0  0  0  0  0  0  0
   19.9424   20.7443   20.2387 H   0  0  0  0  0  0  0  0  0  0  0  0
   19.1820   20.9702   21.8097 H   0  0  0  0  0  0  0  0  0  0  0  0
   18.3653   19.3206   20.6509 C   0  0  0  0  0  0  0  0  0  0  0  0
   17.8628   18.8485   21.5043 H   0  0  0  0  0  0  0  0  0  0  0  0
   18.7085   18.5294   19.9717 H   0  0  0  0  0  0  0  0  0  0  0  0
   17.6186   19.9232   20.1176 H   0  0  0  0  0  0  0  0  0  0  0  0
  1  2  1  0  0  0  0
  1  3  2  0  0  0  0
  1  4  1  0  0  0  0
  4  5  1  0  0  0  0
  4  6  1  0  0  0  0
  4  7  1  0  0  0  0
  7  8  1  0  0  0  0
  7  9  1  0  0  0  0
  7 10  1  0  0  0  0
 10 11  1  0  0  0  0
 10 12  1  0  0  0  0
 10 13  1  0  0  0  0
 13 14  1  0  0  0  0
 13 15  1  0  0  0  0
 13 16  1  0  0  0  0
M  END
> <VConfSearch Rank>
693

> <Conf_Id>
36

> <Delta U+W>
-0.427

> <U+W>
-57.331

> <U>
7.263

> <W>
-64.594

> <W(PB)>
-66.513

> <W(SA)>
1.920

> <Valence>
6.734

> <Coulomb>
-0.068

> <VdW>
0.598

> <VdW6>
-4.819

> <VdW12>
5.417

> <Bond>
0.107

> <Angle>
2.469

> <Pdih>
4.157

> <Idih>
0.001

> <Tether>
0.000

$$$$
VeraChem MOL file


 16 15  0  0  0  0  0  0  0  0999 V2000     
   21.4244   17.5757   23.4439 C   0  0  0  0  0  0  0  0  0  0  0  0
   21.0139   17.5280   24.5863 O   0  5  0  0  0  0  0  0  0  0  0  0
   22.5487   17.2483   23.1201 O   0  0  0  0  0  0  0  0  0  0  0  0
   20.4846   18.0934   22.3606 C   0  0  0  0  0  0  0  0  0  0  0  0
   19.4648   17.8002   22.6347 H   0  0  0  0  0  0  0  0  0  0  0  0
   20.7300   17.5799   21.4232 H   0  0  0  0  0  0  0  0  0  0  0  0
   20.5770   19.6294   22.1685 C   0  0  0  0  0  0  0  0  0  0  0  0
   20.2880   20.1336   23.1010 H   0  0  0  0  0  0  0  0  0  0  0  0
   21.6256   19.8995   21.9814 H   0  0  0  0  0  0  0  0  0  0  0  0
   19.7123   20.1565   21.0002 C   0  0  0  0  0  0  0  0  0  0  0  0
   20.0092   19.6610   20.0655 H   0  0  0  0  0  0  0  0  0  0  0  0
   19.9184   21.2271   20.8633 H   0  0  0  0  0  0  0  0  0  0  0  0
   18.1977   19.9666   21.2300 C   0  0  0  0  0  0  0  0  0  0  0  0
   17.9269   18.9038   21.2598 H   0  0  0  0  0  0  0  0  0  0  0  0
   17.6251   20.4326   20.4177 H   0  0  0  0  0  0  0  0  0  0  0  0
   17.8826   20.4295   22.1743 H   0  0  0  0  0  0  0  0  0  0  0  0
  1  2  1  0  0  0  0
  1  3  2  0  0  0  0
  1  4  1  0  0  0  0
  4  5  1  0  0  0  0
  4  6  1  0  0  0  0
  4  7  1  0  0  0  0
  7  8  1  0  0  0  0
  7  9  1  0  0  0  0
  7 10  1  0  0  0  0
 10 11  1  0  0  0  0
 10 12  1  0  0  0  0
 10 13  1  0  0  0  0
 13 14  1  0  0  0  0
 13 15  1  0  0  0  0
 13 16  1  0  0  0  0
M  END
> <VConfSearch Rank>
694

> <Conf_Id>
17

> <Delta U+W>
-0.432

> <U+W>
-57.336

> <U>
7.263

> <W>
-64.599

> <W(PB)>
-66.503

> <W(SA)>
1.904

> <Valence>
6.734

> <Coulomb>
-0.068

> <VdW>
0.598

> <VdW6>
-4.819

> <VdW12>
5.417

> <Bond>
0.107

> <Angle>
2.469

> <Pdih>
4.157

> <Idih>
0.001

> <Tether>
0.000

$$$$
VeraChem MOL file


 16 15  0  0  0  0  0  0  0  0999 V2000     
   18.6531   19.9255   23.7592 C   0  0  0  0  0  0  0  0  0  0  0  0
   17.4950   19.9777   23.3954 O   0  5  0  0  0  0  0  0  0  0  0  0
   19.0063   19.4137   24.8030 O   0  0  0  0  0  0  0  0  0  0  0  0
   19.7171   20.5588   22.8667 C   0  0  0  0  0  0  0  0  0  0  0  0
   20.6163   20.7404   23.4680 H   0  0  0  0  0  0  0  0  0  0  0  0
   19.3414   21.5403   22.5540 H   0  0  0  0  0  0  0  0  0  0  0  0
   20.0728   19.7179   21.6131 C   0  0  0  0  0  0  0  0  0  0  0  0
   19.1588   19.5198   21.0361 H   0  0  0  0  0  0  0  0  0  0  0  0
   20.7346   20.3077   20.9644 H   0  0  0  0  0  0  0  0  0  0  0  0
   20.7656   18.3848   21.9693 C   0  0  0  0  0  0  0  0  0  0  0  0
   20.1038   17.7769   22.6019 H   0  0  0  0  0  0  0  0  0  0  0  0
   21.6726   18.5838   22.5567 H   0  0  0  0  0  0  0  0  0  0  0  0
   21.1384   17.5850   20.7053 C   0  0  0  0  0  0  0  0  0  0  0  0
   20.2444   17.3456   20.1145 H   0  0  0  0  0  0  0  0  0  0  0  0
   21.6287   16.6407   20.9759 H   0  0  0  0  0  0  0  0  0  0  0  0
   21.8280   18.1547   20.0687 H   0  0  0  0  0  0  0  0  0  0  0  0
  1  2  1  0  0  0  0
  1  3  2  0  0  0  0
  1  4  1  0  0  0  0
  4  5  1  0  0  0  0
  4  6  1  0  0  0  0
  4  7  1  0  0  0  0
  7  8  1  0  0  0  0
  7  9  1  0  0  0  0
  7 10  1  0  0  0  0
 10 11  1  0  0  0  0
 10 12  1  0  0  0  0
 10 13  1  0  0  0  0
 13 14  1  0  0  0  0
 13 15  1  0  0  0  0
 13 16  1  0  0  0  0
M  END
> <VConfSearch Rank>
695

> <Conf_Id>
19

> <Delta U+W>
0.048

> <U+W>
-56.856

> <U>
8.276

> <W>
-65.132

> <W(PB)>
-67.031

> <W(SA)>
1.899

> <Valence>
6.513

> <Coulomb>
1.428

> <VdW>
0.335

> <VdW6>
-5.021

> <VdW12>
5.356

> <Bond>
0.092

> <Angle>
2.417

> <Pdih>
4.003

> <Idih>
0.001

> <Tether>
0.000

$$$$
VeraChem MOL file


 16 15  0  0  0  0  0  0  0  0999 V2000     
   18.9188   20.6849   20.5442 C   0  0  0  0  0  0  0  0  0  0  0  0
   19.0783   20.3619   19.3838 O   0  5  0  0  0  0  0  0  0  0  0  0
   19.1560   21.7979   20.9697 O   0  0  0  0  0  0  0  0  0  0  0  0
   18.3685   19.6414   21.5126 C   0  0  0  0  0  0  0  0  0  0  0  0
   17.5246   19.1467   21.0173 H   0  0  0  0  0  0  0  0  0  0  0  0
   17.9623   20.1578   22.3909 H   0  0  0  0  0  0  0  0  0  0  0  0
   19.4070   18.5764   21.9513 C   0  0  0  0  0  0  0  0  0  0  0  0
   18.8943   17.7953   22.5289 H   0  0  0  0  0  0  0  0  0  0  0  0
   19.8258   18.0876   21.0606 H   0  0  0  0  0  0  0  0  0  0  0  0
   20.5468   19.1743   22.8043 C   0  0  0  0  0  0  0  0  0  0  0  0
   20.1257   19.6733   23.6880 H   0  0  0  0  0  0  0  0  0  0  0  0
   21.0804   19.9434   22.2287 H   0  0  0  0  0  0  0  0  0  0  0  0
   21.5456   18.0900   23.2547 C   0  0  0  0  0  0  0  0  0  0  0  0
   21.0466   17.3238   23.8625 H   0  0  0  0  0  0  0  0  0  0  0  0
   22.3491   18.5314   23.8586 H   0  0  0  0  0  0  0  0  0  0  0  0
   22.0050   17.5955   22.3887 H   0  0  0  0  0  0  0  0  0  0  0  0
  1  2  1  0  0  0  0
  1  3  2  0  0  0  0
  1  4  1  0  0  0  0
  4  5  1  0  0  0  0
  4  6  1  0  0  0  0
  4  7  1  0  0  0  0
  7  8  1  0  0  0  0
  7  9  1  0  0  0  0
  7 10  1  0  0  0  0
 10 11  1  0  0  0  0
 10 12  1  0  0  0  0
 10 13  1  0  0  0  0
 13 14  1  0  0  0  0
 13 15  1  0  0  0  0
 13 16  1  0  0  0  0
M  END
> <VConfSearch Rank>
696

> <Conf_Id>
20

> <Delta U+W>
-0.010

> <U+W>
-56.914

> <U>
8.277

> <W>
-65.191

> <W(PB)>
-67.081

> <W(SA)>
1.890

> <Valence>
6.513

> <Coulomb>
1.429

> <VdW>
0.335

> <VdW6>
-5.021

> <VdW12>
5.356

> <Bond>
0.092

> <Angle>
2.417

> <Pdih>
4.002

> <Idih>
0.001

> <Tether>
0.000

$$$$
VeraChem MOL file


 16 15  0  0  0  0  0  0  0  0999 V2000     
   21.5654   19.3493   23.4709 C   0  0  0  0  0  0  0  0  0  0  0  0
   21.8921   18.4913   24.2671 O   0  5  0  0  0  0  0  0  0  0  0  0
   21.5046   20.5311   23.7464 O   0  0  0  0  0  0  0  0  0  0  0  0
   21.2482   18.9206   22.0407 C   0  0  0  0  0  0  0  0  0  0  0  0
   22.0797   18.2944   21.6966 H   0  0  0  0  0  0  0  0  0  0  0  0
   21.2438   19.8096   21.3997 H   0  0  0  0  0  0  0  0  0  0  0  0
   19.9178   18.1325   21.8932 C   0  0  0  0  0  0  0  0  0  0  0  0
   19.8114   17.7972   20.8527 H   0  0  0  0  0  0  0  0  0  0  0  0
   19.9774   17.2222   22.5056 H   0  0  0  0  0  0  0  0  0  0  0  0
   18.6561   18.9288   22.3029 C   0  0  0  0  0  0  0  0  0  0  0  0
   18.7348   19.2406   23.3538 H   0  0  0  0  0  0  0  0  0  0  0  0
   17.7842   18.2631   22.2426 H   0  0  0  0  0  0  0  0  0  0  0  0
   18.4012   20.1649   21.4144 C   0  0  0  0  0  0  0  0  0  0  0  0
   19.1925   20.9150   21.5395 H   0  0  0  0  0  0  0  0  0  0  0  0
   17.4487   20.6401   21.6823 H   0  0  0  0  0  0  0  0  0  0  0  0
   18.3537   19.8850   20.3540 H   0  0  0  0  0  0  0  0  0  0  0  0
  1  2  1  0  0  0  0
  1  3  2  0  0  0  0
  1  4  1  0  0  0  0
  4  5  1  0  0  0  0
  4  6  1  0  0  0  0
  4  7  1  0  0  0  0
  7  8  1  0  0  0  0
  7  9  1  0  0  0  0
  7 10  1  0  0  0  0
 10 11  1  0  0  0  0
 10 12  1  0  0  0  0
 10 13  1  0  0  0  0
 13 14  1  0  0  0  0
 13 15  1  0  0  0  0
 13 16  1  0  0  0  0
M  END
> <VConfSearch Rank>
697

> <Conf_Id>
37

> <Delta U+W>
1.063

> <U+W>
-55.841

> <U>
9.719

> <W>
-65.560

> <W(PB)>
-67.414

> <W(SA)>
1.854

> <Valence>
7.002

> <Coulomb>
2.402

> <VdW>
0.314

> <VdW6>
-5.861

> <VdW12>
6.175

> <Bond>
0.134

> <Angle>
2.733

> <Pdih>
4.133

> <Idih>
0.002

> <Tether>
0.000

$$$$
VeraChem MOL file


 16 15  0  0  0  0  0  0  0  0999 V2000     
   21.3421   17.5995   21.2755 C   0  0  0  0  0  0  0  0  0  0  0  0
   20.8741   16.6020   20.7630 O   0  5  0  0  0  0  0  0  0  0  0  0
   22.2119   18.2730   20.7596 O   0  0  0  0  0  0  0  0  0  0  0  0
   20.8330   18.0060   22.6559 C   0  0  0  0  0  0  0  0  0  0  0  0
   21.5271   18.7372   23.0857 H   0  0  0  0  0  0  0  0  0  0  0  0
   20.8831   17.1174   23.2959 H   0  0  0  0  0  0  0  0  0  0  0  0
   19.3818   18.5600   22.6607 C   0  0  0  0  0  0  0  0  0  0  0  0
   18.7066   17.7837   22.2748 H   0  0  0  0  0  0  0  0  0  0  0  0
   19.0723   18.7497   23.6973 H   0  0  0  0  0  0  0  0  0  0  0  0
   19.1886   19.8495   21.8278 C   0  0  0  0  0  0  0  0  0  0  0  0
   18.1217   20.1118   21.8267 H   0  0  0  0  0  0  0  0  0  0  0  0
   19.4622   19.6629   20.7799 H   0  0  0  0  0  0  0  0  0  0  0  0
   19.9959   21.0493   22.3674 C   0  0  0  0  0  0  0  0  0  0  0  0
   19.7668   21.2349   23.4248 H   0  0  0  0  0  0  0  0  0  0  0  0
   19.7534   21.9594   21.8036 H   0  0  0  0  0  0  0  0  0  0  0  0
   21.0756   20.8779   22.2717 H   0  0  0  0  0  0  0  0  0  0  0  0
  1  2  1  0  0  0  0
  1  3  2  0  0  0  0
  1  4  1  0  0  0  0
  4  5  1  0  0  0  0
  4  6  1  0  0  0  0
  4  7  1  0  0  0  0
  7  8  1  0  0  0  0
  7  9  1  0  0  0  0
  7 10  1  0  0  0  0
 10 11  1  0  0  0  0
 10 12  1  0  0  0  0
 10 13  1  0  0  0  0
 13 14  1  0  0  0  0
 13 15  1  0  0  0  0
 13 16  1  0  0  0  0
M  END
> <VConfSearch Rank>
698

> <Conf_Id>
39

> <Delta U+W>
1.129

> <U+W>
-55.775

> <U>
9.718

> <W>
-65.493

> <W(PB)>
-67.361

> <W(SA)>
1.869

> <Valence>
7.002

> <Coulomb>
2.402

> <VdW>
0.314

> <VdW6>
-5.861

> <VdW12>
6.175

> <Bond>
0.134

> <Angle>
2.734

> <Pdih>
4.133

> <Idih>
0.002

> <Tether>
0.000

$$$$
VeraChem MOL file


 16 15  0  0  0  0  0  0  0  0999 V2000     
   19.3741   20.9151   21.6865 C   0  0  0  0  0  0  0  0  0  0  0  0
   19.3424   21.6833   22.6275 O   0  5  0  0  0  0  0  0  0  0  0  0
   18.4796   20.8221   20.8689 O   0  0  0  0  0  0  0  0  0  0  0  0
   20.6419   20.0904   21.4713 C   0  0  0  0  0  0  0  0  0  0  0  0
   21.3729   20.3510   22.2464 H   0  0  0  0  0  0  0  0  0  0  0  0
   21.0668   20.4207   20.5163 H   0  0  0  0  0  0  0  0  0  0  0  0
   20.4330   18.5505   21.4251 C   0  0  0  0  0  0  0  0  0  0  0  0
   19.5616   18.3094   20.8006 H   0  0  0  0  0  0  0  0  0  0  0  0
   21.3005   18.1058   20.9190 H   0  0  0  0  0  0  0  0  0  0  0  0
   20.2972   17.8741   22.8106 C   0  0  0  0  0  0  0  0  0  0  0  0
   21.1692   18.1192   23.4325 H   0  0  0  0  0  0  0  0  0  0  0  0
   20.3162   16.7847   22.6685 H   0  0  0  0  0  0  0  0  0  0  0  0
   19.0024   18.2464   23.5624 C   0  0  0  0  0  0  0  0  0  0  0  0
   19.0101   19.2978   23.8747 H   0  0  0  0  0  0  0  0  0  0  0  0
   18.8943   17.6344   24.4671 H   0  0  0  0  0  0  0  0  0  0  0  0
   18.1190   18.0798   22.9323 H   0  0  0  0  0  0  0  0  0  0  0  0
  1  2  1  0  0  0  0
  1  3  2  0  0  0  0
  1  4  1  0  0  0  0
  4  5  1  0  0  0  0
  4  6  1  0  0  0  0
  4  7  1  0  0  0  0
  7  8  1  0  0  0  0
  7  9  1  0  0  0  0
  7 10  1  0  0  0  0
 10 11  1  0  0  0  0
 10 12  1  0  0  0  0
 10 13  1  0  0  0  0
 13 14  1  0  0  0  0
 13 15  1  0  0  0  0
 13 16  1  0  0  0  0
M  END
> <VConfSearch Rank>
699

> <Conf_Id>
47

> <Delta U+W>
2.301

> <U+W>
-54.603

> <U>
11.258

> <W>
-65.861

> <W(PB)>
-67.702

> <W(SA)>
1.841

> <Valence>
8.169

> <Coulomb>
2.735

> <VdW>
0.355

> <VdW6>
-6.245

> <VdW12>
6.600

> <Bond>
0.149

> <Angle>
3.168

> <Pdih>
4.840

> <Idih>
0.011

> <Tether>
0.000

$$$$
VeraChem MOL file


 16 15  0  0  0  0  0  0  0  0999 V2000     
   18.2870   20.2348   21.8209 C   0  0  0  0  0  0  0  0  0  0  0  0
   18.6541   21.1807   21.1519 O   0  5  0  0  0  0  0  0  0  0  0  0
   17.5420   20.3400   22.7752 O   0  0  0  0  0  0  0  0  0  0  0  0
   18.7100   18.8323   21.3876 C   0  0  0  0  0  0  0  0  0  0  0  0
   18.2900   18.6786   20.3867 H   0  0  0  0  0  0  0  0  0  0  0  0
   18.2313   18.0962   22.0448 H   0  0  0  0  0  0  0  0  0  0  0  0
   20.2444   18.5880   21.3339 C   0  0  0  0  0  0  0  0  0  0  0  0
   20.4270   17.7199   20.6861 H   0  0  0  0  0  0  0  0  0  0  0  0
   20.7423   19.4385   20.8479 H   0  0  0  0  0  0  0  0  0  0  0  0
   20.9021   18.3000   22.7051 C   0  0  0  0  0  0  0  0  0  0  0  0
   21.9412   17.9873   22.5330 H   0  0  0  0  0  0  0  0  0  0  0  0
   20.4003   17.4504   23.1885 H   0  0  0  0  0  0  0  0  0  0  0  0
   20.9081   19.5113   23.6607 C   0  0  0  0  0  0  0  0  0  0  0  0
   21.5061   19.2920   24.5547 H   0  0  0  0  0  0  0  0  0  0  0  0
   19.8940   19.7609   23.9957 H   0  0  0  0  0  0  0  0  0  0  0  0
   21.3383   20.3959   23.1731 H   0  0  0  0  0  0  0  0  0  0  0  0
  1  2  1  0  0  0  0
  1  3  2  0  0  0  0
  1  4  1  0  0  0  0
  4  5  1  0  0  0  0
  4  6  1  0  0  0  0
  4  7  1  0  0  0  0
  7  8  1  0  0  0  0
  7  9  1  0  0  0  0
  7 10  1  0  0  0  0
 10 11  1  0  0  0  0
 10 12  1  0  0  0  0
 10 13  1  0  0  0  0
 13 14  1  0  0  0  0
 13 15  1  0  0  0  0
 13 16  1  0  0  0  0
M  END
> <VConfSearch Rank>
700

> <Conf_Id>
45

> <Delta U+W>
2.303

> <U+W>
-54.601

> <U>
11.258

> <W>
-65.860

> <W(PB)>
-67.709

> <W(SA)>
1.849

> <Valence>
8.169

> <Coulomb>
2.735

> <VdW>
0.355

> <VdW6>
-6.245

> <VdW12>
6.600

> <Bond>
0.149

> <Angle>
3.168

> <Pdih>
4.840

> <Idih>
0.011

> <Tether>
0.000

$$$$
VeraChem MOL file


 16 15  0  0  0  0  0  0  0  0999 V2000     
   22.0765   20.8872   21.5088 C   0  0  0  0  0  0  0  0  0  0  0  0
   21.3529   21.8169   21.2091 O   0  5  0  0  0  0  0  0  0  0  0  0
   23.2878   20.9728   21.5360 O   0  0  0  0  0  0  0  0  0  0  0  0
   21.4637   19.5338   21.8732 C   0  0  0  0  0  0  0  0  0  0  0  0
   21.8122   19.2774   22.8806 H   0  0  0  0  0  0  0  0  0  0  0  0
   21.8856   18.7885   21.1886 H   0  0  0  0  0  0  0  0  0  0  0  0
   19.9138   19.4720   21.8237 C   0  0  0  0  0  0  0  0  0  0  0  0
   19.4969   20.2244   22.5074 H   0  0  0  0  0  0  0  0  0  0  0  0
   19.5704   19.7350   20.8136 H   0  0  0  0  0  0  0  0  0  0  0  0
   19.3832   18.0739   22.2046 C   0  0  0  0  0  0  0  0  0  0  0  0
   19.7244   17.8104   23.2154 H   0  0  0  0  0  0  0  0  0  0  0  0
   19.7981   17.3207   21.5206 H   0  0  0  0  0  0  0  0  0  0  0  0
   17.8435   18.0189   22.1537 C   0  0  0  0  0  0  0  0  0  0  0  0
   17.4014   18.7413   22.8523 H   0  0  0  0  0  0  0  0  0  0  0  0
   17.4830   17.0187   22.4270 H   0  0  0  0  0  0  0  0  0  0  0  0
   17.4755   18.2480   21.1450 H   0  0  0  0  0  0  0  0  0  0  0  0
  1  2  1  0  0  0  0
  1  3  2  0  0  0  0
  1  4  1  0  0  0  0
  4  5  1  0  0  0  0
  4  6  1  0  0  0  0
  4  7  1  0  0  0  0
  7  8  1  0  0  0  0
  7  9  1  0  0  0  0
  7 10  1  0  0  0  0
 10 11  1  0  0  0  0
 10 12  1  0  0  0  0
 10 13  1  0  0  0  0
 13 14  1  0  0  0  0
 13 15  1  0  0  0  0
 13 16  1  0  0  0  0
M  END
> <VConfSearch Rank>
701

> <Conf_Id>
0

> <Delta U+W>
0.000

> <U+W>
-56.904

> <U>
7.329

> <W>
-64.233

> <W(PB)>
-66.148

> <W(SA)>
1.915

> <Valence>
6.755

> <Coulomb>
-0.421

> <VdW>
0.995

> <VdW6>
-4.495

> <VdW12>
5.490

> <Bond>
0.106

> <Angle>
2.715

> <Pdih>
3.934

> <Idih>
0.000

> <Tether>
0.000

$$$$
VeraChem MOL file


 16 15  0  0  0  0  0  0  0  0999 V2000     
   20.7592   16.4902   22.0711 C   0  0  0  0  0  0  0  0  0  0  0  0
   21.9234   16.2680   21.8042 O   0  5  0  0  0  0  0  0  0  0  0  0
   20.1087   15.8216   22.8493 O   0  0  0  0  0  0  0  0  0  0  0  0
   20.0829   17.6843   21.4067 C   0  0  0  0  0  0  0  0  0  0  0  0
   19.0219   17.4425   21.2695 H   0  0  0  0  0  0  0  0  0  0  0  0
   20.5181   17.8107   20.4080 H   0  0  0  0  0  0  0  0  0  0  0  0
   20.2311   18.9919   22.2229 C   0  0  0  0  0  0  0  0  0  0  0  0
   19.8020   18.8457   23.2240 H   0  0  0  0  0  0  0  0  0  0  0  0
   21.2982   19.2138   22.3625 H   0  0  0  0  0  0  0  0  0  0  0  0
   19.5385   20.1834   21.5292 C   0  0  0  0  0  0  0  0  0  0  0  0
   18.4711   19.9622   21.3901 H   0  0  0  0  0  0  0  0  0  0  0  0
   19.9677   20.3304   20.5284 H   0  0  0  0  0  0  0  0  0  0  0  0
   19.6901   21.4813   22.3470 C   0  0  0  0  0  0  0  0  0  0  0  0
   20.7485   21.7436   22.4749 H   0  0  0  0  0  0  0  0  0  0  0  0
   19.2409   21.3726   23.3430 H   0  0  0  0  0  0  0  0  0  0  0  0
   19.1923   22.3182   21.8402 H   0  0  0  0  0  0  0  0  0  0  0  0
  1  2  1  0  0  0  0
  1  3  2  0  0  0  0
  1  4  1  0  0  0  0
  4  5  1  0  0  0  0
  4  6  1  0  0  0  0
  4  7  1  0  0  0  0
  7  8  1  0  0  0  0
  7  9  1  0  0  0  0
  7 10  1  0  0  0  0
 10 11  1  0  0  0  0
 10 12  1  0  0  0  0
 10 13  1  0  0  0  0
 13 14  1  0  0  0  0
 13 15  1  0  0  0  0
 13 16  1  0  0  0  0
M  END
> <VConfSearch Rank>
702

> <Conf_Id>
22

> <Delta U+W>
-1.185

> <U+W>
-58.089

> <U>
6.298

> <W>
-64.387

> <W(PB)>
-66.329

> <W(SA)>
1.942

> <Valence>
6.246

> <Coulomb>
-0.408

> <VdW>
0.460

> <VdW6>
-4.207

> <VdW12>
4.667

> <Bond>
0.072

> <Angle>
2.246

> <Pdih>
3.928

> <Idih>
0.001

> <Tether>
0.000

$$$$
VeraChem MOL file


 16 15  0  0  0  0  0  0  0  0999 V2000     
   21.1059   18.1408   24.0833 C   0  0  0  0  0  0  0  0  0  0  0  0
   22.3096   17.9955   24.1612 O   0  5  0  0  0  0  0  0  0  0  0  0
   20.3099   17.5270   24.7657 O   0  0  0  0  0  0  0  0  0  0  0  0
   20.5647   19.1328   23.0598 C   0  0  0  0  0  0  0  0  0  0  0  0
   21.2906   19.9487   22.9595 H   0  0  0  0  0  0  0  0  0  0  0  0
   19.6439   19.5652   23.4675 H   0  0  0  0  0  0  0  0  0  0  0  0
   20.2963   18.4836   21.6772 C   0  0  0  0  0  0  0  0  0  0  0  0
   21.2145   17.9853   21.3368 H   0  0  0  0  0  0  0  0  0  0  0  0
   19.5367   17.6968   21.7830 H   0  0  0  0  0  0  0  0  0  0  0  0
   19.8516   19.4970   20.5975 C   0  0  0  0  0  0  0  0  0  0  0  0
   19.7898   18.9786   19.6307 H   0  0  0  0  0  0  0  0  0  0  0  0
   20.6166   20.2775   20.4832 H   0  0  0  0  0  0  0  0  0  0  0  0
   18.4857   20.1493   20.9006 C   0  0  0  0  0  0  0  0  0  0  0  0
   18.5307   20.7734   21.8019 H   0  0  0  0  0  0  0  0  0  0  0  0
   17.7100   19.3864   21.0476 H   0  0  0  0  0  0  0  0  0  0  0  0
   18.1741   20.7918   20.0669 H   0  0  0  0  0  0  0  0  0  0  0  0
  1  2  1  0  0  0  0
  1  3  2  0  0  0  0
  1  4  1  0  0  0  0
  4  5  1  0  0  0  0
  4  6  1  0  0  0  0
  4  7  1  0  0  0  0
  7  8  1  0  0  0  0
  7  9  1  0  0  0  0
  7 10  1  0  0  0  0
 10 11  1  0  0  0  0
 10 12  1  0  0  0  0
 10 13  1  0  0  0  0
 13 14  1  0  0  0  0
 13 15  1  0  0  0  0
 13 16  1  0  0  0  0
M  END
> <VConfSearch Rank>
703

> <Conf_Id>
36

> <Delta U+W>
-0.427

> <U+W>
-57.331

> <U>
7.263

> <W>
-64.594

> <W(PB)>
-66.513

> <W(SA)>
1.920

> <Valence>
6.734

> <Coulomb>
-0.068

> <VdW>
0.598

> <VdW6>
-4.819

> <VdW12>
5.417

> <Bond>
0.107

> <Angle>
2.469

> <Pdih>
4.157

> <Idih>
0.001

> <Tether>
0.000

$$$$
VeraChem MOL file


 16 15  0  0  0  0  0  0  0  0999 V2000     
   19.2489   21.1158   20.4762 C   0  0  0  0  0  0  0  0  0  0  0  0
   20.0791   22.0027   20.4894 O   0  5  0  0  0  0  0  0  0  0  0  0
   18.0992   21.2776   20.1184 O   0  0  0  0  0  0  0  0  0  0  0  0
   19.6667   19.7294   20.9535 C   0  0  0  0  0  0  0  0  0  0  0  0
   20.7204   19.5877   20.6877 H   0  0  0  0  0  0  0  0  0  0  0  0
   19.0869   18.9870   20.3920 H   0  0  0  0  0  0  0  0  0  0  0  0
   19.4573   19.5297   22.4770 C   0  0  0  0  0  0  0  0  0  0  0  0
   20.0756   20.2506   23.0296 H   0  0  0  0  0  0  0  0  0  0  0  0
   18.4123   19.7634   22.7236 H   0  0  0  0  0  0  0  0  0  0  0  0
   19.7723   18.0947   22.9586 C   0  0  0  0  0  0  0  0  0  0  0  0
   19.1457   17.3745   22.4145 H   0  0  0  0  0  0  0  0  0  0  0  0
   19.4952   18.0090   24.0184 H   0  0  0  0  0  0  0  0  0  0  0  0
   21.2595   17.7123   22.8005 C   0  0  0  0  0  0  0  0  0  0  0  0
   21.5534   17.6737   21.7441 H   0  0  0  0  0  0  0  0  0  0  0  0
   21.4491   16.7219   23.2343 H   0  0  0  0  0  0  0  0  0  0  0  0
   21.9077   18.4352   23.3127 H   0  0  0  0  0  0  0  0  0  0  0  0
  1  2  1  0  0  0  0
  1  3  2  0  0  0  0
  1  4  1  0  0  0  0
  4  5  1  0  0  0  0
  4  6  1  0  0  0  0
  4  7  1  0  0  0  0
  7  8  1  0  0  0  0
  7  9  1  0  0  0  0
  7 10  1  0  0  0  0
 10 11  1  0  0  0  0
 10 12  1  0  0  0  0
 10 13  1  0  0  0  0
 13 14  1  0  0  0  0
 13 15  1  0  0  0  0
 13 16  1  0  0  0  0
M  END
> <VConfSearch Rank>
704

> <Conf_Id>
17

> <Delta U+W>
-0.432

> <U+W>
-57.336

> <U>
7.263

> <W>
-64.599

> <W(PB)>
-66.503

> <W(SA)>
1.904

> <Valence>
6.734

> <Coulomb>
-0.068

> <VdW>
0.598

> <VdW6>
-4.819

> <VdW12>
5.417

> <Bond>
0.107

> <Angle>
2.469

> <Pdih>
4.157

> <Idih>
0.001

> <Tether>
0.000

$$$$
VeraChem MOL file


 16 15  0  0  0  0  0  0  0  0999 V2000     
   18.7463   20.1629   20.4721 C   0  0  0  0  0  0  0  0  0  0  0  0
   17.5814   20.2388   20.8090 O   0  5  0  0  0  0  0  0  0  0  0  0
   19.3770   21.0985   20.0216 O   0  0  0  0  0  0  0  0  0  0  0  0
   19.4460   18.8125   20.6002 C   0  0  0  0  0  0  0  0  0  0  0  0
   20.3332   18.8148   19.9554 H   0  0  0  0  0  0  0  0  0  0  0  0
   18.7657   18.0511   20.2006 H   0  0  0  0  0  0  0  0  0  0  0  0
   19.8417   18.4409   22.0530 C   0  0  0  0  0  0  0  0  0  0  0  0
   18.9486   18.4706   22.6926 H   0  0  0  0  0  0  0  0  0  0  0  0
   20.2077   17.4054   22.0689 H   0  0  0  0  0  0  0  0  0  0  0  0
   20.9289   19.3736   22.6293 C   0  0  0  0  0  0  0  0  0  0  0  0
   20.5657   20.4108   22.6374 H   0  0  0  0  0  0  0  0  0  0  0  0
   21.8166   19.3525   21.9821 H   0  0  0  0  0  0  0  0  0  0  0  0
   21.3276   18.9620   24.0604 C   0  0  0  0  0  0  0  0  0  0  0  0
   20.4633   19.0044   24.7361 H   0  0  0  0  0  0  0  0  0  0  0  0
   22.0999   19.6349   24.4552 H   0  0  0  0  0  0  0  0  0  0  0  0
   21.7275   17.9396   24.0784 H   0  0  0  0  0  0  0  0  0  0  0  0
  1  2  1  0  0  0  0
  1  3  2  0  0  0  0
  1  4  1  0  0  0  0
  4  5  1  0  0  0  0
  4  6  1  0  0  0  0
  4  7  1  0  0  0  0
  7  8  1  0  0  0  0
  7  9  1  0  0  0  0
  7 10  1  0  0  0  0
 10 11  1  0  0  0  0
 10 12  1  0  0  0  0
 10 13  1  0  0  0  0
 13 14  1  0  0  0  0
 13 15  1  0  0  0  0
 13 16  1  0  0  0  0
M  END
> <VConfSearch Rank>
705

> <Conf_Id>
19

> <Delta U+W>
0.048

> <U+W>
-56.856

> <U>
8.276

> <W>
-65.132

> <W(PB)>
-67.031

> <W(SA)>
1.899

> <Valence>
6.513

> <Coulomb>
1.428

> <VdW>
0.335

> <VdW6>
-5.021

> <VdW12>
5.356

> <Bond>
0.092

> <Angle>
2.417

> <Pdih>
4.003

> <Idih>
0.001

> <Tether>
0.000

$$$$
VeraChem MOL file


 16 15  0  0  0  0  0  0  0  0999 V2000     
   19.5976   19.0582   24.4407 C   0  0  0  0  0  0  0  0  0  0  0  0
   19.7166   17.9375   24.8948 O   0  5  0  0  0  0  0  0  0  0  0  0
   18.6739   19.7986   24.7143 O   0  0  0  0  0  0  0  0  0  0  0  0
   20.6801   19.5699   23.4942 C   0  0  0  0  0  0  0  0  0  0  0  0
   21.6503   19.3175   23.9381 H   0  0  0  0  0  0  0  0  0  0  0  0
   20.6238   20.6646   23.4564 H   0  0  0  0  0  0  0  0  0  0  0  0
   20.5978   18.9804   22.0621 C   0  0  0  0  0  0  0  0  0  0  0  0
   21.4867   19.2917   21.4969 H   0  0  0  0  0  0  0  0  0  0  0  0
   20.6265   17.8832   22.1177 H   0  0  0  0  0  0  0  0  0  0  0  0
   19.3299   19.4326   21.3057 C   0  0  0  0  0  0  0  0  0  0  0  0
   19.2962   20.5300   21.2616 H   0  0  0  0  0  0  0  0  0  0  0  0
   18.4331   19.1084   21.8520 H   0  0  0  0  0  0  0  0  0  0  0  0
   19.2899   18.8603   19.8748 C   0  0  0  0  0  0  0  0  0  0  0  0
   20.1580   19.1962   19.2927 H   0  0  0  0  0  0  0  0  0  0  0  0
   18.3828   19.1902   19.3518 H   0  0  0  0  0  0  0  0  0  0  0  0
   19.2915   17.7625   19.8911 H   0  0  0  0  0  0  0  0  0  0  0  0
  1  2  1  0  0  0  0
  1  3  2  0  0  0  0
  1  4  1  0  0  0  0
  4  5  1  0  0  0  0
  4  6  1  0  0  0  0
  4  7  1  0  0  0  0
  7  8  1  0  0  0  0
  7  9  1  0  0  0  0
  7 10  1  0  0  0  0
 10 11  1  0  0  0  0
 10 12  1  0  0  0  0
 10 13  1  0  0  0  0
 13 14  1  0  0  0  0
 13 15  1  0  0  0  0
 13 16  1  0  0  0  0
M  END
> <VConfSearch Rank>
706

> <Conf_Id>
20

> <Delta U+W>
-0.010

> <U+W>
-56.914

> <U>
8.277

> <W>
-65.191

> <W(PB)>
-67.081

> <W(SA)>
1.890

> <Valence>
6.513

> <Coulomb>
1.429

> <VdW>
0.335

> <VdW6>
-5.021

> <VdW12>
5.356

> <Bond>
0.092

> <Angle>
2.417

> <Pdih>
4.002

> <Idih>
0.001

> <Tether>
0.000

$$$$
VeraChem MOL file


 16 15  0  0  0  0  0  0  0  0999 V2000     
   20.1134   18.9724   24.2986 C   0  0  0  0  0  0  0  0  0  0  0  0
   20.2037   17.9009   24.8647 O   0  5  0  0  0  0  0  0  0  0  0  0
   19.4019   19.8776   24.6868 O   0  0  0  0  0  0  0  0  0  0  0  0
   20.9659   19.2028   23.0536 C   0  0  0  0  0  0  0  0  0  0  0  0
   21.9954   18.9247   23.3081 H   0  0  0  0  0  0  0  0  0  0  0  0
   20.9806   20.2758   22.8308 H   0  0  0  0  0  0  0  0  0  0  0  0
   20.5083   18.3917   21.8105 C   0  0  0  0  0  0  0  0  0  0  0  0
   21.2209   18.5559   20.9910 H   0  0  0  0  0  0  0  0  0  0  0  0
   20.5568   17.3206   22.0508 H   0  0  0  0  0  0  0  0  0  0  0  0
   19.0806   18.7294   21.3188 C   0  0  0  0  0  0  0  0  0  0  0  0
   18.3532   18.5358   22.1194 H   0  0  0  0  0  0  0  0  0  0  0  0
   18.8217   18.0500   20.4951 H   0  0  0  0  0  0  0  0  0  0  0  0
   18.9344   20.1855   20.8280 C   0  0  0  0  0  0  0  0  0  0  0  0
   19.0642   20.8983   21.6524 H   0  0  0  0  0  0  0  0  0  0  0  0
   17.9356   20.3485   20.4029 H   0  0  0  0  0  0  0  0  0  0  0  0
   19.6750   20.4157   20.0510 H   0  0  0  0  0  0  0  0  0  0  0  0
  1  2  1  0  0  0  0
  1  3  2  0  0  0  0
  1  4  1  0  0  0  0
  4  5  1  0  0  0  0
  4  6  1  0  0  0  0
  4  7  1  0  0  0  0
  7  8  1  0  0  0  0
  7  9  1  0  0  0  0
  7 10  1  0  0  0  0
 10 11  1  0  0  0  0
 10 12  1  0  0  0  0
 10 13  1  0  0  0  0
 13 14  1  0  0  0  0
 13 15  1  0  0  0  0
 13 16  1  0  0  0  0
M  END
> <VConfSearch Rank>
707

> <Conf_Id>
37

> <Delta U+W>
1.063

> <U+W>
-55.841

> <U>
9.719

> <W>
-65.560

> <W(PB)>
-67.414

> <W(SA)>
1.854

> <Valence>
7.002

> <Coulomb>
2.402

> <VdW>
0.314

> <VdW6>
-5.861

> <VdW12>
6.175

> <Bond>
0.134

> <Angle>
2.733

> <Pdih>
4.133

> <Idih>
0.002

> <Tether>
0.000

$$$$
VeraChem MOL file


 16 15  0  0  0  0  0  0  0  0999 V2000     
   18.1563   18.9760   21.3559 C   0  0  0  0  0  0  0  0  0  0  0  0
   17.2636   19.7575   21.6188 O   0  5  0  0  0  0  0  0  0  0  0  0
   18.4113   18.6046   20.2275 O   0  0  0  0  0  0  0  0  0  0  0  0
   18.9766   18.4058   22.5099 C   0  0  0  0  0  0  0  0  0  0  0  0
   19.5359   17.5356   22.1478 H   0  0  0  0  0  0  0  0  0  0  0  0
   18.2687   18.0301   23.2580 H   0  0  0  0  0  0  0  0  0  0  0  0
   19.9324   19.4315   23.1785 C   0  0  0  0  0  0  0  0  0  0  0  0
   19.3346   20.2629   23.5771 H   0  0  0  0  0  0  0  0  0  0  0  0
   20.4190   18.9600   24.0429 H   0  0  0  0  0  0  0  0  0  0  0  0
   21.0162   20.0032   22.2337 C   0  0  0  0  0  0  0  0  0  0  0  0
   21.5831   20.7742   22.7735 H   0  0  0  0  0  0  0  0  0  0  0  0
   20.5411   20.5087   21.3814 H   0  0  0  0  0  0  0  0  0  0  0  0
   21.9999   18.9319   21.7170 C   0  0  0  0  0  0  0  0  0  0  0  0
   22.4625   18.3870   22.5502 H   0  0  0  0  0  0  0  0  0  0  0  0
   22.8019   19.3986   21.1306 H   0  0  0  0  0  0  0  0  0  0  0  0
   21.4933   18.2067   21.0675 H   0  0  0  0  0  0  0  0  0  0  0  0
  1  2  1  0  0  0  0
  1  3  2  0  0  0  0
  1  4  1  0  0  0  0
  4  5  1  0  0  0  0
  4  6  1  0  0  0  0
  4  7  1  0  0  0  0
  7  8  1  0  0  0  0
  7  9  1  0  0  0  0
  7 10  1  0  0  0  0
 10 11  1  0  0  0  0
 10 12  1  0  0  0  0
 10 13  1  0  0  0  0
 13 14  1  0  0  0  0
 13 15  1  0  0  0  0
 13 16  1  0  0  0  0
M  END
> <VConfSearch Rank>
708

> <Conf_Id>
39

> <Delta U+W>
1.129

> <U+W>
-55.775

> <U>
9.718

> <W>
-65.493

> <W(PB)>
-67.361

> <W(SA)>
1.869

> <Valence>
7.002

> <Coulomb>
2.402

> <VdW>
0.314

> <VdW6>
-5.861

> <VdW12>
6.175

> <Bond>
0.134

> <Angle>
2.734

> <Pdih>
4.133

> <Idih>
0.002

> <Tether>
0.000

$$$$
VeraChem MOL file


 16 15  0  0  0  0  0  0  0  0999 V2000     
   21.7473   18.7766   22.9568 C   0  0  0  0  0  0  0  0  0  0  0  0
   21.7865   17.8201   23.7053 O   0  5  0  0  0  0  0  0  0  0  0  0
   22.2453   19.8533   23.2211 O   0  0  0  0  0  0  0  0  0  0  0  0
   21.1185   18.5875   21.5774 C   0  0  0  0  0  0  0  0  0  0  0  0
   20.7927   17.5453   21.4737 H   0  0  0  0  0  0  0  0  0  0  0  0
   21.9229   18.7382   20.8481 H   0  0  0  0  0  0  0  0  0  0  0  0
   19.9468   19.5531   21.2432 C   0  0  0  0  0  0  0  0  0  0  0  0
   20.2087   20.5774   21.5427 H   0  0  0  0  0  0  0  0  0  0  0  0
   19.8289   19.5778   20.1515 H   0  0  0  0  0  0  0  0  0  0  0  0
   18.5833   19.1525   21.8562 C   0  0  0  0  0  0  0  0  0  0  0  0
   18.3261   18.1273   21.5561 H   0  0  0  0  0  0  0  0  0  0  0  0
   17.8066   19.8025   21.4302 H   0  0  0  0  0  0  0  0  0  0  0  0
   18.5312   19.2717   23.3935 C   0  0  0  0  0  0  0  0  0  0  0  0
   19.1723   18.5228   23.8742 H   0  0  0  0  0  0  0  0  0  0  0  0
   17.5078   19.1116   23.7566 H   0  0  0  0  0  0  0  0  0  0  0  0
   18.8564   20.2672   23.7230 H   0  0  0  0  0  0  0  0  0  0  0  0
  1  2  1  0  0  0  0
  1  3  2  0  0  0  0
  1  4  1  0  0  0  0
  4  5  1  0  0  0  0
  4  6  1  0  0  0  0
  4  7  1  0  0  0  0
  7  8  1  0  0  0  0
  7  9  1  0  0  0  0
  7 10  1  0  0  0  0
 10 11  1  0  0  0  0
 10 12  1  0  0  0  0
 10 13  1  0  0  0  0
 13 14  1  0  0  0  0
 13 15  1  0  0  0  0
 13 16  1  0  0  0  0
M  END
> <VConfSearch Rank>
709

> <Conf_Id>
47

> <Delta U+W>
2.301

> <U+W>
-54.603

> <U>
11.258

> <W>
-65.861

> <W(PB)>
-67.702

> <W(SA)>
1.841

> <Valence>
8.169

> <Coulomb>
2.735

> <VdW>
0.355

> <VdW6>
-6.245

> <VdW12>
6.600

> <Bond>
0.149

> <Angle>
3.168

> <Pdih>
4.840

> <Idih>
0.011

> <Tether>
0.000

$$$$
VeraChem MOL file


 16 15  0  0  0  0  0  0  0  0999 V2000     
   18.2428   17.9668   22.2735 C   0  0  0  0  0  0  0  0  0  0  0  0
   17.2937   18.6455   22.6135 O   0  5  0  0  0  0  0  0  0  0  0  0
   18.4788   16.8680   22.7359 O   0  0  0  0  0  0  0  0  0  0  0  0
   19.1338   18.4802   21.1439 C   0  0  0  0  0  0  0  0  0  0  0  0
   18.4913   18.5696   20.2601 H   0  0  0  0  0  0  0  0  0  0  0  0
   19.8863   17.7178   20.9083 H   0  0  0  0  0  0  0  0  0  0  0  0
   19.8203   19.8496   21.4092 C   0  0  0  0  0  0  0  0  0  0  0  0
   20.1148   20.2746   20.4402 H   0  0  0  0  0  0  0  0  0  0  0  0
   19.0961   20.5541   21.8413 H   0  0  0  0  0  0  0  0  0  0  0  0
   21.0861   19.7776   22.2971 C   0  0  0  0  0  0  0  0  0  0  0  0
   21.5744   20.7618   22.2862 H   0  0  0  0  0  0  0  0  0  0  0  0
   21.8067   19.0710   21.8629 H   0  0  0  0  0  0  0  0  0  0  0  0
   20.7988   19.3909   23.7628 C   0  0  0  0  0  0  0  0  0  0  0  0
   21.7065   19.4920   24.3715 H   0  0  0  0  0  0  0  0  0  0  0  0
   20.4627   18.3499   23.8427 H   0  0  0  0  0  0  0  0  0  0  0  0
   20.0251   20.0378   24.1968 H   0  0  0  0  0  0  0  0  0  0  0  0
  1  2  1  0  0  0  0
  1  3  2  0  0  0  0
  1  4  1  0  0  0  0
  4  5  1  0  0  0  0
  4  6  1  0  0  0  0
  4  7  1  0  0  0  0
  7  8  1  0  0  0  0
  7  9  1  0  0  0  0
  7 10  1  0  0  0  0
 10 11  1  0  0  0  0
 10 12  1  0  0  0  0
 10 13  1  0  0  0  0
 13 14  1  0  0  0  0
 13 15  1  0  0  0  0
 13 16  1  0  0  0  0
M  END
> <VConfSearch Rank>
710

> <Conf_Id>
45

> <Delta U+W>
2.303

> <U+W>
-54.601

> <U>
11.258

> <W>
-65.860

> <W(PB)>
-67.709

> <W(SA)>
1.849

> <Valence>
8.169

> <Coulomb>
2.735

> <VdW>
0.355

> <VdW6>
-6.245

> <VdW12>
6.600

> <Bond>
0.149

> <Angle>
3.168

> <Pdih>
4.840

> <Idih>
0.011

> <Tether>
0.000

$$$$
VeraChem MOL file


 16 15  0  0  0  0  0  0  0  0999 V2000     
   19.7438   21.0055   23.9287 C   0  0  0  0  0  0  0  0  0  0  0  0
   18.6240   21.3446   23.5988 O   0  5  0  0  0  0  0  0  0  0  0  0
   20.3338   21.4960   24.8702 O   0  0  0  0  0  0  0  0  0  0  0  0
   20.4702   19.9133   23.1416 C   0  0  0  0  0  0  0  0  0  0  0  0
   20.7280   19.1165   23.8493 H   0  0  0  0  0  0  0  0  0  0  0  0
   21.4137   20.3412   22.7827 H   0  0  0  0  0  0  0  0  0  0  0  0
   19.6780   19.3170   21.9478 C   0  0  0  0  0  0  0  0  0  0  0  0
   18.7314   18.8948   22.3127 H   0  0  0  0  0  0  0  0  0  0  0  0
   19.4178   20.1207   21.2450 H   0  0  0  0  0  0  0  0  0  0  0  0
   20.4839   18.2255   21.2127 C   0  0  0  0  0  0  0  0  0  0  0  0
   20.7433   17.4203   21.9140 H   0  0  0  0  0  0  0  0  0  0  0  0
   21.4301   18.6469   20.8456 H   0  0  0  0  0  0  0  0  0  0  0  0
   19.6920   17.6373   20.0282 C   0  0  0  0  0  0  0  0  0  0  0  0
   18.7542   17.1807   20.3709 H   0  0  0  0  0  0  0  0  0  0  0  0
   20.2789   16.8632   19.5168 H   0  0  0  0  0  0  0  0  0  0  0  0
   19.4460   18.4163   19.2947 H   0  0  0  0  0  0  0  0  0  0  0  0
  1  2  1  0  0  0  0
  1  3  2  0  0  0  0
  1  4  1  0  0  0  0
  4  5  1  0  0  0  0
  4  6  1  0  0  0  0
  4  7  1  0  0  0  0
  7  8  1  0  0  0  0
  7  9  1  0  0  0  0
  7 10  1  0  0  0  0
 10 11  1  0  0  0  0
 10 12  1  0  0  0  0
 10 13  1  0  0  0  0
 13 14  1  0  0  0  0
 13 15  1  0  0  0  0
 13 16  1  0  0  0  0
M  END
> <VConfSearch Rank>
711

> <Conf_Id>
0

> <Delta U+W>
0.000

> <U+W>
-56.904

> <U>
7.329

> <W>
-64.233

> <W(PB)>
-66.148

> <W(SA)>
1.915

> <Valence>
6.755

> <Coulomb>
-0.421

> <VdW>
0.995

> <VdW6>
-4.495

> <VdW12>
5.490

> <Bond>
0.106

> <Angle>
2.715

> <Pdih>
3.934

> <Idih>
0.000

> <Tether>
0.000

$$$$
VeraChem MOL file


 16 15  0  0  0  0  0  0  0  0999 V2000     
   21.1290   20.8258   23.7787 C   0  0  0  0  0  0  0  0  0  0  0  0
   21.2935   20.3464   24.8828 O   0  5  0  0  0  0  0  0  0  0  0  0
   21.8393   21.6927   23.3099 O   0  0  0  0  0  0  0  0  0  0  0  0
   19.9792   20.2979   22.9279 C   0  0  0  0  0  0  0  0  0  0  0  0
   19.6113   21.1209   22.3032 H   0  0  0  0  0  0  0  0  0  0  0  0
   19.1614   20.0108   23.6000 H   0  0  0  0  0  0  0  0  0  0  0  0
   20.3880   19.0961   22.0410 C   0  0  0  0  0  0  0  0  0  0  0  0
   21.2155   19.3956   21.3828 H   0  0  0  0  0  0  0  0  0  0  0  0
   20.7656   18.2855   22.6796 H   0  0  0  0  0  0  0  0  0  0  0  0
   19.2074   18.5818   21.1912 C   0  0  0  0  0  0  0  0  0  0  0  0
   18.8300   19.3919   20.5519 H   0  0  0  0  0  0  0  0  0  0  0  0
   18.3800   18.2816   21.8491 H   0  0  0  0  0  0  0  0  0  0  0  0
   19.6216   17.3859   20.3112 C   0  0  0  0  0  0  0  0  0  0  0  0
   19.9743   16.5483   20.9273 H   0  0  0  0  0  0  0  0  0  0  0  0
   20.4276   17.6668   19.6206 H   0  0  0  0  0  0  0  0  0  0  0  0
   18.7711   17.0325   19.7137 H   0  0  0  0  0  0  0  0  0  0  0  0
  1  2  1  0  0  0  0
  1  3  2  0  0  0  0
  1  4  1  0  0  0  0
  4  5  1  0  0  0  0
  4  6  1  0  0  0  0
  4  7  1  0  0  0  0
  7  8  1  0  0  0  0
  7  9  1  0  0  0  0
  7 10  1  0  0  0  0
 10 11  1  0  0  0  0
 10 12  1  0  0  0  0
 10 13  1  0  0  0  0
 13 14  1  0  0  0  0
 13 15  1  0  0  0  0
 13 16  1  0  0  0  0
M  END
> <VConfSearch Rank>
712

> <Conf_Id>
22

> <Delta U+W>
-1.185

> <U+W>
-58.089

> <U>
6.298

> <W>
-64.387

> <W(PB)>
-66.329

> <W(SA)>
1.942

> <Valence>
6.246

> <Coulomb>
-0.408

> <VdW>
0.460

> <VdW6>
-4.207

> <VdW12>
4.667

> <Bond>
0.072

> <Angle>
2.246

> <Pdih>
3.928

> <Idih>
0.001

> <Tether>
0.000

$$$$
VeraChem MOL file


 16 15  0  0  0  0  0  0  0  0999 V2000     
   20.3499   17.7795   19.8246 C   0  0  0  0  0  0  0  0  0  0  0  0
   20.8810   16.6868   19.8312 O   0  5  0  0  0  0  0  0  0  0  0  0
   20.2846   18.4883   18.8401 O   0  0  0  0  0  0  0  0  0  0  0  0
   19.7509   18.2973   21.1275 C   0  0  0  0  0  0  0  0  0  0  0  0
   19.3805   17.4368   21.6976 H   0  0  0  0  0  0  0  0  0  0  0  0
   18.8832   18.9169   20.8736 H   0  0  0  0  0  0  0  0  0  0  0  0
   20.7667   19.1040   21.9773 C   0  0  0  0  0  0  0  0  0  0  0  0
   21.6603   18.4858   22.1405 H   0  0  0  0  0  0  0  0  0  0  0  0
   21.0982   19.9863   21.4125 H   0  0  0  0  0  0  0  0  0  0  0  0
   20.2086   19.5427   23.3508 C   0  0  0  0  0  0  0  0  0  0  0  0
   21.0189   20.0080   23.9290 H   0  0  0  0  0  0  0  0  0  0  0  0
   19.8879   18.6596   23.9206 H   0  0  0  0  0  0  0  0  0  0  0  0
   19.0379   20.5428   23.2409 C   0  0  0  0  0  0  0  0  0  0  0  0
   18.1607   20.0829   22.7688 H   0  0  0  0  0  0  0  0  0  0  0  0
   19.3264   21.4220   22.6501 H   0  0  0  0  0  0  0  0  0  0  0  0
   18.7350   20.8899   24.2373 H   0  0  0  0  0  0  0  0  0  0  0  0
  1  2  1  0  0  0  0
  1  3  2  0  0  0  0
  1  4  1  0  0  0  0
  4  5  1  0  0  0  0
  4  6  1  0  0  0  0
  4  7  1  0  0  0  0
  7  8  1  0  0  0  0
  7  9  1  0  0  0  0
  7 10  1  0  0  0  0
 10 11  1  0  0  0  0
 10 12  1  0  0  0  0
 10 13  1  0  0  0  0
 13 14  1  0  0  0  0
 13 15  1  0  0  0  0
 13 16  1  0  0  0  0
M  END
> <VConfSearch Rank>
713

> <Conf_Id>
36

> <Delta U+W>
-0.427

> <U+W>
-57.331

> <U>
7.263

> <W>
-64.594

> <W(PB)>
-66.513

> <W(SA)>
1.920

> <Valence>
6.734

> <Coulomb>
-0.068

> <VdW>
0.598

> <VdW6>
-4.819

> <VdW12>
5.417

> <Bond>
0.107

> <Angle>
2.469

> <Pdih>
4.157

> <Idih>
0.001

> <Tether>
0.000

$$$$
VeraChem MOL file


 16 15  0  0  0  0  0  0  0  0999 V2000     
   19.2315   20.5067   24.0628 C   0  0  0  0  0  0  0  0  0  0  0  0
   18.1328   20.9986   23.8989 O   0  5  0  0  0  0  0  0  0  0  0  0
   20.0229   20.8943   24.8991 O   0  0  0  0  0  0  0  0  0  0  0  0
   19.6480   19.3534   23.1566 C   0  0  0  0  0  0  0  0  0  0  0  0
   18.7478   18.7777   22.9129 H   0  0  0  0  0  0  0  0  0  0  0  0
   20.3113   18.6935   23.7285 H   0  0  0  0  0  0  0  0  0  0  0  0
   20.3561   19.8314   21.8623 C   0  0  0  0  0  0  0  0  0  0  0  0
   19.6675   20.4565   21.2772 H   0  0  0  0  0  0  0  0  0  0  0  0
   21.2015   20.4762   22.1398 H   0  0  0  0  0  0  0  0  0  0  0  0
   20.8825   18.6723   20.9850 C   0  0  0  0  0  0  0  0  0  0  0  0
   21.5802   18.0538   21.5664 H   0  0  0  0  0  0  0  0  0  0  0  0
   21.4616   19.0946   20.1522 H   0  0  0  0  0  0  0  0  0  0  0  0
   19.7579   17.7851   20.4097 C   0  0  0  0  0  0  0  0  0  0  0  0
   19.2221   17.2513   21.2045 H   0  0  0  0  0  0  0  0  0  0  0  0
   20.1740   17.0331   19.7268 H   0  0  0  0  0  0  0  0  0  0  0  0
   19.0315   18.3867   19.8478 H   0  0  0  0  0  0  0  0  0  0  0  0
  1  2  1  0  0  0  0
  1  3  2  0  0  0  0
  1  4  1  0  0  0  0
  4  5  1  0  0  0  0
  4  6  1  0  0  0  0
  4  7  1  0  0  0  0
  7  8  1  0  0  0  0
  7  9  1  0  0  0  0
  7 10  1  0  0  0  0
 10 11  1  0  0  0  0
 10 12  1  0  0  0  0
 10 13  1  0  0  0  0
 13 14  1  0  0  0  0
 13 15  1  0  0  0  0
 13 16  1  0  0  0  0
M  END
> <VConfSearch Rank>
714

> <Conf_Id>
17

> <Delta U+W>
-0.432

> <U+W>
-57.336

> <U>
7.263

> <W>
-64.599

> <W(PB)>
-66.503

> <W(SA)>
1.904

> <Valence>
6.734

> <Coulomb>
-0.068

> <VdW>
0.598

> <VdW6>
-4.819

> <VdW12>
5.417

> <Bond>
0.107

> <Angle>
2.469

> <Pdih>
4.157

> <Idih>
0.001

> <Tether>
0.000

$$$$
VeraChem MOL file


 16 15  0  0  0  0  0  0  0  0999 V2000     
   20.7785   19.6687   19.8750 C   0  0  0  0  0  0  0  0  0  0  0  0
   20.0238   19.2286   19.0306 O   0  5  0  0  0  0  0  0  0  0  0  0
   21.1630   20.8211   19.8964 O   0  0  0  0  0  0  0  0  0  0  0  0
   21.2886   18.7150   20.9519 C   0  0  0  0  0  0  0  0  0  0  0  0
   22.1920   19.1448   21.4015 H   0  0  0  0  0  0  0  0  0  0  0  0
   21.5936   17.7882   20.4517 H   0  0  0  0  0  0  0  0  0  0  0  0
   20.2462   18.3892   22.0530 C   0  0  0  0  0  0  0  0  0  0  0  0
   19.3367   17.9866   21.5858 H   0  0  0  0  0  0  0  0  0  0  0  0
   20.6467   17.5969   22.6997 H   0  0  0  0  0  0  0  0  0  0  0  0
   19.8902   19.6190   22.9162 C   0  0  0  0  0  0  0  0  0  0  0  0
   19.4690   20.4115   22.2820 H   0  0  0  0  0  0  0  0  0  0  0  0
   20.8022   20.0279   23.3727 H   0  0  0  0  0  0  0  0  0  0  0  0
   18.8790   19.2603   24.0230 C   0  0  0  0  0  0  0  0  0  0  0  0
   17.9447   18.8773   23.5919 H   0  0  0  0  0  0  0  0  0  0  0  0
   18.6362   20.1448   24.6263 H   0  0  0  0  0  0  0  0  0  0  0  0
   19.2868   18.4935   24.6946 H   0  0  0  0  0  0  0  0  0  0  0  0
  1  2  1  0  0  0  0
  1  3  2  0  0  0  0
  1  4  1  0  0  0  0
  4  5  1  0  0  0  0
  4  6  1  0  0  0  0
  4  7  1  0  0  0  0
  7  8  1  0  0  0  0
  7  9  1  0  0  0  0
  7 10  1  0  0  0  0
 10 11  1  0  0  0  0
 10 12  1  0  0  0  0
 10 13  1  0  0  0  0
 13 14  1  0  0  0  0
 13 15  1  0  0  0  0
 13 16  1  0  0  0  0
M  END
> <VConfSearch Rank>
715

> <Conf_Id>
19

> <Delta U+W>
0.048

> <U+W>
-56.856

> <U>
8.276

> <W>
-65.132

> <W(PB)>
-67.031

> <W(SA)>
1.899

> <Valence>
6.513

> <Coulomb>
1.428

> <VdW>
0.335

> <VdW6>
-5.021

> <VdW12>
5.356

> <Bond>
0.092

> <Angle>
2.417

> <Pdih>
4.003

> <Idih>
0.001

> <Tether>
0.000

$$$$
VeraChem MOL file


 16 15  0  0  0  0  0  0  0  0999 V2000     
   21.0788   20.7085   20.7718 C   0  0  0  0  0  0  0  0  0  0  0  0
   21.4804   20.2440   19.7234 O   0  5  0  0  0  0  0  0  0  0  0  0
   21.7797   21.3381   21.5390 O   0  0  0  0  0  0  0  0  0  0  0  0
   19.6089   20.5094   21.1312 C   0  0  0  0  0  0  0  0  0  0  0  0
   19.0187   20.7320   20.2343 H   0  0  0  0  0  0  0  0  0  0  0  0
   19.3290   21.2528   21.8875 H   0  0  0  0  0  0  0  0  0  0  0  0
   19.2686   19.0819   21.6328 C   0  0  0  0  0  0  0  0  0  0  0  0
   18.1786   18.9897   21.7328 H   0  0  0  0  0  0  0  0  0  0  0  0
   19.5802   18.3467   20.8778 H   0  0  0  0  0  0  0  0  0  0  0  0
   19.9332   18.7543   22.9874 C   0  0  0  0  0  0  0  0  0  0  0  0
   19.6305   19.4973   23.7381 H   0  0  0  0  0  0  0  0  0  0  0  0
   21.0261   18.8234   22.8940 H   0  0  0  0  0  0  0  0  0  0  0  0
   19.5519   17.3438   23.4788 C   0  0  0  0  0  0  0  0  0  0  0  0
   18.4660   17.2551   23.6149 H   0  0  0  0  0  0  0  0  0  0  0  0
   20.0329   17.1266   24.4414 H   0  0  0  0  0  0  0  0  0  0  0  0
   19.8714   16.5780   22.7598 H   0  0  0  0  0  0  0  0  0  0  0  0
  1  2  1  0  0  0  0
  1  3  2  0  0  0  0
  1  4  1  0  0  0  0
  4  5  1  0  0  0  0
  4  6  1  0  0  0  0
  4  7  1  0  0  0  0
  7  8  1  0  0  0  0
  7  9  1  0  0  0  0
  7 10  1  0  0  0  0
 10 11  1  0  0  0  0
 10 12  1  0  0  0  0
 10 13  1  0  0  0  0
 13 14  1  0  0  0  0
 13 15  1  0  0  0  0
 13 16  1  0  0  0  0
M  END
> <VConfSearch Rank>
716

> <Conf_Id>
20

> <Delta U+W>
-0.010

> <U+W>
-56.914

> <U>
8.277

> <W>
-65.191

> <W(PB)>
-67.081

> <W(SA)>
1.890

> <Valence>
6.513

> <Coulomb>
1.429

> <VdW>
0.335

> <VdW6>
-5.021

> <VdW12>
5.356

> <Bond>
0.092

> <Angle>
2.417

> <Pdih>
4.002

> <Idih>
0.001

> <Tether>
0.000

$$$$
VeraChem MOL file


 16 15  0  0  0  0  0  0  0  0999 V2000     
   18.5096   19.9474   23.6452 C   0  0  0  0  0  0  0  0  0  0  0  0
   17.3823   19.5228   23.8058 O   0  5  0  0  0  0  0  0  0  0  0  0
   18.7775   21.1309   23.5831 O   0  0  0  0  0  0  0  0  0  0  0  0
   19.6518   18.9393   23.5509 C   0  0  0  0  0  0  0  0  0  0  0  0
   19.5555   18.2577   24.4041 H   0  0  0  0  0  0  0  0  0  0  0  0
   20.6015   19.4700   23.6837 H   0  0  0  0  0  0  0  0  0  0  0  0
   19.6649   18.1143   22.2348 C   0  0  0  0  0  0  0  0  0  0  0  0
   20.4655   17.3643   22.2879 H   0  0  0  0  0  0  0  0  0  0  0  0
   18.7225   17.5541   22.1603 H   0  0  0  0  0  0  0  0  0  0  0  0
   19.8454   18.9616   20.9528 C   0  0  0  0  0  0  0  0  0  0  0  0
   19.0301   19.6936   20.8699 H   0  0  0  0  0  0  0  0  0  0  0  0
   19.7581   18.3014   20.0789 H   0  0  0  0  0  0  0  0  0  0  0  0
   21.2041   19.6914   20.8918 C   0  0  0  0  0  0  0  0  0  0  0  0
   21.2828   20.4524   21.6787 H   0  0  0  0  0  0  0  0  0  0  0  0
   21.3236   20.1994   19.9262 H   0  0  0  0  0  0  0  0  0  0  0  0
   22.0364   18.9852   21.0083 H   0  0  0  0  0  0  0  0  0  0  0  0
  1  2  1  0  0  0  0
  1  3  2  0  0  0  0
  1  4  1  0  0  0  0
  4  5  1  0  0  0  0
  4  6  1  0  0  0  0
  4  7  1  0  0  0  0
  7  8  1  0  0  0  0
  7  9  1  0  0  0  0
  7 10  1  0  0  0  0
 10 11  1  0  0  0  0
 10 12  1  0  0  0  0
 10 13  1  0  0  0  0
 13 14  1  0  0  0  0
 13 15  1  0  0  0  0
 13 16  1  0  0  0  0
M  END
> <VConfSearch Rank>
717

> <Conf_Id>
37

> <Delta U+W>
1.063

> <U+W>
-55.841

> <U>
9.719

> <W>
-65.560

> <W(PB)>
-67.414

> <W(SA)>
1.854

> <Valence>
7.002

> <Coulomb>
2.402

> <VdW>
0.314

> <VdW6>
-5.861

> <VdW12>
6.175

> <Bond>
0.134

> <Angle>
2.733

> <Pdih>
4.133

> <Idih>
0.002

> <Tether>
0.000

$$$$
VeraChem MOL file


 16 15  0  0  0  0  0  0  0  0999 V2000     
   21.6799   20.1028   21.0317 C   0  0  0  0  0  0  0  0  0  0  0  0
   22.1913   19.6040   20.0486 O   0  5  0  0  0  0  0  0  0  0  0  0
   21.2998   21.2560   21.0774 O   0  0  0  0  0  0  0  0  0  0  0  0
   21.5407   19.2430   22.2851 C   0  0  0  0  0  0  0  0  0  0  0  0
   21.3260   19.8967   23.1383 H   0  0  0  0  0  0  0  0  0  0  0  0
   22.5201   18.7906   22.4800 H   0  0  0  0  0  0  0  0  0  0  0  0
   20.4717   18.1219   22.1718 C   0  0  0  0  0  0  0  0  0  0  0  0
   20.7463   17.4552   21.3426 H   0  0  0  0  0  0  0  0  0  0  0  0
   20.4963   17.5074   23.0818 H   0  0  0  0  0  0  0  0  0  0  0  0
   19.0302   18.6358   21.9435 C   0  0  0  0  0  0  0  0  0  0  0  0
   18.3676   17.7721   21.7947 H   0  0  0  0  0  0  0  0  0  0  0  0
   18.9847   19.2237   21.0162 H   0  0  0  0  0  0  0  0  0  0  0  0
   18.4918   19.4799   23.1182 C   0  0  0  0  0  0  0  0  0  0  0  0
   18.5593   18.9272   24.0642 H   0  0  0  0  0  0  0  0  0  0  0  0
   17.4384   19.7401   22.9523 H   0  0  0  0  0  0  0  0  0  0  0  0
   19.0521   20.4177   23.2241 H   0  0  0  0  0  0  0  0  0  0  0  0
  1  2  1  0  0  0  0
  1  3  2  0  0  0  0
  1  4  1  0  0  0  0
  4  5  1  0  0  0  0
  4  6  1  0  0  0  0
  4  7  1  0  0  0  0
  7  8  1  0  0  0  0
  7  9  1  0  0  0  0
  7 10  1  0  0  0  0
 10 11  1  0  0  0  0
 10 12  1  0  0  0  0
 10 13  1  0  0  0  0
 13 14  1  0  0  0  0
 13 15  1  0  0  0  0
 13 16  1  0  0  0  0
M  END
> <VConfSearch Rank>
718

> <Conf_Id>
39

> <Delta U+W>
1.129

> <U+W>
-55.775

> <U>
9.718

> <W>
-65.493

> <W(PB)>
-67.361

> <W(SA)>
1.869

> <Valence>
7.002

> <Coulomb>
2.402

> <VdW>
0.314

> <VdW6>
-5.861

> <VdW12>
6.175

> <Bond>
0.134

> <Angle>
2.734

> <Pdih>
4.133

> <Idih>
0.002

> <Tether>
0.000

$$$$
VeraChem MOL file


 16 15  0  0  0  0  0  0  0  0999 V2000     
   19.8927   17.3445   21.2853 C   0  0  0  0  0  0  0  0  0  0  0  0
   19.0124   16.6118   21.6914 O   0  5  0  0  0  0  0  0  0  0  0  0
   21.0425   16.9839   21.1264 O   0  0  0  0  0  0  0  0  0  0  0  0
   19.5139   18.7646   20.8689 C   0  0  0  0  0  0  0  0  0  0  0  0
   18.4334   18.8990   21.0013 H   0  0  0  0  0  0  0  0  0  0  0  0
   19.7084   18.8329   19.7922 H   0  0  0  0  0  0  0  0  0  0  0  0
   20.2900   19.8993   21.5948 C   0  0  0  0  0  0  0  0  0  0  0  0
   21.3603   19.6537   21.6364 H   0  0  0  0  0  0  0  0  0  0  0  0
   20.2117   20.8084   20.9835 H   0  0  0  0  0  0  0  0  0  0  0  0
   19.7670   20.2370   23.0118 C   0  0  0  0  0  0  0  0  0  0  0  0
   18.6964   20.4800   22.9663 H   0  0  0  0  0  0  0  0  0  0  0  0
   20.2749   21.1462   23.3620 H   0  0  0  0  0  0  0  0  0  0  0  0
   20.0014   19.1170   24.0467 C   0  0  0  0  0  0  0  0  0  0  0  0
   19.3826   18.2376   23.8306 H   0  0  0  0  0  0  0  0  0  0  0  0
   19.7399   19.4646   25.0545 H   0  0  0  0  0  0  0  0  0  0  0  0
   21.0538   18.8044   24.0578 H   0  0  0  0  0  0  0  0  0  0  0  0
  1  2  1  0  0  0  0
  1  3  2  0  0  0  0
  1  4  1  0  0  0  0
  4  5  1  0  0  0  0
  4  6  1  0  0  0  0
  4  7  1  0  0  0  0
  7  8  1  0  0  0  0
  7  9  1  0  0  0  0
  7 10  1  0  0  0  0
 10 11  1  0  0  0  0
 10 12  1  0  0  0  0
 10 13  1  0  0  0  0
 13 14  1  0  0  0  0
 13 15  1  0  0  0  0
 13 16  1  0  0  0  0
M  END
> <VConfSearch Rank>
719

> <Conf_Id>
47

> <Delta U+W>
2.301

> <U+W>
-54.603

> <U>
11.258

> <W>
-65.861

> <W(PB)>
-67.702

> <W(SA)>
1.841

> <Valence>
8.169

> <Coulomb>
2.735

> <VdW>
0.355

> <VdW6>
-6.245

> <VdW12>
6.600

> <Bond>
0.149

> <Angle>
3.168

> <Pdih>
4.840

> <Idih>
0.011

> <Tether>
0.000

$$$$
VeraChem MOL file


 16 15  0  0  0  0  0  0  0  0999 V2000     
   21.8557   18.9776   22.4768 C   0  0  0  0  0  0  0  0  0  0  0  0
   22.1273   17.8667   22.8883 O   0  5  0  0  0  0  0  0  0  0  0  0
   22.3183   19.9971   22.9494 O   0  0  0  0  0  0  0  0  0  0  0  0
   20.9581   19.0957   21.2464 C   0  0  0  0  0  0  0  0  0  0  0  0
   21.4854   18.5892   20.4297 H   0  0  0  0  0  0  0  0  0  0  0  0
   20.8802   20.1521   20.9616 H   0  0  0  0  0  0  0  0  0  0  0  0
   19.5413   18.4731   21.3952 C   0  0  0  0  0  0  0  0  0  0  0  0
   19.1435   18.2913   20.3877 H   0  0  0  0  0  0  0  0  0  0  0  0
   19.6141   17.4869   21.8745 H   0  0  0  0  0  0  0  0  0  0  0  0
   18.5219   19.3579   22.1524 C   0  0  0  0  0  0  0  0  0  0  0  0
   17.5277   18.8995   22.0594 H   0  0  0  0  0  0  0  0  0  0  0  0
   18.4534   20.3434   21.6714 H   0  0  0  0  0  0  0  0  0  0  0  0
   18.8408   19.5333   23.6517 C   0  0  0  0  0  0  0  0  0  0  0  0
   18.0164   20.0482   24.1619 H   0  0  0  0  0  0  0  0  0  0  0  0
   19.7464   20.1340   23.7999 H   0  0  0  0  0  0  0  0  0  0  0  0
   18.9877   18.5610   24.1399 H   0  0  0  0  0  0  0  0  0  0  0  0
  1  2  1  0  0  0  0
  1  3  2  0  0  0  0
  1  4  1  0  0  0  0
  4  5  1  0  0  0  0
  4  6  1  0  0  0  0
  4  7  1  0  0  0  0
  7  8  1  0  0  0  0
  7  9  1  0  0  0  0
  7 10  1  0  0  0  0
 10 11  1  0  0  0  0
 10 12  1  0  0  0  0
 10 13  1  0  0  0  0
 13 14  1  0  0  0  0
 13 15  1  0  0  0  0
 13 16  1  0  0  0  0
M  END
> <VConfSearch Rank>
720

> <Conf_Id>
45

> <Delta U+W>
2.303

> <U+W>
-54.601

> <U>
11.258

> <W>
-65.860

> <W(PB)>
-67.709

> <W(SA)>
1.849

> <Valence>
8.169

> <Coulomb>
2.735

> <VdW>
0.355

> <VdW6>
-6.245

> <VdW12>
6.600

> <Bond>
0.149

> <Angle>
3.168

> <Pdih>
4.840

> <Idih>
0.011

> <Tether>
0.000

$$$$
VeraChem MOL file


 16 15  0  0  0  0  0  0  0  0999 V2000     
   17.9633   17.8609   23.3020 C   0  0  0  0  0  0  0  0  0  0  0  0
   17.4331   18.8953   23.6580 O   0  5  0  0  0  0  0  0  0  0  0  0
   17.5342   16.7625   23.5931 O   0  0  0  0  0  0  0  0  0  0  0  0
   19.2308   17.9113   22.4472 C   0  0  0  0  0  0  0  0  0  0  0  0
   19.0249   17.3576   21.5235 H   0  0  0  0  0  0  0  0  0  0  0  0
   20.0105   17.3590   22.9851 H   0  0  0  0  0  0  0  0  0  0  0  0
   19.7419   19.3352   22.1012 C   0  0  0  0  0  0  0  0  0  0  0  0
   18.9547   19.8855   21.5673 H   0  0  0  0  0  0  0  0  0  0  0  0
   19.9413   19.8869   23.0304 H   0  0  0  0  0  0  0  0  0  0  0  0
   21.0209   19.2917   21.2388 C   0  0  0  0  0  0  0  0  0  0  0  0
   20.8223   18.7417   20.3084 H   0  0  0  0  0  0  0  0  0  0  0  0
   21.8095   18.7431   21.7724 H   0  0  0  0  0  0  0  0  0  0  0  0
   21.5235   20.7086   20.8986 C   0  0  0  0  0  0  0  0  0  0  0  0
   20.7654   21.2698   20.3366 H   0  0  0  0  0  0  0  0  0  0  0  0
   22.4328   20.6597   20.2854 H   0  0  0  0  0  0  0  0  0  0  0  0
   21.7599   21.2712   21.8113 H   0  0  0  0  0  0  0  0  0  0  0  0
  1  2  1  0  0  0  0
  1  3  2  0  0  0  0
  1  4  1  0  0  0  0
  4  5  1  0  0  0  0
  4  6  1  0  0  0  0
  4  7  1  0  0  0  0
  7  8  1  0  0  0  0
  7  9  1  0  0  0  0
  7 10  1  0  0  0  0
 10 11  1  0  0  0  0
 10 12  1  0  0  0  0
 10 13  1  0  0  0  0
 13 14  1  0  0  0  0
 13 15  1  0  0  0  0
 13 16  1  0  0  0  0
M  END
> <VConfSearch Rank>
721

> <Conf_Id>
0

> <Delta U+W>
0.000

> <U+W>
-56.904

> <U>
7.329

> <W>
-64.233

> <W(PB)>
-66.148

> <W(SA)>
1.915

> <Valence>
6.755

> <Coulomb>
-0.421

> <VdW>
0.995

> <VdW6>
-4.495

> <VdW12>
5.490

> <Bond>
0.106

> <Angle>
2.715

> <Pdih>
3.934

> <Idih>
0.000

> <Tether>
0.000

$$$$
VeraChem MOL file


 16 15  0  0  0  0  0  0  0  0999 V2000     
   17.3973   19.6268   21.4480 C   0  0  0  0  0  0  0  0  0  0  0  0
   17.1836   20.6326   20.8011 O   0  5  0  0  0  0  0  0  0  0  0  0
   16.6891   18.6405   21.4105 O   0  0  0  0  0  0  0  0  0  0  0  0
   18.6319   19.5939   22.3421 C   0  0  0  0  0  0  0  0  0  0  0  0
   18.4051   18.9682   23.2138 H   0  0  0  0  0  0  0  0  0  0  0  0
   18.8129   20.6106   22.7113 H   0  0  0  0  0  0  0  0  0  0  0  0
   19.8894   19.0588   21.6137 C   0  0  0  0  0  0  0  0  0  0  0  0
   19.6884   18.0454   21.2393 H   0  0  0  0  0  0  0  0  0  0  0  0
   20.0962   19.6878   20.7367 H   0  0  0  0  0  0  0  0  0  0  0  0
   21.1232   19.0359   22.5399 C   0  0  0  0  0  0  0  0  0  0  0  0
   20.9170   18.4064   23.4167 H   0  0  0  0  0  0  0  0  0  0  0  0
   21.3249   20.0492   22.9141 H   0  0  0  0  0  0  0  0  0  0  0  0
   22.3708   18.5023   21.8085 C   0  0  0  0  0  0  0  0  0  0  0  0
   22.6187   19.1322   20.9441 H   0  0  0  0  0  0  0  0  0  0  0  0
   22.2078   17.4773   21.4504 H   0  0  0  0  0  0  0  0  0  0  0  0
   23.2386   18.4926   22.4807 H   0  0  0  0  0  0  0  0  0  0  0  0
  1  2  1  0  0  0  0
  1  3  2  0  0  0  0
  1  4  1  0  0  0  0
  4  5  1  0  0  0  0
  4  6  1  0  0  0  0
  4  7  1  0  0  0  0
  7  8  1  0  0  0  0
  7  9  1  0  0  0  0
  7 10  1  0  0  0  0
 10 11  1  0  0  0  0
 10 12  1  0  0  0  0
 10 13  1  0  0  0  0
 13 14  1  0  0  0  0
 13 15  1  0  0  0  0
 13 16  1  0  0  0  0
M  END
> <VConfSearch Rank>
722

> <Conf_Id>
22

> <Delta U+W>
-1.185

> <U+W>
-58.089

> <U>
6.298

> <W>
-64.387

> <W(PB)>
-66.329

> <W(SA)>
1.942

> <Valence>
6.246

> <Coulomb>
-0.408

> <VdW>
0.460

> <VdW6>
-4.207

> <VdW12>
4.667

> <Bond>
0.072

> <Angle>
2.246

> <Pdih>
3.928

> <Idih>
0.001

> <Tether>
0.000

$$$$
VeraChem MOL file


 16 15  0  0  0  0  0  0  0  0999 V2000     
   19.6943   21.6058   21.2315 C   0  0  0  0  0  0  0  0  0  0  0  0
   20.3362   22.5121   21.7241 O   0  5  0  0  0  0  0  0  0  0  0  0
   18.6476   21.7701   20.6371 O   0  0  0  0  0  0  0  0  0  0  0  0
   20.2211   20.1833   21.3851 C   0  0  0  0  0  0  0  0  0  0  0  0
   21.3169   20.2254   21.3968 H   0  0  0  0  0  0  0  0  0  0  0  0
   19.9269   19.6195   20.4925 H   0  0  0  0  0  0  0  0  0  0  0  0
   19.6996   19.4844   22.6675 C   0  0  0  0  0  0  0  0  0  0  0  0
   19.9344   20.1170   23.5348 H   0  0  0  0  0  0  0  0  0  0  0  0
   18.6042   19.4099   22.6248 H   0  0  0  0  0  0  0  0  0  0  0  0
   20.3099   18.0823   22.8957 C   0  0  0  0  0  0  0  0  0  0  0  0
   19.9754   17.7063   23.8725 H   0  0  0  0  0  0  0  0  0  0  0  0
   21.4047   18.1582   22.9503 H   0  0  0  0  0  0  0  0  0  0  0  0
   19.9138   17.0617   21.8074 C   0  0  0  0  0  0  0  0  0  0  0  0
   20.3256   17.3389   20.8289 H   0  0  0  0  0  0  0  0  0  0  0  0
   18.8223   16.9900   21.7145 H   0  0  0  0  0  0  0  0  0  0  0  0
   20.2977   16.0645   22.0588 H   0  0  0  0  0  0  0  0  0  0  0  0
  1  2  1  0  0  0  0
  1  3  2  0  0  0  0
  1  4  1  0  0  0  0
  4  5  1  0  0  0  0
  4  6  1  0  0  0  0
  4  7  1  0  0  0  0
  7  8  1  0  0  0  0
  7  9  1  0  0  0  0
  7 10  1  0  0  0  0
 10 11  1  0  0  0  0
 10 12  1  0  0  0  0
 10 13  1  0  0  0  0
 13 14  1  0  0  0  0
 13 15  1  0  0  0  0
 13 16  1  0  0  0  0
M  END
> <VConfSearch Rank>
723

> <Conf_Id>
36

> <Delta U+W>
-0.427

> <U+W>
-57.331

> <U>
7.263

> <W>
-64.594

> <W(PB)>
-66.513

> <W(SA)>
1.920

> <Valence>
6.734

> <Coulomb>
-0.068

> <VdW>
0.598

> <VdW6>
-4.819

> <VdW12>
5.417

> <Bond>
0.107

> <Angle>
2.469

> <Pdih>
4.157

> <Idih>
0.001

> <Tether>
0.000

$$$$
VeraChem MOL file


 16 15  0  0  0  0  0  0  0  0999 V2000     
   21.8962   17.5587   22.6690 C   0  0  0  0  0  0  0  0  0  0  0  0
   22.6569   18.1021   23.4449 O   0  5  0  0  0  0  0  0  0  0  0  0
   22.1886   16.5738   22.0206 O   0  0  0  0  0  0  0  0  0  0  0  0
   20.5061   18.1569   22.4835 C   0  0  0  0  0  0  0  0  0  0  0  0
   20.1987   18.5919   23.4413 H   0  0  0  0  0  0  0  0  0  0  0  0
   19.8107   17.3391   22.2595 H   0  0  0  0  0  0  0  0  0  0  0  0
   20.4559   19.2239   21.3593 C   0  0  0  0  0  0  0  0  0  0  0  0
   21.1241   20.0578   21.6153 H   0  0  0  0  0  0  0  0  0  0  0  0
   20.8514   18.7815   20.4345 H   0  0  0  0  0  0  0  0  0  0  0  0
   19.0325   19.7610   21.0837 C   0  0  0  0  0  0  0  0  0  0  0  0
   18.3669   18.9286   20.8162 H   0  0  0  0  0  0  0  0  0  0  0  0
   19.0685   20.4237   20.2081 H   0  0  0  0  0  0  0  0  0  0  0  0
   18.4353   20.5412   22.2743 C   0  0  0  0  0  0  0  0  0  0  0  0
   18.2746   19.8884   23.1413 H   0  0  0  0  0  0  0  0  0  0  0  0
   17.4647   20.9748   22.0005 H   0  0  0  0  0  0  0  0  0  0  0  0
   19.0982   21.3618   22.5784 H   0  0  0  0  0  0  0  0  0  0  0  0
  1  2  1  0  0  0  0
  1  3  2  0  0  0  0
  1  4  1  0  0  0  0
  4  5  1  0  0  0  0
  4  6  1  0  0  0  0
  4  7  1  0  0  0  0
  7  8  1  0  0  0  0
  7  9  1  0  0  0  0
  7 10  1  0  0  0  0
 10 11  1  0  0  0  0
 10 12  1  0  0  0  0
 10 13  1  0  0  0  0
 13 14  1  0  0  0  0
 13 15  1  0  0  0  0
 13 16  1  0  0  0  0
M  END
> <VConfSearch Rank>
724

> <Conf_Id>
17

> <Delta U+W>
-0.432

> <U+W>
-57.336

> <U>
7.263

> <W>
-64.599

> <W(PB)>
-66.503

> <W(SA)>
1.904

> <Valence>
6.734

> <Coulomb>
-0.068

> <VdW>
0.598

> <VdW6>
-4.819

> <VdW12>
5.417

> <Bond>
0.107

> <Angle>
2.469

> <Pdih>
4.157

> <Idih>
0.001

> <Tether>
0.000

$$$$
VeraChem MOL file


 16 15  0  0  0  0  0  0  0  0999 V2000     
   18.3221   19.7916   23.4640 C   0  0  0  0  0  0  0  0  0  0  0  0
   17.2428   19.7220   22.9102 O   0  5  0  0  0  0  0  0  0  0  0  0
   18.5416   19.3307   24.5666 O   0  0  0  0  0  0  0  0  0  0  0  0
   19.4549   20.5184   22.7442 C   0  0  0  0  0  0  0  0  0  0  0  0
   20.2171   20.7972   23.4819 H   0  0  0  0  0  0  0  0  0  0  0  0
   19.0436   21.4530   22.3447 H   0  0  0  0  0  0  0  0  0  0  0  0
   20.0981   19.7028   21.5926 C   0  0  0  0  0  0  0  0  0  0  0  0
   19.3188   19.4063   20.8768 H   0  0  0  0  0  0  0  0  0  0  0  0
   20.7994   20.3485   21.0470 H   0  0  0  0  0  0  0  0  0  0  0  0
   20.8474   18.4509   22.0981 C   0  0  0  0  0  0  0  0  0  0  0  0
   20.1506   17.7869   22.6285 H   0  0  0  0  0  0  0  0  0  0  0  0
   21.6180   18.7477   22.8230 H   0  0  0  0  0  0  0  0  0  0  0  0
   21.5051   17.6777   20.9380 C   0  0  0  0  0  0  0  0  0  0  0  0
   20.7518   17.3421   20.2132 H   0  0  0  0  0  0  0  0  0  0  0  0
   22.0323   16.7912   21.3140 H   0  0  0  0  0  0  0  0  0  0  0  0
   22.2336   18.3065   20.4095 H   0  0  0  0  0  0  0  0  0  0  0  0
  1  2  1  0  0  0  0
  1  3  2  0  0  0  0
  1  4  1  0  0  0  0
  4  5  1  0  0  0  0
  4  6  1  0  0  0  0
  4  7  1  0  0  0  0
  7  8  1  0  0  0  0
  7  9  1  0  0  0  0
  7 10  1  0  0  0  0
 10 11  1  0  0  0  0
 10 12  1  0  0  0  0
 10 13  1  0  0  0  0
 13 14  1  0  0  0  0
 13 15  1  0  0  0  0
 13 16  1  0  0  0  0
M  END
> <VConfSearch Rank>
725

> <Conf_Id>
19

> <Delta U+W>
0.048

> <U+W>
-56.856

> <U>
8.276

> <W>
-65.132

> <W(PB)>
-67.031

> <W(SA)>
1.899

> <Valence>
6.513

> <Coulomb>
1.428

> <VdW>
0.335

> <VdW6>
-5.021

> <VdW12>
5.356

> <Bond>
0.092

> <Angle>
2.417

> <Pdih>
4.003

> <Idih>
0.001

> <Tether>
0.000

$$$$
VeraChem MOL file


 16 15  0  0  0  0  0  0  0  0999 V2000     
   21.7864   20.3734   22.7567 C   0  0  0  0  0  0  0  0  0  0  0  0
   21.6771   21.5751   22.6140 O   0  5  0  0  0  0  0  0  0  0  0  0
   22.7458   19.7362   22.3696 O   0  0  0  0  0  0  0  0  0  0  0  0
   20.6682   19.6300   23.4822 C   0  0  0  0  0  0  0  0  0  0  0  0
   20.4130   20.2121   24.3756 H   0  0  0  0  0  0  0  0  0  0  0  0
   21.0575   18.6662   23.8322 H   0  0  0  0  0  0  0  0  0  0  0  0
   19.3940   19.4128   22.6253 C   0  0  0  0  0  0  0  0  0  0  0  0
   18.6010   19.0005   23.2640 H   0  0  0  0  0  0  0  0  0  0  0  0
   19.0320   20.3833   22.2584 H   0  0  0  0  0  0  0  0  0  0  0  0
   19.6345   18.4601   21.4342 C   0  0  0  0  0  0  0  0  0  0  0  0
   20.0082   17.4943   21.8017 H   0  0  0  0  0  0  0  0  0  0  0  0
   20.4124   18.8728   20.7767 H   0  0  0  0  0  0  0  0  0  0  0  0
   18.3453   18.2350   20.6197 C   0  0  0  0  0  0  0  0  0  0  0  0
   17.5588   17.7903   21.2435 H   0  0  0  0  0  0  0  0  0  0  0  0
   18.5337   17.5570   19.7772 H   0  0  0  0  0  0  0  0  0  0  0  0
   17.9669   19.1826   20.2142 H   0  0  0  0  0  0  0  0  0  0  0  0
  1  2  1  0  0  0  0
  1  3  2  0  0  0  0
  1  4  1  0  0  0  0
  4  5  1  0  0  0  0
  4  6  1  0  0  0  0
  4  7  1  0  0  0  0
  7  8  1  0  0  0  0
  7  9  1  0  0  0  0
  7 10  1  0  0  0  0
 10 11  1  0  0  0  0
 10 12  1  0  0  0  0
 10 13  1  0  0  0  0
 13 14  1  0  0  0  0
 13 15  1  0  0  0  0
 13 16  1  0  0  0  0
M  END
> <VConfSearch Rank>
726

> <Conf_Id>
20

> <Delta U+W>
-0.010

> <U+W>
-56.914

> <U>
8.277

> <W>
-65.191

> <W(PB)>
-67.081

> <W(SA)>
1.890

> <Valence>
6.513

> <Coulomb>
1.429

> <VdW>
0.335

> <VdW6>
-5.021

> <VdW12>
5.356

> <Bond>
0.092

> <Angle>
2.417

> <Pdih>
4.002

> <Idih>
0.001

> <Tether>
0.000

$$$$
VeraChem MOL file


 16 15  0  0  0  0  0  0  0  0999 V2000     
   19.0906   17.4274   21.1658 C   0  0  0  0  0  0  0  0  0  0  0  0
   18.1438   16.7863   21.5776 O   0  5  0  0  0  0  0  0  0  0  0  0
   20.1228   16.9211   20.7729 O   0  0  0  0  0  0  0  0  0  0  0  0
   18.9603   18.9471   21.1085 C   0  0  0  0  0  0  0  0  0  0  0  0
   18.0185   19.1740   20.5953 H   0  0  0  0  0  0  0  0  0  0  0  0
   19.7618   19.3454   20.4758 H   0  0  0  0  0  0  0  0  0  0  0  0
   18.9657   19.6388   22.4992 C   0  0  0  0  0  0  0  0  0  0  0  0
   18.7877   20.7146   22.3671 H   0  0  0  0  0  0  0  0  0  0  0  0
   18.1194   19.2565   23.0866 H   0  0  0  0  0  0  0  0  0  0  0  0
   20.2685   19.4342   23.3083 C   0  0  0  0  0  0  0  0  0  0  0  0
   20.4398   18.3620   23.4775 H   0  0  0  0  0  0  0  0  0  0  0  0
   20.1417   19.8874   24.3011 H   0  0  0  0  0  0  0  0  0  0  0  0
   21.5090   20.0558   22.6320 C   0  0  0  0  0  0  0  0  0  0  0  0
   21.7458   19.5460   21.6894 H   0  0  0  0  0  0  0  0  0  0  0  0
   22.3864   19.9683   23.2857 H   0  0  0  0  0  0  0  0  0  0  0  0
   21.3498   21.1209   22.4194 H   0  0  0  0  0  0  0  0  0  0  0  0
  1  2  1  0  0  0  0
  1  3  2  0  0  0  0
  1  4  1  0  0  0  0
  4  5  1  0  0  0  0
  4  6  1  0  0  0  0
  4  7  1  0  0  0  0
  7  8  1  0  0  0  0
  7  9  1  0  0  0  0
  7 10  1  0  0  0  0
 10 11  1  0  0  0  0
 10 12  1  0  0  0  0
 10 13  1  0  0  0  0
 13 14  1  0  0  0  0
 13 15  1  0  0  0  0
 13 16  1  0  0  0  0
M  END
> <VConfSearch Rank>
727

> <Conf_Id>
37

> <Delta U+W>
1.063

> <U+W>
-55.841

> <U>
9.719

> <W>
-65.560

> <W(PB)>
-67.414

> <W(SA)>
1.854

> <Valence>
7.002

> <Coulomb>
2.402

> <VdW>
0.314

> <VdW6>
-5.861

> <VdW12>
6.175

> <Bond>
0.134

> <Angle>
2.733

> <Pdih>
4.133

> <Idih>
0.002

> <Tether>
0.000

$$$$
VeraChem MOL file


 16 15  0  0  0  0  0  0  0  0999 V2000     
   21.2292   20.1193   20.6052 C   0  0  0  0  0  0  0  0  0  0  0  0
   22.1817   20.8449   20.8124 O   0  5  0  0  0  0  0  0  0  0  0  0
   21.2185   19.2547   19.7516 O   0  0  0  0  0  0  0  0  0  0  0  0
   19.9686   20.3305   21.4396 C   0  0  0  0  0  0  0  0  0  0  0  0
   19.1361   19.8041   20.9588 H   0  0  0  0  0  0  0  0  0  0  0  0
   19.7256   21.3987   21.3975 H   0  0  0  0  0  0  0  0  0  0  0  0
   20.1080   19.8946   22.9239 C   0  0  0  0  0  0  0  0  0  0  0  0
   20.9138   20.4790   23.3890 H   0  0  0  0  0  0  0  0  0  0  0  0
   19.1876   20.1552   23.4637 H   0  0  0  0  0  0  0  0  0  0  0  0
   20.4046   18.3889   23.1213 C   0  0  0  0  0  0  0  0  0  0  0  0
   20.5667   18.1989   24.1912 H   0  0  0  0  0  0  0  0  0  0  0  0
   21.3426   18.1225   22.6145 H   0  0  0  0  0  0  0  0  0  0  0  0
   19.2675   17.4736   22.6196 C   0  0  0  0  0  0  0  0  0  0  0  0
   18.3105   17.7428   23.0851 H   0  0  0  0  0  0  0  0  0  0  0  0
   19.4815   16.4257   22.8666 H   0  0  0  0  0  0  0  0  0  0  0  0
   19.1539   17.5408   21.5301 H   0  0  0  0  0  0  0  0  0  0  0  0
  1  2  1  0  0  0  0
  1  3  2  0  0  0  0
  1  4  1  0  0  0  0
  4  5  1  0  0  0  0
  4  6  1  0  0  0  0
  4  7  1  0  0  0  0
  7  8  1  0  0  0  0
  7  9  1  0  0  0  0
  7 10  1  0  0  0  0
 10 11  1  0  0  0  0
 10 12  1  0  0  0  0
 10 13  1  0  0  0  0
 13 14  1  0  0  0  0
 13 15  1  0  0  0  0
 13 16  1  0  0  0  0
M  END
> <VConfSearch Rank>
728

> <Conf_Id>
39

> <Delta U+W>
1.129

> <U+W>
-55.775

> <U>
9.718

> <W>
-65.493

> <W(PB)>
-67.361

> <W(SA)>
1.869

> <Valence>
7.002

> <Coulomb>
2.402

> <VdW>
0.314

> <VdW6>
-5.861

> <VdW12>
6.175

> <Bond>
0.134

> <Angle>
2.734

> <Pdih>
4.133

> <Idih>
0.002

> <Tether>
0.000

$$$$
VeraChem MOL file


 16 15  0  0  0  0  0  0  0  0999 V2000     
   18.0899   19.6069   21.6121 C   0  0  0  0  0  0  0  0  0  0  0  0
   18.0979   19.8044   20.4131 O   0  5  0  0  0  0  0  0  0  0  0  0
   17.5939   20.3750   22.4130 O   0  0  0  0  0  0  0  0  0  0  0  0
   18.6519   18.2837   22.1286 C   0  0  0  0  0  0  0  0  0  0  0  0
   18.9835   17.6795   21.2754 H   0  0  0  0  0  0  0  0  0  0  0  0
   17.8109   17.7477   22.5839 H   0  0  0  0  0  0  0  0  0  0  0  0
   19.7952   18.4104   23.1745 C   0  0  0  0  0  0  0  0  0  0  0  0
   19.5374   19.1751   23.9203 H   0  0  0  0  0  0  0  0  0  0  0  0
   19.8589   17.4613   23.7236 H   0  0  0  0  0  0  0  0  0  0  0  0
   21.1916   18.7030   22.5744 C   0  0  0  0  0  0  0  0  0  0  0  0
   21.4447   17.9375   21.8279 H   0  0  0  0  0  0  0  0  0  0  0  0
   21.9393   18.6126   23.3744 H   0  0  0  0  0  0  0  0  0  0  0  0
   21.3181   20.1051   21.9434 C   0  0  0  0  0  0  0  0  0  0  0  0
   20.7095   20.1907   21.0349 H   0  0  0  0  0  0  0  0  0  0  0  0
   22.3598   20.3073   21.6627 H   0  0  0  0  0  0  0  0  0  0  0  0
   20.9988   20.8846   22.6475 H   0  0  0  0  0  0  0  0  0  0  0  0
  1  2  1  0  0  0  0
  1  3  2  0  0  0  0
  1  4  1  0  0  0  0
  4  5  1  0  0  0  0
  4  6  1  0  0  0  0
  4  7  1  0  0  0  0
  7  8  1  0  0  0  0
  7  9  1  0  0  0  0
  7 10  1  0  0  0  0
 10 11  1  0  0  0  0
 10 12  1  0  0  0  0
 10 13  1  0  0  0  0
 13 14  1  0  0  0  0
 13 15  1  0  0  0  0
 13 16  1  0  0  0  0
M  END
> <VConfSearch Rank>
729

> <Conf_Id>
47

> <Delta U+W>
2.301

> <U+W>
-54.603

> <U>
11.258

> <W>
-65.861

> <W(PB)>
-67.702

> <W(SA)>
1.841

> <Valence>
8.169

> <Coulomb>
2.735

> <VdW>
0.355

> <VdW6>
-6.245

> <VdW12>
6.600

> <Bond>
0.149

> <Angle>
3.168

> <Pdih>
4.840

> <Idih>
0.011

> <Tether>
0.000

$$$$
VeraChem MOL file


 16 15  0  0  0  0  0  0  0  0999 V2000     
   18.4544   18.3552   21.0881 C   0  0  0  0  0  0  0  0  0  0  0  0
   17.7430   17.6302   21.7555 O   0  5  0  0  0  0  0  0  0  0  0  0
   18.9035   18.0378   20.0044 O   0  0  0  0  0  0  0  0  0  0  0  0
   18.7249   19.7710   21.5940 C   0  0  0  0  0  0  0  0  0  0  0  0
   17.7504   20.2699   21.6516 H   0  0  0  0  0  0  0  0  0  0  0  0
   19.3104   20.3131   20.8415 H   0  0  0  0  0  0  0  0  0  0  0  0
   19.4197   19.8592   22.9820 C   0  0  0  0  0  0  0  0  0  0  0  0
   19.2332   20.8612   23.3914 H   0  0  0  0  0  0  0  0  0  0  0  0
   18.9497   19.1540   23.6815 H   0  0  0  0  0  0  0  0  0  0  0  0
   20.9514   19.6385   22.9540 C   0  0  0  0  0  0  0  0  0  0  0  0
   21.3552   19.8795   23.9471 H   0  0  0  0  0  0  0  0  0  0  0  0
   21.4172   20.3441   22.2522 H   0  0  0  0  0  0  0  0  0  0  0  0
   21.3676   18.1972   22.5938 C   0  0  0  0  0  0  0  0  0  0  0  0
   22.4493   18.0656   22.7258 H   0  0  0  0  0  0  0  0  0  0  0  0
   21.1322   17.9630   21.5484 H   0  0  0  0  0  0  0  0  0  0  0  0
   20.8560   17.4674   23.2348 H   0  0  0  0  0  0  0  0  0  0  0  0
  1  2  1  0  0  0  0
  1  3  2  0  0  0  0
  1  4  1  0  0  0  0
  4  5  1  0  0  0  0
  4  6  1  0  0  0  0
  4  7  1  0  0  0  0
  7  8  1  0  0  0  0
  7  9  1  0  0  0  0
  7 10  1  0  0  0  0
 10 11  1  0  0  0  0
 10 12  1  0  0  0  0
 10 13  1  0  0  0  0
 13 14  1  0  0  0  0
 13 15  1  0  0  0  0
 13 16  1  0  0  0  0
M  END
> <VConfSearch Rank>
730

> <Conf_Id>
45

> <Delta U+W>
2.303

> <U+W>
-54.601

> <U>
11.258

> <W>
-65.860

> <W(PB)>
-67.709

> <W(SA)>
1.849

> <Valence>
8.169

> <Coulomb>
2.735

> <VdW>
0.355

> <VdW6>
-6.245

> <VdW12>
6.600

> <Bond>
0.149

> <Angle>
3.168

> <Pdih>
4.840

> <Idih>
0.011

> <Tether>
0.000

$$$$
VeraChem MOL file


 16 15  0  0  0  0  0  0  0  0999 V2000     
   22.4129   20.3254   21.3516 C   0  0  0  0  0  0  0  0  0  0  0  0
   21.9126   21.2723   20.7765 O   0  5  0  0  0  0  0  0  0  0  0  0
   23.6124   20.1925   21.4889 O   0  0  0  0  0  0  0  0  0  0  0  0
   21.5175   19.2339   21.9403 C   0  0  0  0  0  0  0  0  0  0  0  0
   21.7439   19.1670   23.0110 H   0  0  0  0  0  0  0  0  0  0  0  0
   21.8211   18.2823   21.4883 H   0  0  0  0  0  0  0  0  0  0  0  0
   19.9933   19.4460   21.7398 C   0  0  0  0  0  0  0  0  0  0  0  0
   19.6960   20.4033   22.1899 H   0  0  0  0  0  0  0  0  0  0  0  0
   19.7733   19.5176   20.6656 H   0  0  0  0  0  0  0  0  0  0  0  0
   19.1680   18.3008   22.3633 C   0  0  0  0  0  0  0  0  0  0  0  0
   19.3857   18.2292   23.4380 H   0  0  0  0  0  0  0  0  0  0  0  0
   19.4631   17.3430   21.9128 H   0  0  0  0  0  0  0  0  0  0  0  0
   17.6552   18.5171   22.1610 C   0  0  0  0  0  0  0  0  0  0  0  0
   17.3263   19.4540   22.6295 H   0  0  0  0  0  0  0  0  0  0  0  0
   17.0834   17.6945   22.6099 H   0  0  0  0  0  0  0  0  0  0  0  0
   17.4042   18.5612   21.0930 H   0  0  0  0  0  0  0  0  0  0  0  0
  1  2  1  0  0  0  0
  1  3  2  0  0  0  0
  1  4  1  0  0  0  0
  4  5  1  0  0  0  0
  4  6  1  0  0  0  0
  4  7  1  0  0  0  0
  7  8  1  0  0  0  0
  7  9  1  0  0  0  0
  7 10  1  0  0  0  0
 10 11  1  0  0  0  0
 10 12  1  0  0  0  0
 10 13  1  0  0  0  0
 13 14  1  0  0  0  0
 13 15  1  0  0  0  0
 13 16  1  0  0  0  0
M  END
> <VConfSearch Rank>
731

> <Conf_Id>
0

> <Delta U+W>
0.000

> <U+W>
-56.904

> <U>
7.329

> <W>
-64.233

> <W(PB)>
-66.148

> <W(SA)>
1.915

> <Valence>
6.755

> <Coulomb>
-0.421

> <VdW>
0.995

> <VdW6>
-4.495

> <VdW12>
5.490

> <Bond>
0.106

> <Angle>
2.715

> <Pdih>
3.934

> <Idih>
0.000

> <Tether>
0.000

$$$$
VeraChem MOL file


 16 15  0  0  0  0  0  0  0  0999 V2000     
   22.5766   19.8345   22.6571 C   0  0  0  0  0  0  0  0  0  0  0  0
   23.3257   20.0519   21.7258 O   0  5  0  0  0  0  0  0  0  0  0  0
   22.6655   20.3888   23.7345 O   0  0  0  0  0  0  0  0  0  0  0  0
   21.4523   18.8243   22.4570 C   0  0  0  0  0  0  0  0  0  0  0  0
   21.2620   18.3310   23.4180 H   0  0  0  0  0  0  0  0  0  0  0  0
   21.8063   18.0534   21.7618 H   0  0  0  0  0  0  0  0  0  0  0  0
   20.1506   19.4694   21.9211 C   0  0  0  0  0  0  0  0  0  0  0  0
   19.8158   20.2471   22.6215 H   0  0  0  0  0  0  0  0  0  0  0  0
   20.3601   19.9695   20.9653 H   0  0  0  0  0  0  0  0  0  0  0  0
   19.0302   18.4264   21.7277 C   0  0  0  0  0  0  0  0  0  0  0  0
   18.8199   17.9265   22.6834 H   0  0  0  0  0  0  0  0  0  0  0  0
   19.3644   17.6488   21.0268 H   0  0  0  0  0  0  0  0  0  0  0  0
   17.7379   19.0755   21.1942 C   0  0  0  0  0  0  0  0  0  0  0  0
   17.9121   19.5566   20.2228 H   0  0  0  0  0  0  0  0  0  0  0  0
   17.3636   19.8364   21.8916 H   0  0  0  0  0  0  0  0  0  0  0  0
   16.9518   18.3206   21.0624 H   0  0  0  0  0  0  0  0  0  0  0  0
  1  2  1  0  0  0  0
  1  3  2  0  0  0  0
  1  4  1  0  0  0  0
  4  5  1  0  0  0  0
  4  6  1  0  0  0  0
  4  7  1  0  0  0  0
  7  8  1  0  0  0  0
  7  9  1  0  0  0  0
  7 10  1  0  0  0  0
 10 11  1  0  0  0  0
 10 12  1  0  0  0  0
 10 13  1  0  0  0  0
 13 14  1  0  0  0  0
 13 15  1  0  0  0  0
 13 16  1  0  0  0  0
M  END
> <VConfSearch Rank>
732

> <Conf_Id>
22

> <Delta U+W>
-1.185

> <U+W>
-58.089

> <U>
6.298

> <W>
-64.387

> <W(PB)>
-66.329

> <W(SA)>
1.942

> <Valence>
6.246

> <Coulomb>
-0.408

> <VdW>
0.460

> <VdW6>
-4.207

> <VdW12>
4.667

> <Bond>
0.072

> <Angle>
2.246

> <Pdih>
3.928

> <Idih>
0.001

> <Tether>
0.000

$$$$
VeraChem MOL file


 16 15  0  0  0  0  0  0  0  0999 V2000     
   20.4565   18.5467   24.4584 C   0  0  0  0  0  0  0  0  0  0  0  0
   20.1450   17.4769   24.9426 O   0  5  0  0  0  0  0  0  0  0  0  0
   20.6748   19.5439   25.1172 O   0  0  0  0  0  0  0  0  0  0  0  0
   20.5594   18.6480   22.9406 C   0  0  0  0  0  0  0  0  0  0  0  0
   20.8964   17.6777   22.5566 H   0  0  0  0  0  0  0  0  0  0  0  0
   21.3412   19.3796   22.7065 H   0  0  0  0  0  0  0  0  0  0  0  0
   19.2189   19.0505   22.2728 C   0  0  0  0  0  0  0  0  0  0  0  0
   18.4382   18.3482   22.5965 H   0  0  0  0  0  0  0  0  0  0  0  0
   18.9132   20.0425   22.6330 H   0  0  0  0  0  0  0  0  0  0  0  0
   19.2768   19.0510   20.7278 C   0  0  0  0  0  0  0  0  0  0  0  0
   18.2671   19.2373   20.3365 H   0  0  0  0  0  0  0  0  0  0  0  0
   19.5711   18.0557   20.3669 H   0  0  0  0  0  0  0  0  0  0  0  0
   20.2367   20.1156   20.1550 C   0  0  0  0  0  0  0  0  0  0  0  0
   21.2783   19.9042   20.4274 H   0  0  0  0  0  0  0  0  0  0  0  0
   19.9795   21.1165   20.5255 H   0  0  0  0  0  0  0  0  0  0  0  0
   20.1776   20.1354   19.0591 H   0  0  0  0  0  0  0  0  0  0  0  0
  1  2  1  0  0  0  0
  1  3  2  0  0  0  0
  1  4  1  0  0  0  0
  4  5  1  0  0  0  0
  4  6  1  0  0  0  0
  4  7  1  0  0  0  0
  7  8  1  0  0  0  0
  7  9  1  0  0  0  0
  7 10  1  0  0  0  0
 10 11  1  0  0  0  0
 10 12  1  0  0  0  0
 10 13  1  0  0  0  0
 13 14  1  0  0  0  0
 13 15  1  0  0  0  0
 13 16  1  0  0  0  0
M  END
> <VConfSearch Rank>
733

> <Conf_Id>
36

> <Delta U+W>
-0.427

> <U+W>
-57.331

> <U>
7.263

> <W>
-64.594

> <W(PB)>
-66.513

> <W(SA)>
1.920

> <Valence>
6.734

> <Coulomb>
-0.068

> <VdW>
0.598

> <VdW6>
-4.819

> <VdW12>
5.417

> <Bond>
0.107

> <Angle>
2.469

> <Pdih>
4.157

> <Idih>
0.001

> <Tether>
0.000

$$$$
VeraChem MOL file


 16 15  0  0  0  0  0  0  0  0999 V2000     
   18.9146   19.6197   19.6723 C   0  0  0  0  0  0  0  0  0  0  0  0
   19.2583   18.7895   18.8546 O   0  5  0  0  0  0  0  0  0  0  0  0
   18.4617   20.7072   19.3755 O   0  0  0  0  0  0  0  0  0  0  0  0
   19.0792   19.2870   21.1511 C   0  0  0  0  0  0  0  0  0  0  0  0
   18.9266   18.2083   21.2702 H   0  0  0  0  0  0  0  0  0  0  0  0
   18.2786   19.7919   21.7049 H   0  0  0  0  0  0  0  0  0  0  0  0
   20.4631   19.7067   21.7113 C   0  0  0  0  0  0  0  0  0  0  0  0
   21.2548   19.1626   21.1778 H   0  0  0  0  0  0  0  0  0  0  0  0
   20.6215   20.7730   21.4987 H   0  0  0  0  0  0  0  0  0  0  0  0
   20.6062   19.4770   23.2335 C   0  0  0  0  0  0  0  0  0  0  0  0
   19.8217   20.0304   23.7679 H   0  0  0  0  0  0  0  0  0  0  0  0
   21.5650   19.8984   23.5657 H   0  0  0  0  0  0  0  0  0  0  0  0
   20.5531   17.9865   23.6318 C   0  0  0  0  0  0  0  0  0  0  0  0
   19.5686   17.5502   23.4215 H   0  0  0  0  0  0  0  0  0  0  0  0
   20.7456   17.8695   24.7061 H   0  0  0  0  0  0  0  0  0  0  0  0
   21.3105   17.4072   23.0877 H   0  0  0  0  0  0  0  0  0  0  0  0
  1  2  1  0  0  0  0
  1  3  2  0  0  0  0
  1  4  1  0  0  0  0
  4  5  1  0  0  0  0
  4  6  1  0  0  0  0
  4  7  1  0  0  0  0
  7  8  1  0  0  0  0
  7  9  1  0  0  0  0
  7 10  1  0  0  0  0
 10 11  1  0  0  0  0
 10 12  1  0  0  0  0
 10 13  1  0  0  0  0
 13 14  1  0  0  0  0
 13 15  1  0  0  0  0
 13 16  1  0  0  0  0
M  END
> <VConfSearch Rank>
734

> <Conf_Id>
17

> <Delta U+W>
-0.432

> <U+W>
-57.336

> <U>
7.263

> <W>
-64.599

> <W(PB)>
-66.503

> <W(SA)>
1.904

> <Valence>
6.734

> <Coulomb>
-0.068

> <VdW>
0.598

> <VdW6>
-4.819

> <VdW12>
5.417

> <Bond>
0.107

> <Angle>
2.469

> <Pdih>
4.157

> <Idih>
0.001

> <Tether>
0.000

$$$$
VeraChem MOL file


 16 15  0  0  0  0  0  0  0  0999 V2000     
   19.3927   21.1620   21.1169 C   0  0  0  0  0  0  0  0  0  0  0  0
   19.8661   21.3762   20.0186 O   0  5  0  0  0  0  0  0  0  0  0  0
   18.2062   21.2473   21.3645 O   0  0  0  0  0  0  0  0  0  0  0  0
   20.3441   20.7892   22.2506 C   0  0  0  0  0  0  0  0  0  0  0  0
   19.8384   20.9710   23.2068 H   0  0  0  0  0  0  0  0  0  0  0  0
   21.1947   21.4796   22.2057 H   0  0  0  0  0  0  0  0  0  0  0  0
   20.8603   19.3281   22.1880 C   0  0  0  0  0  0  0  0  0  0  0  0
   21.3388   19.1524   21.2144 H   0  0  0  0  0  0  0  0  0  0  0  0
   21.6380   19.1918   22.9516 H   0  0  0  0  0  0  0  0  0  0  0  0
   19.7383   18.2917   22.4139 C   0  0  0  0  0  0  0  0  0  0  0  0
   18.9637   18.4052   21.6427 H   0  0  0  0  0  0  0  0  0  0  0  0
   19.2527   18.4764   23.3821 H   0  0  0  0  0  0  0  0  0  0  0  0
   20.2838   16.8503   22.3803 C   0  0  0  0  0  0  0  0  0  0  0  0
   20.7481   16.6289   21.4103 H   0  0  0  0  0  0  0  0  0  0  0  0
   19.4741   16.1267   22.5416 H   0  0  0  0  0  0  0  0  0  0  0  0
   21.0369   16.6965   23.1643 H   0  0  0  0  0  0  0  0  0  0  0  0
  1  2  1  0  0  0  0
  1  3  2  0  0  0  0
  1  4  1  0  0  0  0
  4  5  1  0  0  0  0
  4  6  1  0  0  0  0
  4  7  1  0  0  0  0
  7  8  1  0  0  0  0
  7  9  1  0  0  0  0
  7 10  1  0  0  0  0
 10 11  1  0  0  0  0
 10 12  1  0  0  0  0
 10 13  1  0  0  0  0
 13 14  1  0  0  0  0
 13 15  1  0  0  0  0
 13 16  1  0  0  0  0
M  END
> <VConfSearch Rank>
735

> <Conf_Id>
19

> <Delta U+W>
0.048

> <U+W>
-56.856

> <U>
8.276

> <W>
-65.132

> <W(PB)>
-67.031

> <W(SA)>
1.899

> <Valence>
6.513

> <Coulomb>
1.428

> <VdW>
0.335

> <VdW6>
-5.021

> <VdW12>
5.356

> <Bond>
0.092

> <Angle>
2.417

> <Pdih>
4.003

> <Idih>
0.001

> <Tether>
0.000

$$$$
VeraChem MOL file


 16 15  0  0  0  0  0  0  0  0999 V2000     
   20.4202   16.8811   22.4036 C   0  0  0  0  0  0  0  0  0  0  0  0
   19.4859   16.2000   22.7772 O   0  5  0  0  0  0  0  0  0  0  0  0
   21.5158   16.8634   22.9285 O   0  0  0  0  0  0  0  0  0  0  0  0
   20.2106   17.7896   21.1952 C   0  0  0  0  0  0  0  0  0  0  0  0
   19.6904   17.2023   20.4293 H   0  0  0  0  0  0  0  0  0  0  0  0
   21.1913   18.0535   20.7807 H   0  0  0  0  0  0  0  0  0  0  0  0
   19.3971   19.0735   21.5032 C   0  0  0  0  0  0  0  0  0  0  0  0
   19.1774   19.5911   20.5596 H   0  0  0  0  0  0  0  0  0  0  0  0
   18.4298   18.7948   21.9438 H   0  0  0  0  0  0  0  0  0  0  0  0
   20.1447   20.0374   22.4500 C   0  0  0  0  0  0  0  0  0  0  0  0
   21.1169   20.3054   22.0138 H   0  0  0  0  0  0  0  0  0  0  0  0
   20.3520   19.5364   23.4059 H   0  0  0  0  0  0  0  0  0  0  0  0
   19.3293   21.3191   22.7124 C   0  0  0  0  0  0  0  0  0  0  0  0
   19.1359   21.8604   21.7770 H   0  0  0  0  0  0  0  0  0  0  0  0
   19.8739   21.9923   23.3872 H   0  0  0  0  0  0  0  0  0  0  0  0
   18.3635   21.0814   23.1775 H   0  0  0  0  0  0  0  0  0  0  0  0
  1  2  1  0  0  0  0
  1  3  2  0  0  0  0
  1  4  1  0  0  0  0
  4  5  1  0  0  0  0
  4  6  1  0  0  0  0
  4  7  1  0  0  0  0
  7  8  1  0  0  0  0
  7  9  1  0  0  0  0
  7 10  1  0  0  0  0
 10 11  1  0  0  0  0
 10 12  1  0  0  0  0
 10 13  1  0  0  0  0
 13 14  1  0  0  0  0
 13 15  1  0  0  0  0
 13 16  1  0  0  0  0
M  END
> <VConfSearch Rank>
736

> <Conf_Id>
20

> <Delta U+W>
-0.010

> <U+W>
-56.914

> <U>
8.277

> <W>
-65.191

> <W(PB)>
-67.081

> <W(SA)>
1.890

> <Valence>
6.513

> <Coulomb>
1.429

> <VdW>
0.335

> <VdW6>
-5.021

> <VdW12>
5.356

> <Bond>
0.092

> <Angle>
2.417

> <Pdih>
4.002

> <Idih>
0.001

> <Tether>
0.000

$$$$
VeraChem MOL file


 16 15  0  0  0  0  0  0  0  0999 V2000     
   18.5885   20.2500   23.5175 C   0  0  0  0  0  0  0  0  0  0  0  0
   17.7047   19.7259   24.1664 O   0  5  0  0  0  0  0  0  0  0  0  0
   18.4406   21.2830   22.8952 O   0  0  0  0  0  0  0  0  0  0  0  0
   19.9656   19.5917   23.5136 C   0  0  0  0  0  0  0  0  0  0  0  0
   20.2392   19.4031   24.5584 H   0  0  0  0  0  0  0  0  0  0  0  0
   20.6977   20.3095   23.1262 H   0  0  0  0  0  0  0  0  0  0  0  0
   20.0313   18.2592   22.7181 C   0  0  0  0  0  0  0  0  0  0  0  0
   21.0304   17.8184   22.8358 H   0  0  0  0  0  0  0  0  0  0  0  0
   19.3253   17.5460   23.1656 H   0  0  0  0  0  0  0  0  0  0  0  0
   19.7116   18.3999   21.2108 C   0  0  0  0  0  0  0  0  0  0  0  0
   18.6998   18.8080   21.0791 H   0  0  0  0  0  0  0  0  0  0  0  0
   19.7026   17.3992   20.7575 H   0  0  0  0  0  0  0  0  0  0  0  0
   20.7273   19.2809   20.4527 C   0  0  0  0  0  0  0  0  0  0  0  0
   20.6810   20.3236   20.7920 H   0  0  0  0  0  0  0  0  0  0  0  0
   20.5137   19.2728   19.3761 H   0  0  0  0  0  0  0  0  0  0  0  0
   21.7520   18.9145   20.5975 H   0  0  0  0  0  0  0  0  0  0  0  0
  1  2  1  0  0  0  0
  1  3  2  0  0  0  0
  1  4  1  0  0  0  0
  4  5  1  0  0  0  0
  4  6  1  0  0  0  0
  4  7  1  0  0  0  0
  7  8  1  0  0  0  0
  7  9  1  0  0  0  0
  7 10  1  0  0  0  0
 10 11  1  0  0  0  0
 10 12  1  0  0  0  0
 10 13  1  0  0  0  0
 13 14  1  0  0  0  0
 13 15  1  0  0  0  0
 13 16  1  0  0  0  0
M  END
> <VConfSearch Rank>
737

> <Conf_Id>
37

> <Delta U+W>
1.063

> <U+W>
-55.841

> <U>
9.719

> <W>
-65.560

> <W(PB)>
-67.414

> <W(SA)>
1.854

> <Valence>
7.002

> <Coulomb>
2.402

> <VdW>
0.314

> <VdW6>
-5.861

> <VdW12>
6.175

> <Bond>
0.134

> <Angle>
2.733

> <Pdih>
4.133

> <Idih>
0.002

> <Tether>
0.000

$$$$
VeraChem MOL file


 16 15  0  0  0  0  0  0  0  0999 V2000     
   20.7282   20.1682   20.3835 C   0  0  0  0  0  0  0  0  0  0  0  0
   19.9657   20.3970   19.4654 O   0  5  0  0  0  0  0  0  0  0  0  0
   21.4882   20.9959   20.8457 O   0  0  0  0  0  0  0  0  0  0  0  0
   20.7552   18.7559   20.9618 C   0  0  0  0  0  0  0  0  0  0  0  0
   21.6593   18.6421   21.5707 H   0  0  0  0  0  0  0  0  0  0  0  0
   20.8589   18.0614   20.1198 H   0  0  0  0  0  0  0  0  0  0  0  0
   19.4912   18.3807   21.7829 C   0  0  0  0  0  0  0  0  0  0  0  0
   18.6112   18.4532   21.1288 H   0  0  0  0  0  0  0  0  0  0  0  0
   19.5605   17.3284   22.0900 H   0  0  0  0  0  0  0  0  0  0  0  0
   19.2583   19.2615   23.0334 C   0  0  0  0  0  0  0  0  0  0  0  0
   18.3038   18.9732   23.4948 H   0  0  0  0  0  0  0  0  0  0  0  0
   19.1523   20.3140   22.7356 H   0  0  0  0  0  0  0  0  0  0  0  0
   20.3795   19.1323   24.0863 C   0  0  0  0  0  0  0  0  0  0  0  0
   20.5300   18.0840   24.3752 H   0  0  0  0  0  0  0  0  0  0  0  0
   20.1236   19.6994   24.9906 H   0  0  0  0  0  0  0  0  0  0  0  0
   21.3303   19.5268   23.7057 H   0  0  0  0  0  0  0  0  0  0  0  0
  1  2  1  0  0  0  0
  1  3  2  0  0  0  0
  1  4  1  0  0  0  0
  4  5  1  0  0  0  0
  4  6  1  0  0  0  0
  4  7  1  0  0  0  0
  7  8  1  0  0  0  0
  7  9  1  0  0  0  0
  7 10  1  0  0  0  0
 10 11  1  0  0  0  0
 10 12  1  0  0  0  0
 10 13  1  0  0  0  0
 13 14  1  0  0  0  0
 13 15  1  0  0  0  0
 13 16  1  0  0  0  0
M  END
> <VConfSearch Rank>
738

> <Conf_Id>
39

> <Delta U+W>
1.129

> <U+W>
-55.775

> <U>
9.718

> <W>
-65.493

> <W(PB)>
-67.361

> <W(SA)>
1.869

> <Valence>
7.002

> <Coulomb>
2.402

> <VdW>
0.314

> <VdW6>
-5.861

> <VdW12>
6.175

> <Bond>
0.134

> <Angle>
2.734

> <Pdih>
4.133

> <Idih>
0.002

> <Tether>
0.000

$$$$
VeraChem MOL file


 16 15  0  0  0  0  0  0  0  0999 V2000     
   20.3943   18.4549   24.0982 C   0  0  0  0  0  0  0  0  0  0  0  0
   20.2382   17.2549   24.2100 O   0  5  0  0  0  0  0  0  0  0  0  0
   19.9829   19.2611   24.9093 O   0  0  0  0  0  0  0  0  0  0  0  0
   21.2279   18.9672   22.9251 C   0  0  0  0  0  0  0  0  0  0  0  0
   21.5851   18.1109   22.3402 H   0  0  0  0  0  0  0  0  0  0  0  0
   22.1154   19.4411   23.3605 H   0  0  0  0  0  0  0  0  0  0  0  0
   20.5127   19.9906   21.9986 C   0  0  0  0  0  0  0  0  0  0  0  0
   19.9816   20.7374   22.6051 H   0  0  0  0  0  0  0  0  0  0  0  0
   21.2838   20.5432   21.4450 H   0  0  0  0  0  0  0  0  0  0  0  0
   19.5479   19.3626   20.9641 C   0  0  0  0  0  0  0  0  0  0  0  0
   20.0821   18.6153   20.3613 H   0  0  0  0  0  0  0  0  0  0  0  0
   19.2267   20.1488   20.2669 H   0  0  0  0  0  0  0  0  0  0  0  0
   18.2919   18.7223   21.5908 C   0  0  0  0  0  0  0  0  0  0  0  0
   18.5466   17.8251   22.1680 H   0  0  0  0  0  0  0  0  0  0  0  0
   17.5835   18.4210   20.8084 H   0  0  0  0  0  0  0  0  0  0  0  0
   17.7806   19.4285   22.2581 H   0  0  0  0  0  0  0  0  0  0  0  0
  1  2  1  0  0  0  0
  1  3  2  0  0  0  0
  1  4  1  0  0  0  0
  4  5  1  0  0  0  0
  4  6  1  0  0  0  0
  4  7  1  0  0  0  0
  7  8  1  0  0  0  0
  7  9  1  0  0  0  0
  7 10  1  0  0  0  0
 10 11  1  0  0  0  0
 10 12  1  0  0  0  0
 10 13  1  0  0  0  0
 13 14  1  0  0  0  0
 13 15  1  0  0  0  0
 13 16  1  0  0  0  0
M  END
> <VConfSearch Rank>
739

> <Conf_Id>
47

> <Delta U+W>
2.301

> <U+W>
-54.603

> <U>
11.258

> <W>
-65.861

> <W(PB)>
-67.702

> <W(SA)>
1.841

> <Valence>
8.169

> <Coulomb>
2.735

> <VdW>
0.355

> <VdW6>
-6.245

> <VdW12>
6.600

> <Bond>
0.149

> <Angle>
3.168

> <Pdih>
4.840

> <Idih>
0.011

> <Tether>
0.000

$$$$
VeraChem MOL file


 16 15  0  0  0  0  0  0  0  0999 V2000     
   19.5774   17.1418   22.1821 C   0  0  0  0  0  0  0  0  0  0  0  0
   20.2521   16.6100   23.0418 O   0  5  0  0  0  0  0  0  0  0  0  0
   19.5315   16.7520   21.0319 O   0  0  0  0  0  0  0  0  0  0  0  0
   18.6716   18.3035   22.5864 C   0  0  0  0  0  0  0  0  0  0  0  0
   17.9655   17.9026   23.3229 H   0  0  0  0  0  0  0  0  0  0  0  0
   18.0771   18.6115   21.7177 H   0  0  0  0  0  0  0  0  0  0  0  0
   19.4002   19.5311   23.2021 C   0  0  0  0  0  0  0  0  0  0  0  0
   18.6620   20.1142   23.7691 H   0  0  0  0  0  0  0  0  0  0  0  0
   20.1474   19.1947   23.9342 H   0  0  0  0  0  0  0  0  0  0  0  0
   20.0573   20.4785   22.1694 C   0  0  0  0  0  0  0  0  0  0  0  0
   20.3980   21.3816   22.6943 H   0  0  0  0  0  0  0  0  0  0  0  0
   19.3075   20.8110   21.4383 H   0  0  0  0  0  0  0  0  0  0  0  0
   21.2620   19.8581   21.4318 C   0  0  0  0  0  0  0  0  0  0  0  0
   21.7694   20.6155   20.8205 H   0  0  0  0  0  0  0  0  0  0  0  0
   20.9465   19.0501   20.7605 H   0  0  0  0  0  0  0  0  0  0  0  0
   21.9925   19.4507   22.1430 H   0  0  0  0  0  0  0  0  0  0  0  0
  1  2  1  0  0  0  0
  1  3  2  0  0  0  0
  1  4  1  0  0  0  0
  4  5  1  0  0  0  0
  4  6  1  0  0  0  0
  4  7  1  0  0  0  0
  7  8  1  0  0  0  0
  7  9  1  0  0  0  0
  7 10  1  0  0  0  0
 10 11  1  0  0  0  0
 10 12  1  0  0  0  0
 10 13  1  0  0  0  0
 13 14  1  0  0  0  0
 13 15  1  0  0  0  0
 13 16  1  0  0  0  0
M  END
> <VConfSearch Rank>
740

> <Conf_Id>
45

> <Delta U+W>
2.303

> <U+W>
-54.601

> <U>
11.258

> <W>
-65.860

> <W(PB)>
-67.709

> <W(SA)>
1.849

> <Valence>
8.169

> <Coulomb>
2.735

> <VdW>
0.355

> <VdW6>
-6.245

> <VdW12>
6.600

> <Bond>
0.149

> <Angle>
3.168

> <Pdih>
4.840

> <Idih>
0.011

> <Tether>
0.000

$$$$
VeraChem MOL file


 16 15  0  0  0  0  0  0  0  0999 V2000     
   22.5064   18.2682   22.7003 C   0  0  0  0  0  0  0  0  0  0  0  0
   22.8870   19.3750   23.0287 O   0  5  0  0  0  0  0  0  0  0  0  0
   23.2024   17.2764   22.7849 O   0  0  0  0  0  0  0  0  0  0  0  0
   21.0907   18.0830   22.1511 C   0  0  0  0  0  0  0  0  0  0  0  0
   20.5844   17.3511   22.7915 H   0  0  0  0  0  0  0  0  0  0  0  0
   21.1821   17.6301   21.1568 H   0  0  0  0  0  0  0  0  0  0  0  0
   20.2393   19.3773   22.0606 C   0  0  0  0  0  0  0  0  0  0  0  0
   20.1559   19.8294   23.0586 H   0  0  0  0  0  0  0  0  0  0  0  0
   20.7542   20.1086   21.4222 H   0  0  0  0  0  0  0  0  0  0  0  0
   18.8298   19.0984   21.4977 C   0  0  0  0  0  0  0  0  0  0  0  0
   18.3132   18.3684   22.1363 H   0  0  0  0  0  0  0  0  0  0  0  0
   18.9118   18.6478   20.4988 H   0  0  0  0  0  0  0  0  0  0  0  0
   17.9891   20.3874   21.4103 C   0  0  0  0  0  0  0  0  0  0  0  0
   17.8645   20.8430   22.4014 H   0  0  0  0  0  0  0  0  0  0  0  0
   16.9906   20.1716   21.0084 H   0  0  0  0  0  0  0  0  0  0  0  0
   18.4676   21.1244   20.7519 H   0  0  0  0  0  0  0  0  0  0  0  0
  1  2  1  0  0  0  0
  1  3  2  0  0  0  0
  1  4  1  0  0  0  0
  4  5  1  0  0  0  0
  4  6  1  0  0  0  0
  4  7  1  0  0  0  0
  7  8  1  0  0  0  0
  7  9  1  0  0  0  0
  7 10  1  0  0  0  0
 10 11  1  0  0  0  0
 10 12  1  0  0  0  0
 10 13  1  0  0  0  0
 13 14  1  0  0  0  0
 13 15  1  0  0  0  0
 13 16  1  0  0  0  0
M  END
> <VConfSearch Rank>
741

> <Conf_Id>
0

> <Delta U+W>
0.000

> <U+W>
-56.904

> <U>
7.329

> <W>
-64.233

> <W(PB)>
-66.148

> <W(SA)>
1.915

> <Valence>
6.755

> <Coulomb>
-0.421

> <VdW>
0.995

> <VdW6>
-4.495

> <VdW12>
5.490

> <Bond>
0.106

> <Angle>
2.715

> <Pdih>
3.934

> <Idih>
0.000

> <Tether>
0.000

$$$$
VeraChem MOL file


 16 15  0  0  0  0  0  0  0  0999 V2000     
   17.4205   18.8576   22.6835 C   0  0  0  0  0  0  0  0  0  0  0  0
   17.1730   17.8585   23.3288 O   0  5  0  0  0  0  0  0  0  0  0  0
   16.8186   19.9052   22.8096 O   0  0  0  0  0  0  0  0  0  0  0  0
   18.5607   18.7987   21.6731 C   0  0  0  0  0  0  0  0  0  0  0  0
   18.3132   19.4678   20.8401 H   0  0  0  0  0  0  0  0  0  0  0  0
   18.6054   17.7804   21.2682 H   0  0  0  0  0  0  0  0  0  0  0  0
   19.9286   19.1906   22.2843 C   0  0  0  0  0  0  0  0  0  0  0  0
   19.8642   20.2073   22.6962 H   0  0  0  0  0  0  0  0  0  0  0  0
   20.1564   18.5198   23.1243 H   0  0  0  0  0  0  0  0  0  0  0  0
   21.0639   19.1227   21.2417 C   0  0  0  0  0  0  0  0  0  0  0  0
   20.8368   19.7938   20.4018 H   0  0  0  0  0  0  0  0  0  0  0  0
   21.1290   18.1059   20.8300 H   0  0  0  0  0  0  0  0  0  0  0  0
   22.4221   19.5139   21.8570 C   0  0  0  0  0  0  0  0  0  0  0  0
   22.6893   18.8387   22.6805 H   0  0  0  0  0  0  0  0  0  0  0  0
   22.3949   20.5391   22.2491 H   0  0  0  0  0  0  0  0  0  0  0  0
   23.2181   19.4604   21.1029 H   0  0  0  0  0  0  0  0  0  0  0  0
  1  2  1  0  0  0  0
  1  3  2  0  0  0  0
  1  4  1  0  0  0  0
  4  5  1  0  0  0  0
  4  6  1  0  0  0  0
  4  7  1  0  0  0  0
  7  8  1  0  0  0  0
  7  9  1  0  0  0  0
  7 10  1  0  0  0  0
 10 11  1  0  0  0  0
 10 12  1  0  0  0  0
 10 13  1  0  0  0  0
 13 14  1  0  0  0  0
 13 15  1  0  0  0  0
 13 16  1  0  0  0  0
M  END
> <VConfSearch Rank>
742

> <Conf_Id>
22

> <Delta U+W>
-1.185

> <U+W>
-58.089

> <U>
6.298

> <W>
-64.387

> <W(PB)>
-66.329

> <W(SA)>
1.942

> <Valence>
6.246

> <Coulomb>
-0.408

> <VdW>
0.460

> <VdW6>
-4.207

> <VdW12>
4.667

> <Bond>
0.072

> <Angle>
2.246

> <Pdih>
3.928

> <Idih>
0.001

> <Tether>
0.000

$$$$
VeraChem MOL file


 16 15  0  0  0  0  0  0  0  0999 V2000     
   21.3478   16.9806   21.6752 C   0  0  0  0  0  0  0  0  0  0  0  0
   22.2354   16.8899   20.8506 O   0  5  0  0  0  0  0  0  0  0  0  0
   20.7785   16.0218   22.1573 O   0  0  0  0  0  0  0  0  0  0  0  0
   20.9114   18.3742   22.1135 C   0  0  0  0  0  0  0  0  0  0  0  0
   21.7878   19.0323   22.0783 H   0  0  0  0  0  0  0  0  0  0  0  0
   20.5939   18.3113   23.1606 H   0  0  0  0  0  0  0  0  0  0  0  0
   19.7734   18.9524   21.2328 C   0  0  0  0  0  0  0  0  0  0  0  0
   20.0901   18.9211   20.1811 H   0  0  0  0  0  0  0  0  0  0  0  0
   18.8869   18.3078   21.3096 H   0  0  0  0  0  0  0  0  0  0  0  0
   19.3942   20.4071   21.5942 C   0  0  0  0  0  0  0  0  0  0  0  0
   18.6653   20.7751   20.8590 H   0  0  0  0  0  0  0  0  0  0  0  0
   20.2780   21.0540   21.5061 H   0  0  0  0  0  0  0  0  0  0  0  0
   18.7888   20.5451   23.0075 C   0  0  0  0  0  0  0  0  0  0  0  0
   19.5225   20.2954   23.7841 H   0  0  0  0  0  0  0  0  0  0  0  0
   17.9199   19.8851   23.1288 H   0  0  0  0  0  0  0  0  0  0  0  0
   18.4568   21.5765   23.1835 H   0  0  0  0  0  0  0  0  0  0  0  0
  1  2  1  0  0  0  0
  1  3  2  0  0  0  0
  1  4  1  0  0  0  0
  4  5  1  0  0  0  0
  4  6  1  0  0  0  0
  4  7  1  0  0  0  0
  7  8  1  0  0  0  0
  7  9  1  0  0  0  0
  7 10  1  0  0  0  0
 10 11  1  0  0  0  0
 10 12  1  0  0  0  0
 10 13  1  0  0  0  0
 13 14  1  0  0  0  0
 13 15  1  0  0  0  0
 13 16  1  0  0  0  0
M  END
> <VConfSearch Rank>
743

> <Conf_Id>
36

> <Delta U+W>
-0.427

> <U+W>
-57.331

> <U>
7.263

> <W>
-64.594

> <W(PB)>
-66.513

> <W(SA)>
1.920

> <Valence>
6.734

> <Coulomb>
-0.068

> <VdW>
0.598

> <VdW6>
-4.819

> <VdW12>
5.417

> <Bond>
0.107

> <Angle>
2.469

> <Pdih>
4.157

> <Idih>
0.001

> <Tether>
0.000

$$$$
VeraChem MOL file


 16 15  0  0  0  0  0  0  0  0999 V2000     
   22.4899   18.7311   21.5989 C   0  0  0  0  0  0  0  0  0  0  0  0
   23.1105   18.7875   22.6418 O   0  5  0  0  0  0  0  0  0  0  0  0
   23.0050   18.8414   20.5041 O   0  0  0  0  0  0  0  0  0  0  0  0
   20.9799   18.5313   21.6678 C   0  0  0  0  0  0  0  0  0  0  0  0
   20.7645   17.9100   22.5446 H   0  0  0  0  0  0  0  0  0  0  0  0
   20.6709   17.9628   20.7824 H   0  0  0  0  0  0  0  0  0  0  0  0
   20.1993   19.8692   21.7429 C   0  0  0  0  0  0  0  0  0  0  0  0
   20.4857   20.4100   22.6555 H   0  0  0  0  0  0  0  0  0  0  0  0
   20.5027   20.5030   20.8981 H   0  0  0  0  0  0  0  0  0  0  0  0
   18.6643   19.6891   21.7026 C   0  0  0  0  0  0  0  0  0  0  0  0
   18.3766   19.1587   20.7843 H   0  0  0  0  0  0  0  0  0  0  0  0
   18.1937   20.6806   21.6491 H   0  0  0  0  0  0  0  0  0  0  0  0
   18.1070   18.9393   22.9314 C   0  0  0  0  0  0  0  0  0  0  0  0
   18.4628   17.9020   22.9635 H   0  0  0  0  0  0  0  0  0  0  0  0
   17.0100   18.9132   22.8998 H   0  0  0  0  0  0  0  0  0  0  0  0
   18.4064   19.4357   23.8637 H   0  0  0  0  0  0  0  0  0  0  0  0
  1  2  1  0  0  0  0
  1  3  2  0  0  0  0
  1  4  1  0  0  0  0
  4  5  1  0  0  0  0
  4  6  1  0  0  0  0
  4  7  1  0  0  0  0
  7  8  1  0  0  0  0
  7  9  1  0  0  0  0
  7 10  1  0  0  0  0
 10 11  1  0  0  0  0
 10 12  1  0  0  0  0
 10 13  1  0  0  0  0
 13 14  1  0  0  0  0
 13 15  1  0  0  0  0
 13 16  1  0  0  0  0
M  END
> <VConfSearch Rank>
744

> <Conf_Id>
17

> <Delta U+W>
-0.432

> <U+W>
-57.336

> <U>
7.263

> <W>
-64.599

> <W(PB)>
-66.503

> <W(SA)>
1.904

> <Valence>
6.734

> <Coulomb>
-0.068

> <VdW>
0.598

> <VdW6>
-4.819

> <VdW12>
5.417

> <Bond>
0.107

> <Angle>
2.469

> <Pdih>
4.157

> <Idih>
0.001

> <Tether>
0.000

$$$$
VeraChem MOL file


 16 15  0  0  0  0  0  0  0  0999 V2000     
   21.0739   21.3024   21.9108 C   0  0  0  0  0  0  0  0  0  0  0  0
   20.8279   21.8529   20.8559 O   0  5  0  0  0  0  0  0  0  0  0  0
   20.9264   21.8319   22.9944 O   0  0  0  0  0  0  0  0  0  0  0  0
   21.6202   19.8779   21.8691 C   0  0  0  0  0  0  0  0  0  0  0  0
   22.1066   19.6607   22.8280 H   0  0  0  0  0  0  0  0  0  0  0  0
   22.4037   19.8491   21.1026 H   0  0  0  0  0  0  0  0  0  0  0  0
   20.5505   18.7997   21.5558 C   0  0  0  0  0  0  0  0  0  0  0  0
   20.0523   19.0456   20.6076 H   0  0  0  0  0  0  0  0  0  0  0  0
   21.0512   17.8331   21.4084 H   0  0  0  0  0  0  0  0  0  0  0  0
   19.4994   18.6620   22.6784 C   0  0  0  0  0  0  0  0  0  0  0  0
   18.9772   19.6185   22.8209 H   0  0  0  0  0  0  0  0  0  0  0  0
   20.0000   18.4284   23.6283 H   0  0  0  0  0  0  0  0  0  0  0  0
   18.4688   17.5615   22.3575 C   0  0  0  0  0  0  0  0  0  0  0  0
   17.9313   17.7866   21.4269 H   0  0  0  0  0  0  0  0  0  0  0  0
   17.7291   17.4774   23.1643 H   0  0  0  0  0  0  0  0  0  0  0  0
   18.9585   16.5855   22.2434 H   0  0  0  0  0  0  0  0  0  0  0  0
  1  2  1  0  0  0  0
  1  3  2  0  0  0  0
  1  4  1  0  0  0  0
  4  5  1  0  0  0  0
  4  6  1  0  0  0  0
  4  7  1  0  0  0  0
  7  8  1  0  0  0  0
  7  9  1  0  0  0  0
  7 10  1  0  0  0  0
 10 11  1  0  0  0  0
 10 12  1  0  0  0  0
 10 13  1  0  0  0  0
 13 14  1  0  0  0  0
 13 15  1  0  0  0  0
 13 16  1  0  0  0  0
M  END
> <VConfSearch Rank>
745

> <Conf_Id>
19

> <Delta U+W>
0.048

> <U+W>
-56.856

> <U>
8.276

> <W>
-65.132

> <W(PB)>
-67.031

> <W(SA)>
1.899

> <Valence>
6.513

> <Coulomb>
1.428

> <VdW>
0.335

> <VdW6>
-5.021

> <VdW12>
5.356

> <Bond>
0.092

> <Angle>
2.417

> <Pdih>
4.003

> <Idih>
0.001

> <Tether>
0.000

$$$$
VeraChem MOL file


 16 15  0  0  0  0  0  0  0  0999 V2000     
   20.6327   18.8342   19.8746 C   0  0  0  0  0  0  0  0  0  0  0  0
   21.7760   19.2047   19.6966 O   0  5  0  0  0  0  0  0  0  0  0  0
   19.7091   19.1320   19.1434 O   0  0  0  0  0  0  0  0  0  0  0  0
   20.3477   17.9266   21.0682 C   0  0  0  0  0  0  0  0  0  0  0  0
   21.1256   17.1541   21.0861 H   0  0  0  0  0  0  0  0  0  0  0  0
   19.3940   17.4124   20.8979 H   0  0  0  0  0  0  0  0  0  0  0  0
   20.3211   18.6652   22.4316 C   0  0  0  0  0  0  0  0  0  0  0  0
   20.2502   17.9226   23.2379 H   0  0  0  0  0  0  0  0  0  0  0  0
   21.2711   19.1985   22.5755 H   0  0  0  0  0  0  0  0  0  0  0  0
   19.1424   19.6559   22.5475 C   0  0  0  0  0  0  0  0  0  0  0  0
   18.1940   19.1235   22.3911 H   0  0  0  0  0  0  0  0  0  0  0  0
   19.2143   20.4164   21.7574 H   0  0  0  0  0  0  0  0  0  0  0  0
   19.1199   20.3508   23.9233 C   0  0  0  0  0  0  0  0  0  0  0  0
   19.0137   19.6166   24.7328 H   0  0  0  0  0  0  0  0  0  0  0  0
   18.2774   21.0516   23.9887 H   0  0  0  0  0  0  0  0  0  0  0  0
   20.0454   20.9166   24.0924 H   0  0  0  0  0  0  0  0  0  0  0  0
  1  2  1  0  0  0  0
  1  3  2  0  0  0  0
  1  4  1  0  0  0  0
  4  5  1  0  0  0  0
  4  6  1  0  0  0  0
  4  7  1  0  0  0  0
  7  8  1  0  0  0  0
  7  9  1  0  0  0  0
  7 10  1  0  0  0  0
 10 11  1  0  0  0  0
 10 12  1  0  0  0  0
 10 13  1  0  0  0  0
 13 14  1  0  0  0  0
 13 15  1  0  0  0  0
 13 16  1  0  0  0  0
M  END
> <VConfSearch Rank>
746

> <Conf_Id>
20

> <Delta U+W>
-0.010

> <U+W>
-56.914

> <U>
8.277

> <W>
-65.191

> <W(PB)>
-67.081

> <W(SA)>
1.890

> <Valence>
6.513

> <Coulomb>
1.429

> <VdW>
0.335

> <VdW6>
-5.021

> <VdW12>
5.356

> <Bond>
0.092

> <Angle>
2.417

> <Pdih>
4.002

> <Idih>
0.001

> <Tether>
0.000

$$$$
VeraChem MOL file


 16 15  0  0  0  0  0  0  0  0999 V2000     
   20.0833   17.0878   21.6538 C   0  0  0  0  0  0  0  0  0  0  0  0
   19.3642   16.2125   22.0937 O   0  5  0  0  0  0  0  0  0  0  0  0
   21.2940   16.9990   21.6049 O   0  0  0  0  0  0  0  0  0  0  0  0
   19.4257   18.3504   21.1030 C   0  0  0  0  0  0  0  0  0  0  0  0
   18.6429   18.0315   20.4049 H   0  0  0  0  0  0  0  0  0  0  0  0
   20.1643   18.9017   20.5098 H   0  0  0  0  0  0  0  0  0  0  0  0
   18.8009   19.2679   22.1895 C   0  0  0  0  0  0  0  0  0  0  0  0
   18.2839   20.1045   21.7005 H   0  0  0  0  0  0  0  0  0  0  0  0
   18.0289   18.7013   22.7283 H   0  0  0  0  0  0  0  0  0  0  0  0
   19.8171   19.8266   23.2138 C   0  0  0  0  0  0  0  0  0  0  0  0
   20.3169   18.9984   23.7354 H   0  0  0  0  0  0  0  0  0  0  0  0
   19.2697   20.3900   23.9819 H   0  0  0  0  0  0  0  0  0  0  0  0
   20.8764   20.7517   22.5778 C   0  0  0  0  0  0  0  0  0  0  0  0
   21.5289   20.1969   21.8916 H   0  0  0  0  0  0  0  0  0  0  0  0
   21.5129   21.1963   23.3538 H   0  0  0  0  0  0  0  0  0  0  0  0
   20.4017   21.5692   22.0197 H   0  0  0  0  0  0  0  0  0  0  0  0
  1  2  1  0  0  0  0
  1  3  2  0  0  0  0
  1  4  1  0  0  0  0
  4  5  1  0  0  0  0
  4  6  1  0  0  0  0
  4  7  1  0  0  0  0
  7  8  1  0  0  0  0
  7  9  1  0  0  0  0
  7 10  1  0  0  0  0
 10 11  1  0  0  0  0
 10 12  1  0  0  0  0
 10 13  1  0  0  0  0
 13 14  1  0  0  0  0
 13 15  1  0  0  0  0
 13 16  1  0  0  0  0
M  END
> <VConfSearch Rank>
747

> <Conf_Id>
37

> <Delta U+W>
1.063

> <U+W>
-55.841

> <U>
9.719

> <W>
-65.560

> <W(PB)>
-67.414

> <W(SA)>
1.854

> <Valence>
7.002

> <Coulomb>
2.402

> <VdW>
0.314

> <VdW6>
-5.861

> <VdW12>
6.175

> <Bond>
0.134

> <Angle>
2.733

> <Pdih>
4.133

> <Idih>
0.002

> <Tether>
0.000

$$$$
VeraChem MOL file


 16 15  0  0  0  0  0  0  0  0999 V2000     
   20.4797   18.3099   24.1272 C   0  0  0  0  0  0  0  0  0  0  0  0
   21.2890   17.4298   24.3445 O   0  5  0  0  0  0  0  0  0  0  0  0
   20.3755   19.3085   24.8114 O   0  0  0  0  0  0  0  0  0  0  0  0
   19.5215   18.1323   22.9524 C   0  0  0  0  0  0  0  0  0  0  0  0
   18.7008   18.8514   23.0558 H   0  0  0  0  0  0  0  0  0  0  0  0
   19.0740   17.1358   23.0451 H   0  0  0  0  0  0  0  0  0  0  0  0
   20.1932   18.2648   21.5582 C   0  0  0  0  0  0  0  0  0  0  0  0
   20.9729   17.4959   21.4677 H   0  0  0  0  0  0  0  0  0  0  0  0
   19.4515   18.0443   20.7787 H   0  0  0  0  0  0  0  0  0  0  0  0
   20.8238   19.6507   21.2832 C   0  0  0  0  0  0  0  0  0  0  0  0
   21.3411   19.6166   20.3145 H   0  0  0  0  0  0  0  0  0  0  0  0
   21.5932   19.8683   22.0370 H   0  0  0  0  0  0  0  0  0  0  0  0
   19.7889   20.7955   21.2549 C   0  0  0  0  0  0  0  0  0  0  0  0
   18.9885   20.5856   20.5336 H   0  0  0  0  0  0  0  0  0  0  0  0
   20.2684   21.7390   20.9637 H   0  0  0  0  0  0  0  0  0  0  0  0
   19.3345   20.9458   22.2426 H   0  0  0  0  0  0  0  0  0  0  0  0
  1  2  1  0  0  0  0
  1  3  2  0  0  0  0
  1  4  1  0  0  0  0
  4  5  1  0  0  0  0
  4  6  1  0  0  0  0
  4  7  1  0  0  0  0
  7  8  1  0  0  0  0
  7  9  1  0  0  0  0
  7 10  1  0  0  0  0
 10 11  1  0  0  0  0
 10 12  1  0  0  0  0
 10 13  1  0  0  0  0
 13 14  1  0  0  0  0
 13 15  1  0  0  0  0
 13 16  1  0  0  0  0
M  END
> <VConfSearch Rank>
748

> <Conf_Id>
39

> <Delta U+W>
1.129

> <U+W>
-55.775

> <U>
9.718

> <W>
-65.493

> <W(PB)>
-67.361

> <W(SA)>
1.869

> <Valence>
7.002

> <Coulomb>
2.402

> <VdW>
0.314

> <VdW6>
-5.861

> <VdW12>
6.175

> <Bond>
0.134

> <Angle>
2.734

> <Pdih>
4.133

> <Idih>
0.002

> <Tether>
0.000

$$$$
VeraChem MOL file


 16 15  0  0  0  0  0  0  0  0999 V2000     
   18.2624   17.9814   22.5787 C   0  0  0  0  0  0  0  0  0  0  0  0
   17.3171   18.4129   21.9485 O   0  5  0  0  0  0  0  0  0  0  0  0
   18.2044   17.6942   23.7583 O   0  0  0  0  0  0  0  0  0  0  0  0
   19.5626   17.7016   21.8273 C   0  0  0  0  0  0  0  0  0  0  0  0
   19.4200   17.9403   20.7663 H   0  0  0  0  0  0  0  0  0  0  0  0
   19.7262   16.6192   21.8855 H   0  0  0  0  0  0  0  0  0  0  0  0
   20.8191   18.4324   22.3787 C   0  0  0  0  0  0  0  0  0  0  0  0
   20.8437   18.3597   23.4749 H   0  0  0  0  0  0  0  0  0  0  0  0
   21.7079   17.8960   22.0199 H   0  0  0  0  0  0  0  0  0  0  0  0
   20.9518   19.9111   21.9411 C   0  0  0  0  0  0  0  0  0  0  0  0
   20.9248   19.9796   20.8449 H   0  0  0  0  0  0  0  0  0  0  0  0
   21.9412   20.2768   22.2488 H   0  0  0  0  0  0  0  0  0  0  0  0
   19.8779   20.8393   22.5458 C   0  0  0  0  0  0  0  0  0  0  0  0
   18.8839   20.6188   22.1381 H   0  0  0  0  0  0  0  0  0  0  0  0
   20.1035   21.8885   22.3154 H   0  0  0  0  0  0  0  0  0  0  0  0
   19.8346   20.7332   23.6376 H   0  0  0  0  0  0  0  0  0  0  0  0
  1  2  1  0  0  0  0
  1  3  2  0  0  0  0
  1  4  1  0  0  0  0
  4  5  1  0  0  0  0
  4  6  1  0  0  0  0
  4  7  1  0  0  0  0
  7  8  1  0  0  0  0
  7  9  1  0  0  0  0
  7 10  1  0  0  0  0
 10 11  1  0  0  0  0
 10 12  1  0  0  0  0
 10 13  1  0  0  0  0
 13 14  1  0  0  0  0
 13 15  1  0  0  0  0
 13 16  1  0  0  0  0
M  END
> <VConfSearch Rank>
749

> <Conf_Id>
47

> <Delta U+W>
2.301

> <U+W>
-54.603

> <U>
11.258

> <W>
-65.861

> <W(PB)>
-67.702

> <W(SA)>
1.841

> <Valence>
8.169

> <Coulomb>
2.735

> <VdW>
0.355

> <VdW6>
-6.245

> <VdW12>
6.600

> <Bond>
0.149

> <Angle>
3.168

> <Pdih>
4.840

> <Idih>
0.011

> <Tether>
0.000

$$$$
VeraChem MOL file


 16 15  0  0  0  0  0  0  0  0999 V2000     
   21.7398   18.4802   21.9371 C   0  0  0  0  0  0  0  0  0  0  0  0
   22.0120   17.6295   22.7613 O   0  5  0  0  0  0  0  0  0  0  0  0
   22.4773   19.4067   21.6640 O   0  0  0  0  0  0  0  0  0  0  0  0
   20.4462   18.3288   21.1388 C   0  0  0  0  0  0  0  0  0  0  0  0
   20.5331   17.3861   20.5860 H   0  0  0  0  0  0  0  0  0  0  0  0
   20.3939   19.1278   20.3893 H   0  0  0  0  0  0  0  0  0  0  0  0
   19.1426   18.2991   21.9853 C   0  0  0  0  0  0  0  0  0  0  0  0
   18.3543   17.8349   21.3775 H   0  0  0  0  0  0  0  0  0  0  0  0
   19.2774   17.6446   22.8577 H   0  0  0  0  0  0  0  0  0  0  0  0
   18.6330   19.6889   22.4375 C   0  0  0  0  0  0  0  0  0  0  0  0
   17.6362   19.5652   22.8828 H   0  0  0  0  0  0  0  0  0  0  0  0
   18.5014   20.3407   21.5629 H   0  0  0  0  0  0  0  0  0  0  0  0
   19.5464   20.3829   23.4692 C   0  0  0  0  0  0  0  0  0  0  0  0
   19.0681   21.2923   23.8550 H   0  0  0  0  0  0  0  0  0  0  0  0
   20.5029   20.6783   23.0211 H   0  0  0  0  0  0  0  0  0  0  0  0
   19.7537   19.7211   24.3204 H   0  0  0  0  0  0  0  0  0  0  0  0
  1  2  1  0  0  0  0
  1  3  2  0  0  0  0
  1  4  1  0  0  0  0
  4  5  1  0  0  0  0
  4  6  1  0  0  0  0
  4  7  1  0  0  0  0
  7  8  1  0  0  0  0
  7  9  1  0  0  0  0
  7 10  1  0  0  0  0
 10 11  1  0  0  0  0
 10 12  1  0  0  0  0
 10 13  1  0  0  0  0
 13 14  1  0  0  0  0
 13 15  1  0  0  0  0
 13 16  1  0  0  0  0
M  END
> <VConfSearch Rank>
750

> <Conf_Id>
45

> <Delta U+W>
2.303

> <U+W>
-54.601

> <U>
11.258

> <W>
-65.860

> <W(PB)>
-67.709

> <W(SA)>
1.849

> <Valence>
8.169

> <Coulomb>
2.735

> <VdW>
0.355

> <VdW6>
-6.245

> <VdW12>
6.600

> <Bond>
0.149

> <Angle>
3.168

> <Pdih>
4.840

> <Idih>
0.011

> <Tether>
0.000

$$$$
VeraChem MOL file


 16 15  0  0  0  0  0  0  0  0999 V2000     
   21.2450   17.2536   20.3251 C   0  0  0  0  0  0  0  0  0  0  0  0
   20.2406   16.5912   20.1510 O   0  5  0  0  0  0  0  0  0  0  0  0
   22.3201   16.9667   19.8381 O   0  0  0  0  0  0  0  0  0  0  0  0
   21.1848   18.5121   21.1926 C   0  0  0  0  0  0  0  0  0  0  0  0
   21.5271   19.3514   20.5757 H   0  0  0  0  0  0  0  0  0  0  0  0
   21.9162   18.3882   22.0000 H   0  0  0  0  0  0  0  0  0  0  0  0
   19.7916   18.8380   21.7935 C   0  0  0  0  0  0  0  0  0  0  0  0
   19.0621   18.9555   20.9803 H   0  0  0  0  0  0  0  0  0  0  0  0
   19.4515   17.9914   22.4060 H   0  0  0  0  0  0  0  0  0  0  0  0
   19.8230   20.1200   22.6519 C   0  0  0  0  0  0  0  0  0  0  0  0
   20.1612   20.9678   22.0401 H   0  0  0  0  0  0  0  0  0  0  0  0
   20.5509   20.0031   23.4667 H   0  0  0  0  0  0  0  0  0  0  0  0
   18.4366   20.4383   23.2459 C   0  0  0  0  0  0  0  0  0  0  0  0
   17.6946   20.5913   22.4513 H   0  0  0  0  0  0  0  0  0  0  0  0
   18.4765   21.3521   23.8530 H   0  0  0  0  0  0  0  0  0  0  0  0
   18.0872   19.6194   23.8884 H   0  0  0  0  0  0  0  0  0  0  0  0
  1  2  1  0  0  0  0
  1  3  2  0  0  0  0
  1  4  1  0  0  0  0
  4  5  1  0  0  0  0
  4  6  1  0  0  0  0
  4  7  1  0  0  0  0
  7  8  1  0  0  0  0
  7  9  1  0  0  0  0
  7 10  1  0  0  0  0
 10 11  1  0  0  0  0
 10 12  1  0  0  0  0
 10 13  1  0  0  0  0
 13 14  1  0  0  0  0
 13 15  1  0  0  0  0
 13 16  1  0  0  0  0
M  END
> <VConfSearch Rank>
751

> <Conf_Id>
0

> <Delta U+W>
0.000

> <U+W>
-56.904

> <U>
7.329

> <W>
-64.233

> <W(PB)>
-66.148

> <W(SA)>
1.915

> <Valence>
6.755

> <Coulomb>
-0.421

> <VdW>
0.995

> <VdW6>
-4.495

> <VdW12>
5.490

> <Bond>
0.106

> <Angle>
2.715

> <Pdih>
3.934

> <Idih>
0.000

> <Tether>
0.000

$$$$
VeraChem MOL file


 16 15  0  0  0  0  0  0  0  0999 V2000     
   18.9465   16.6725   21.4176 C   0  0  0  0  0  0  0  0  0  0  0  0
   17.8307   16.5051   21.8679 O   0  5  0  0  0  0  0  0  0  0  0  0
   19.3462   16.1449   20.3989 O   0  0  0  0  0  0  0  0  0  0  0  0
   19.8908   17.6102   22.1618 C   0  0  0  0  0  0  0  0  0  0  0  0
   20.9151   17.2442   22.0219 H   0  0  0  0  0  0  0  0  0  0  0  0
   19.6657   17.5412   23.2330 H   0  0  0  0  0  0  0  0  0  0  0  0
   19.7793   19.0797   21.6864 C   0  0  0  0  0  0  0  0  0  0  0  0
   19.9953   19.1305   20.6101 H   0  0  0  0  0  0  0  0  0  0  0  0
   18.7457   19.4275   21.8212 H   0  0  0  0  0  0  0  0  0  0  0  0
   20.7444   20.0065   22.4548 C   0  0  0  0  0  0  0  0  0  0  0  0
   21.7782   19.6595   22.3196 H   0  0  0  0  0  0  0  0  0  0  0  0
   20.5283   19.9565   23.5310 H   0  0  0  0  0  0  0  0  0  0  0  0
   20.6280   21.4673   21.9765 C   0  0  0  0  0  0  0  0  0  0  0  0
   19.6106   21.8507   22.1291 H   0  0  0  0  0  0  0  0  0  0  0  0
   20.8696   21.5514   20.9088 H   0  0  0  0  0  0  0  0  0  0  0  0
   21.3204   22.1127   22.5326 H   0  0  0  0  0  0  0  0  0  0  0  0
  1  2  1  0  0  0  0
  1  3  2  0  0  0  0
  1  4  1  0  0  0  0
  4  5  1  0  0  0  0
  4  6  1  0  0  0  0
  4  7  1  0  0  0  0
  7  8  1  0  0  0  0
  7  9  1  0  0  0  0
  7 10  1  0  0  0  0
 10 11  1  0  0  0  0
 10 12  1  0  0  0  0
 10 13  1  0  0  0  0
 13 14  1  0  0  0  0
 13 15  1  0  0  0  0
 13 16  1  0  0  0  0
M  END
> <VConfSearch Rank>
752

> <Conf_Id>
22

> <Delta U+W>
-1.185

> <U+W>
-58.089

> <U>
6.298

> <W>
-64.387

> <W(PB)>
-66.329

> <W(SA)>
1.942

> <Valence>
6.246

> <Coulomb>
-0.408

> <VdW>
0.460

> <VdW6>
-4.207

> <VdW12>
4.667

> <Bond>
0.072

> <Angle>
2.246

> <Pdih>
3.928

> <Idih>
0.001

> <Tether>
0.000

$$$$
VeraChem MOL file


 16 15  0  0  0  0  0  0  0  0999 V2000     
   22.2892   20.0531   21.3024 C   0  0  0  0  0  0  0  0  0  0  0  0
   22.7959   19.7971   20.2283 O   0  5  0  0  0  0  0  0  0  0  0  0
   22.9213   20.4207   22.2726 O   0  0  0  0  0  0  0  0  0  0  0  0
   20.7806   19.8846   21.4458 C   0  0  0  0  0  0  0  0  0  0  0  0
   20.3190   20.1133   20.4777 H   0  0  0  0  0  0  0  0  0  0  0  0
   20.4266   20.6363   22.1605 H   0  0  0  0  0  0  0  0  0  0  0  0
   20.3761   18.4605   21.9075 C   0  0  0  0  0  0  0  0  0  0  0  0
   20.8188   17.7270   21.2194 H   0  0  0  0  0  0  0  0  0  0  0  0
   20.8093   18.2591   22.8970 H   0  0  0  0  0  0  0  0  0  0  0  0
   18.8465   18.2394   21.9523 C   0  0  0  0  0  0  0  0  0  0  0  0
   18.6489   17.1828   22.1800 H   0  0  0  0  0  0  0  0  0  0  0  0
   18.4147   18.4293   20.9599 H   0  0  0  0  0  0  0  0  0  0  0  0
   18.1353   19.1168   23.0045 C   0  0  0  0  0  0  0  0  0  0  0  0
   18.2097   20.1825   22.7544 H   0  0  0  0  0  0  0  0  0  0  0  0
   18.5700   18.9652   24.0012 H   0  0  0  0  0  0  0  0  0  0  0  0
   17.0689   18.8621   23.0588 H   0  0  0  0  0  0  0  0  0  0  0  0
  1  2  1  0  0  0  0
  1  3  2  0  0  0  0
  1  4  1  0  0  0  0
  4  5  1  0  0  0  0
  4  6  1  0  0  0  0
  4  7  1  0  0  0  0
  7  8  1  0  0  0  0
  7  9  1  0  0  0  0
  7 10  1  0  0  0  0
 10 11  1  0  0  0  0
 10 12  1  0  0  0  0
 10 13  1  0  0  0  0
 13 14  1  0  0  0  0
 13 15  1  0  0  0  0
 13 16  1  0  0  0  0
M  END
> <VConfSearch Rank>
753

> <Conf_Id>
36

> <Delta U+W>
-0.427

> <U+W>
-57.331

> <U>
7.263

> <W>
-64.594

> <W(PB)>
-66.513

> <W(SA)>
1.920

> <Valence>
6.734

> <Coulomb>
-0.068

> <VdW>
0.598

> <VdW6>
-4.819

> <VdW12>
5.417

> <Bond>
0.107

> <Angle>
2.469

> <Pdih>
4.157

> <Idih>
0.001

> <Tether>
0.000

$$$$
VeraChem MOL file


 16 15  0  0  0  0  0  0  0  0999 V2000     
   20.8365   21.5782   21.9474 C   0  0  0  0  0  0  0  0  0  0  0  0
   21.7135   21.7451   22.7714 O   0  5  0  0  0  0  0  0  0  0  0  0
   20.2045   22.4865   21.4459 O   0  0  0  0  0  0  0  0  0  0  0  0
   20.4965   20.1503   21.5349 C   0  0  0  0  0  0  0  0  0  0  0  0
   21.4198   19.5613   21.5764 H   0  0  0  0  0  0  0  0  0  0  0  0
   20.1682   20.1671   20.4887 H   0  0  0  0  0  0  0  0  0  0  0  0
   19.4017   19.5110   22.4281 C   0  0  0  0  0  0  0  0  0  0  0  0
   19.7588   19.4606   23.4660 H   0  0  0  0  0  0  0  0  0  0  0  0
   18.5218   20.1692   22.4338 H   0  0  0  0  0  0  0  0  0  0  0  0
   18.9667   18.1043   21.9566 C   0  0  0  0  0  0  0  0  0  0  0  0
   18.5986   18.1566   20.9226 H   0  0  0  0  0  0  0  0  0  0  0  0
   18.1190   17.7721   22.5717 H   0  0  0  0  0  0  0  0  0  0  0  0
   20.0940   17.0542   22.0538 C   0  0  0  0  0  0  0  0  0  0  0  0
   20.9180   17.2859   21.3675 H   0  0  0  0  0  0  0  0  0  0  0  0
   19.7139   16.0581   21.7922 H   0  0  0  0  0  0  0  0  0  0  0  0
   20.4978   17.0046   23.0735 H   0  0  0  0  0  0  0  0  0  0  0  0
  1  2  1  0  0  0  0
  1  3  2  0  0  0  0
  1  4  1  0  0  0  0
  4  5  1  0  0  0  0
  4  6  1  0  0  0  0
  4  7  1  0  0  0  0
  7  8  1  0  0  0  0
  7  9  1  0  0  0  0
  7 10  1  0  0  0  0
 10 11  1  0  0  0  0
 10 12  1  0  0  0  0
 10 13  1  0  0  0  0
 13 14  1  0  0  0  0
 13 15  1  0  0  0  0
 13 16  1  0  0  0  0
M  END
> <VConfSearch Rank>
754

> <Conf_Id>
17

> <Delta U+W>
-0.432

> <U+W>
-57.336

> <U>
7.263

> <W>
-64.599

> <W(PB)>
-66.503

> <W(SA)>
1.904

> <Valence>
6.734

> <Coulomb>
-0.068

> <VdW>
0.598

> <VdW6>
-4.819

> <VdW12>
5.417

> <Bond>
0.107

> <Angle>
2.469

> <Pdih>
4.157

> <Idih>
0.001

> <Tether>
0.000

$$$$
VeraChem MOL file


 16 15  0  0  0  0  0  0  0  0999 V2000     
   18.5262   20.7702   22.6769 C   0  0  0  0  0  0  0  0  0  0  0  0
   18.2373   20.7670   23.8570 O   0  5  0  0  0  0  0  0  0  0  0  0
   18.8169   21.7756   22.0598 O   0  0  0  0  0  0  0  0  0  0  0  0
   18.4986   19.4419   21.9255 C   0  0  0  0  0  0  0  0  0  0  0  0
   18.4330   19.6486   20.8503 H   0  0  0  0  0  0  0  0  0  0  0  0
   17.5729   18.9254   22.2060 H   0  0  0  0  0  0  0  0  0  0  0  0
   19.7128   18.5235   22.2206 C   0  0  0  0  0  0  0  0  0  0  0  0
   19.7826   18.3485   23.3032 H   0  0  0  0  0  0  0  0  0  0  0  0
   19.5413   17.5446   21.7525 H   0  0  0  0  0  0  0  0  0  0  0  0
   21.0422   19.1107   21.6990 C   0  0  0  0  0  0  0  0  0  0  0  0
   21.2346   20.0818   22.1763 H   0  0  0  0  0  0  0  0  0  0  0  0
   20.9667   19.2967   20.6187 H   0  0  0  0  0  0  0  0  0  0  0  0
   22.2267   18.1635   21.9749 C   0  0  0  0  0  0  0  0  0  0  0  0
   22.3438   17.9851   23.0519 H   0  0  0  0  0  0  0  0  0  0  0  0
   23.1631   18.5958   21.5991 H   0  0  0  0  0  0  0  0  0  0  0  0
   22.0784   17.1943   21.4807 H   0  0  0  0  0  0  0  0  0  0  0  0
  1  2  1  0  0  0  0
  1  3  2  0  0  0  0
  1  4  1  0  0  0  0
  4  5  1  0  0  0  0
  4  6  1  0  0  0  0
  4  7  1  0  0  0  0
  7  8  1  0  0  0  0
  7  9  1  0  0  0  0
  7 10  1  0  0  0  0
 10 11  1  0  0  0  0
 10 12  1  0  0  0  0
 10 13  1  0  0  0  0
 13 14  1  0  0  0  0
 13 15  1  0  0  0  0
 13 16  1  0  0  0  0
M  END
> <VConfSearch Rank>
755

> <Conf_Id>
19

> <Delta U+W>
0.048

> <U+W>
-56.856

> <U>
8.276

> <W>
-65.132

> <W(PB)>
-67.031

> <W(SA)>
1.899

> <Valence>
6.513

> <Coulomb>
1.428

> <VdW>
0.335

> <VdW6>
-5.021

> <VdW12>
5.356

> <Bond>
0.092

> <Angle>
2.417

> <Pdih>
4.003

> <Idih>
0.001

> <Tether>
0.000

$$$$
VeraChem MOL file


 16 15  0  0  0  0  0  0  0  0999 V2000     
   19.6401   21.3656   21.2552 C   0  0  0  0  0  0  0  0  0  0  0  0
   19.5790   22.2113   22.1254 O   0  5  0  0  0  0  0  0  0  0  0  0
   18.8615   21.3027   20.3246 O   0  0  0  0  0  0  0  0  0  0  0  0
   20.7705   20.3424   21.3240 C   0  0  0  0  0  0  0  0  0  0  0  0
   21.6946   20.8887   21.5472 H   0  0  0  0  0  0  0  0  0  0  0  0
   20.8990   19.8945   20.3311 H   0  0  0  0  0  0  0  0  0  0  0  0
   20.5558   19.2338   22.3870 C   0  0  0  0  0  0  0  0  0  0  0  0
   21.4708   18.6308   22.4630 H   0  0  0  0  0  0  0  0  0  0  0  0
   20.4003   19.6979   23.3709 H   0  0  0  0  0  0  0  0  0  0  0  0
   19.3648   18.3106   22.0502 C   0  0  0  0  0  0  0  0  0  0  0  0
   19.5158   17.8569   21.0609 H   0  0  0  0  0  0  0  0  0  0  0  0
   18.4395   18.9006   21.9918 H   0  0  0  0  0  0  0  0  0  0  0  0
   19.1947   17.1985   23.1040 C   0  0  0  0  0  0  0  0  0  0  0  0
   20.0929   16.5697   23.1605 H   0  0  0  0  0  0  0  0  0  0  0  0
   18.3441   16.5524   22.8503 H   0  0  0  0  0  0  0  0  0  0  0  0
   19.0113   17.6253   24.0988 H   0  0  0  0  0  0  0  0  0  0  0  0
  1  2  1  0  0  0  0
  1  3  2  0  0  0  0
  1  4  1  0  0  0  0
  4  5  1  0  0  0  0
  4  6  1  0  0  0  0
  4  7  1  0  0  0  0
  7  8  1  0  0  0  0
  7  9  1  0  0  0  0
  7 10  1  0  0  0  0
 10 11  1  0  0  0  0
 10 12  1  0  0  0  0
 10 13  1  0  0  0  0
 13 14  1  0  0  0  0
 13 15  1  0  0  0  0
 13 16  1  0  0  0  0
M  END
> <VConfSearch Rank>
756

> <Conf_Id>
20

> <Delta U+W>
-0.010

> <U+W>
-56.914

> <U>
8.277

> <W>
-65.191

> <W(PB)>
-67.081

> <W(SA)>
1.890

> <Valence>
6.513

> <Coulomb>
1.429

> <VdW>
0.335

> <VdW6>
-5.021

> <VdW12>
5.356

> <Bond>
0.092

> <Angle>
2.417

> <Pdih>
4.002

> <Idih>
0.001

> <Tether>
0.000

$$$$
VeraChem MOL file


 16 15  0  0  0  0  0  0  0  0999 V2000     
   19.5171   21.2582   21.8522 C   0  0  0  0  0  0  0  0  0  0  0  0
   18.4404   21.7105   21.5162 O   0  5  0  0  0  0  0  0  0  0  0  0
   20.5695   21.5803   21.3376 O   0  0  0  0  0  0  0  0  0  0  0  0
   19.5494   20.2582   23.0049 C   0  0  0  0  0  0  0  0  0  0  0  0
   18.9785   20.6963   23.8320 H   0  0  0  0  0  0  0  0  0  0  0  0
   20.5824   20.1617   23.3583 H   0  0  0  0  0  0  0  0  0  0  0  0
   18.9581   18.8651   22.6552 C   0  0  0  0  0  0  0  0  0  0  0  0
   18.9483   18.2409   23.5588 H   0  0  0  0  0  0  0  0  0  0  0  0
   17.9081   18.9923   22.3573 H   0  0  0  0  0  0  0  0  0  0  0  0
   19.7102   18.1177   21.5284 C   0  0  0  0  0  0  0  0  0  0  0  0
   19.6969   18.7173   20.6076 H   0  0  0  0  0  0  0  0  0  0  0  0
   19.1698   17.1887   21.3000 H   0  0  0  0  0  0  0  0  0  0  0  0
   21.1676   17.7681   21.8972 C   0  0  0  0  0  0  0  0  0  0  0  0
   21.7768   18.6736   22.0137 H   0  0  0  0  0  0  0  0  0  0  0  0
   21.6272   17.1586   21.1085 H   0  0  0  0  0  0  0  0  0  0  0  0
   21.2112   17.1983   22.8345 H   0  0  0  0  0  0  0  0  0  0  0  0
  1  2  1  0  0  0  0
  1  3  2  0  0  0  0
  1  4  1  0  0  0  0
  4  5  1  0  0  0  0
  4  6  1  0  0  0  0
  4  7  1  0  0  0  0
  7  8  1  0  0  0  0
  7  9  1  0  0  0  0
  7 10  1  0  0  0  0
 10 11  1  0  0  0  0
 10 12  1  0  0  0  0
 10 13  1  0  0  0  0
 13 14  1  0  0  0  0
 13 15  1  0  0  0  0
 13 16  1  0  0  0  0
M  END
> <VConfSearch Rank>
757

> <Conf_Id>
37

> <Delta U+W>
1.063

> <U+W>
-55.841

> <U>
9.719

> <W>
-65.560

> <W(PB)>
-67.414

> <W(SA)>
1.854

> <Valence>
7.002

> <Coulomb>
2.402

> <VdW>
0.314

> <VdW6>
-5.861

> <VdW12>
6.175

> <Bond>
0.134

> <Angle>
2.733

> <Pdih>
4.133

> <Idih>
0.002

> <Tether>
0.000

$$$$
VeraChem MOL file


 16 15  0  0  0  0  0  0  0  0999 V2000     
   22.2537   18.8444   21.9416 C   0  0  0  0  0  0  0  0  0  0  0  0
   23.0690   19.2077   22.7662 O   0  5  0  0  0  0  0  0  0  0  0  0
   22.2706   17.7468   21.4208 O   0  0  0  0  0  0  0  0  0  0  0  0
   21.1728   19.8335   21.5139 C   0  0  0  0  0  0  0  0  0  0  0  0
   20.7035   19.4661   20.5940 H   0  0  0  0  0  0  0  0  0  0  0  0
   21.6755   20.7719   21.2520 H   0  0  0  0  0  0  0  0  0  0  0  0
   20.1000   20.1131   22.6018 C   0  0  0  0  0  0  0  0  0  0  0  0
   20.5972   20.5300   23.4886 H   0  0  0  0  0  0  0  0  0  0  0  0
   19.4138   20.8905   22.2396 H   0  0  0  0  0  0  0  0  0  0  0  0
   19.2823   18.8698   23.0256 C   0  0  0  0  0  0  0  0  0  0  0  0
   18.6141   19.1519   23.8508 H   0  0  0  0  0  0  0  0  0  0  0  0
   19.9549   18.0968   23.4228 H   0  0  0  0  0  0  0  0  0  0  0  0
   18.4351   18.2786   21.8788 C   0  0  0  0  0  0  0  0  0  0  0  0
   17.7786   19.0413   21.4401 H   0  0  0  0  0  0  0  0  0  0  0  0
   17.8036   17.4613   22.2504 H   0  0  0  0  0  0  0  0  0  0  0  0
   19.0716   17.8704   21.0833 H   0  0  0  0  0  0  0  0  0  0  0  0
  1  2  1  0  0  0  0
  1  3  2  0  0  0  0
  1  4  1  0  0  0  0
  4  5  1  0  0  0  0
  4  6  1  0  0  0  0
  4  7  1  0  0  0  0
  7  8  1  0  0  0  0
  7  9  1  0  0  0  0
  7 10  1  0  0  0  0
 10 11  1  0  0  0  0
 10 12  1  0  0  0  0
 10 13  1  0  0  0  0
 13 14  1  0  0  0  0
 13 15  1  0  0  0  0
 13 16  1  0  0  0  0
M  END
> <VConfSearch Rank>
758

> <Conf_Id>
39

> <Delta U+W>
1.129

> <U+W>
-55.775

> <U>
9.718

> <W>
-65.493

> <W(PB)>
-67.361

> <W(SA)>
1.869

> <Valence>
7.002

> <Coulomb>
2.402

> <VdW>
0.314

> <VdW6>
-5.861

> <VdW12>
6.175

> <Bond>
0.134

> <Angle>
2.734

> <Pdih>
4.133

> <Idih>
0.002

> <Tether>
0.000

$$$$
VeraChem MOL file


 16 15  0  0  0  0  0  0  0  0999 V2000     
   18.9266   19.4853   23.9641 C   0  0  0  0  0  0  0  0  0  0  0  0
   17.7913   19.0528   23.9340 O   0  5  0  0  0  0  0  0  0  0  0  0
   19.2017   20.6178   24.3088 O   0  0  0  0  0  0  0  0  0  0  0  0
   20.0717   18.5280   23.6384 C   0  0  0  0  0  0  0  0  0  0  0  0
   19.6572   17.5347   23.4273 H   0  0  0  0  0  0  0  0  0  0  0  0
   20.6641   18.4317   24.5558 H   0  0  0  0  0  0  0  0  0  0  0  0
   21.0052   18.9786   22.4798 C   0  0  0  0  0  0  0  0  0  0  0  0
   21.2532   20.0433   22.5912 H   0  0  0  0  0  0  0  0  0  0  0  0
   21.9545   18.4348   22.5784 H   0  0  0  0  0  0  0  0  0  0  0  0
   20.4515   18.7077   21.0601 C   0  0  0  0  0  0  0  0  0  0  0  0
   20.2030   17.6428   20.9534 H   0  0  0  0  0  0  0  0  0  0  0  0
   21.2481   18.9130   20.3317 H   0  0  0  0  0  0  0  0  0  0  0  0
   19.2228   19.5665   20.6954 C   0  0  0  0  0  0  0  0  0  0  0  0
   18.3456   19.2811   21.2888 H   0  0  0  0  0  0  0  0  0  0  0  0
   18.9623   19.4343   19.6374 H   0  0  0  0  0  0  0  0  0  0  0  0
   19.4225   20.6326   20.8652 H   0  0  0  0  0  0  0  0  0  0  0  0
  1  2  1  0  0  0  0
  1  3  2  0  0  0  0
  1  4  1  0  0  0  0
  4  5  1  0  0  0  0
  4  6  1  0  0  0  0
  4  7  1  0  0  0  0
  7  8  1  0  0  0  0
  7  9  1  0  0  0  0
  7 10  1  0  0  0  0
 10 11  1  0  0  0  0
 10 12  1  0  0  0  0
 10 13  1  0  0  0  0
 13 14  1  0  0  0  0
 13 15  1  0  0  0  0
 13 16  1  0  0  0  0
M  END
> <VConfSearch Rank>
759

> <Conf_Id>
47

> <Delta U+W>
2.301

> <U+W>
-54.603

> <U>
11.258

> <W>
-65.861

> <W(PB)>
-67.702

> <W(SA)>
1.841

> <Valence>
8.169

> <Coulomb>
2.735

> <VdW>
0.355

> <VdW6>
-6.245

> <VdW12>
6.600

> <Bond>
0.149

> <Angle>
3.168

> <Pdih>
4.840

> <Idih>
0.011

> <Tether>
0.000

$$$$
VeraChem MOL file


 16 15  0  0  0  0  0  0  0  0999 V2000     
   18.4450   17.7347   22.0815 C   0  0  0  0  0  0  0  0  0  0  0  0
   18.1361   17.6495   20.9091 O   0  5  0  0  0  0  0  0  0  0  0  0
   17.6336   17.8202   22.9821 O   0  0  0  0  0  0  0  0  0  0  0  0
   19.9243   17.6390   22.4504 C   0  0  0  0  0  0  0  0  0  0  0  0
   20.2622   16.6506   22.1176 H   0  0  0  0  0  0  0  0  0  0  0  0
   20.0212   17.6518   23.5429 H   0  0  0  0  0  0  0  0  0  0  0  0
   20.8388   18.7248   21.8166 C   0  0  0  0  0  0  0  0  0  0  0  0
   21.8728   18.3555   21.8444 H   0  0  0  0  0  0  0  0  0  0  0  0
   20.5904   18.8496   20.7534 H   0  0  0  0  0  0  0  0  0  0  0  0
   20.8080   20.0959   22.5339 C   0  0  0  0  0  0  0  0  0  0  0  0
   21.5992   20.7284   22.1082 H   0  0  0  0  0  0  0  0  0  0  0  0
   21.0550   19.9666   23.5967 H   0  0  0  0  0  0  0  0  0  0  0  0
   19.4629   20.8397   22.4005 C   0  0  0  0  0  0  0  0  0  0  0  0
   19.5449   21.8569   22.8048 H   0  0  0  0  0  0  0  0  0  0  0  0
   18.6668   20.3279   22.9548 H   0  0  0  0  0  0  0  0  0  0  0  0
   19.1572   20.9160   21.3488 H   0  0  0  0  0  0  0  0  0  0  0  0
  1  2  1  0  0  0  0
  1  3  2  0  0  0  0
  1  4  1  0  0  0  0
  4  5  1  0  0  0  0
  4  6  1  0  0  0  0
  4  7  1  0  0  0  0
  7  8  1  0  0  0  0
  7  9  1  0  0  0  0
  7 10  1  0  0  0  0
 10 11  1  0  0  0  0
 10 12  1  0  0  0  0
 10 13  1  0  0  0  0
 13 14  1  0  0  0  0
 13 15  1  0  0  0  0
 13 16  1  0  0  0  0
M  END
> <VConfSearch Rank>
760

> <Conf_Id>
45

> <Delta U+W>
2.303

> <U+W>
-54.601

> <U>
11.258

> <W>
-65.860

> <W(PB)>
-67.709

> <W(SA)>
1.849

> <Valence>
8.169

> <Coulomb>
2.735

> <VdW>
0.355

> <VdW6>
-6.245

> <VdW12>
6.600

> <Bond>
0.149

> <Angle>
3.168

> <Pdih>
4.840

> <Idih>
0.011

> <Tether>
0.000

$$$$
VeraChem MOL file


 16 15  0  0  0  0  0  0  0  0999 V2000     
   18.9573   19.4252   24.4663 C   0  0  0  0  0  0  0  0  0  0  0  0
   18.6677   18.2513   24.5921 O   0  5  0  0  0  0  0  0  0  0  0  0
   18.7487   20.2548   25.3285 O   0  0  0  0  0  0  0  0  0  0  0  0
   19.6159   19.9114   23.1741 C   0  0  0  0  0  0  0  0  0  0  0  0
   20.5679   20.3810   23.4486 H   0  0  0  0  0  0  0  0  0  0  0  0
   18.9776   20.6999   22.7581 H   0  0  0  0  0  0  0  0  0  0  0  0
   19.8619   18.8169   22.1018 C   0  0  0  0  0  0  0  0  0  0  0  0
   20.4973   18.0271   22.5260 H   0  0  0  0  0  0  0  0  0  0  0  0
   18.9054   18.3464   21.8348 H   0  0  0  0  0  0  0  0  0  0  0  0
   20.5277   19.3943   20.8351 C   0  0  0  0  0  0  0  0  0  0  0  0
   21.4852   19.8636   21.1005 H   0  0  0  0  0  0  0  0  0  0  0  0
   19.8923   20.1831   20.4089 H   0  0  0  0  0  0  0  0  0  0  0  0
   20.7694   18.3026   19.7740 C   0  0  0  0  0  0  0  0  0  0  0  0
   21.4282   17.5154   20.1635 H   0  0  0  0  0  0  0  0  0  0  0  0
   21.2430   18.7297   18.8805 H   0  0  0  0  0  0  0  0  0  0  0  0
   19.8236   17.8373   19.4668 H   0  0  0  0  0  0  0  0  0  0  0  0
  1  2  1  0  0  0  0
  1  3  2  0  0  0  0
  1  4  1  0  0  0  0
  4  5  1  0  0  0  0
  4  6  1  0  0  0  0
  4  7  1  0  0  0  0
  7  8  1  0  0  0  0
  7  9  1  0  0  0  0
  7 10  1  0  0  0  0
 10 11  1  0  0  0  0
 10 12  1  0  0  0  0
 10 13  1  0  0  0  0
 13 14  1  0  0  0  0
 13 15  1  0  0  0  0
 13 16  1  0  0  0  0
M  END
> <VConfSearch Rank>
761

> <Conf_Id>
0

> <Delta U+W>
0.000

> <U+W>
-56.904

> <U>
7.329

> <W>
-64.233

> <W(PB)>
-66.148

> <W(SA)>
1.915

> <Valence>
6.755

> <Coulomb>
-0.421

> <VdW>
0.995

> <VdW6>
-4.495

> <VdW12>
5.490

> <Bond>
0.106

> <Angle>
2.715

> <Pdih>
3.934

> <Idih>
0.000

> <Tether>
0.000

$$$$
VeraChem MOL file


 16 15  0  0  0  0  0  0  0  0999 V2000     
   22.7446   18.8115   22.1425 C   0  0  0  0  0  0  0  0  0  0  0  0
   23.1053   18.0344   23.0037 O   0  5  0  0  0  0  0  0  0  0  0  0
   23.3567   19.0026   21.1106 O   0  0  0  0  0  0  0  0  0  0  0  0
   21.4432   19.5754   22.3603 C   0  0  0  0  0  0  0  0  0  0  0  0
   21.5372   20.5546   21.8754 H   0  0  0  0  0  0  0  0  0  0  0  0
   21.3299   19.7563   23.4361 H   0  0  0  0  0  0  0  0  0  0  0  0
   20.2047   18.8248   21.8119 C   0  0  0  0  0  0  0  0  0  0  0  0
   20.3386   18.6403   20.7369 H   0  0  0  0  0  0  0  0  0  0  0  0
   20.1313   17.8419   22.2976 H   0  0  0  0  0  0  0  0  0  0  0  0
   18.9024   19.6187   22.0450 C   0  0  0  0  0  0  0  0  0  0  0  0
   18.9751   20.6015   21.5588 H   0  0  0  0  0  0  0  0  0  0  0  0
   18.7677   19.8029   23.1199 H   0  0  0  0  0  0  0  0  0  0  0  0
   17.6741   18.8658   21.4967 C   0  0  0  0  0  0  0  0  0  0  0  0
   17.5590   17.8910   21.9888 H   0  0  0  0  0  0  0  0  0  0  0  0
   17.7679   18.6955   20.4161 H   0  0  0  0  0  0  0  0  0  0  0  0
   16.7570   19.4435   21.6705 H   0  0  0  0  0  0  0  0  0  0  0  0
  1  2  1  0  0  0  0
  1  3  2  0  0  0  0
  1  4  1  0  0  0  0
  4  5  1  0  0  0  0
  4  6  1  0  0  0  0
  4  7  1  0  0  0  0
  7  8  1  0  0  0  0
  7  9  1  0  0  0  0
  7 10  1  0  0  0  0
 10 11  1  0  0  0  0
 10 12  1  0  0  0  0
 10 13  1  0  0  0  0
 13 14  1  0  0  0  0
 13 15  1  0  0  0  0
 13 16  1  0  0  0  0
M  END
> <VConfSearch Rank>
762

> <Conf_Id>
22

> <Delta U+W>
-1.185

> <U+W>
-58.089

> <U>
6.298

> <W>
-64.387

> <W(PB)>
-66.329

> <W(SA)>
1.942

> <Valence>
6.246

> <Coulomb>
-0.408

> <VdW>
0.460

> <VdW6>
-4.207

> <VdW12>
4.667

> <Bond>
0.072

> <Angle>
2.246

> <Pdih>
3.928

> <Idih>
0.001

> <Tether>
0.000

$$$$
VeraChem MOL file


 16 15  0  0  0  0  0  0  0  0999 V2000     
   19.7138   21.7203   21.9020 C   0  0  0  0  0  0  0  0  0  0  0  0
   20.6389   22.4544   21.6169 O   0  5  0  0  0  0  0  0  0  0  0  0
   18.7292   22.0867   22.5121 O   0  0  0  0  0  0  0  0  0  0  0  0
   19.8030   20.2553   21.4891 C   0  0  0  0  0  0  0  0  0  0  0  0
   20.3648   20.2001   20.5490 H   0  0  0  0  0  0  0  0  0  0  0  0
   18.7859   19.9040   21.2811 H   0  0  0  0  0  0  0  0  0  0  0  0
   20.4766   19.3669   22.5670 C   0  0  0  0  0  0  0  0  0  0  0  0
   21.4575   19.7954   22.8153 H   0  0  0  0  0  0  0  0  0  0  0  0
   19.8819   19.3965   23.4904 H   0  0  0  0  0  0  0  0  0  0  0  0
   20.6742   17.9001   22.1199 C   0  0  0  0  0  0  0  0  0  0  0  0
   21.2515   17.3707   22.8905 H   0  0  0  0  0  0  0  0  0  0  0  0
   21.2788   17.8696   21.2029 H   0  0  0  0  0  0  0  0  0  0  0  0
   19.3449   17.1494   21.8904 C   0  0  0  0  0  0  0  0  0  0  0  0
   18.7836   17.5760   21.0497 H   0  0  0  0  0  0  0  0  0  0  0  0
   18.7105   17.1912   22.7854 H   0  0  0  0  0  0  0  0  0  0  0  0
   19.5357   16.0931   21.6605 H   0  0  0  0  0  0  0  0  0  0  0  0
  1  2  1  0  0  0  0
  1  3  2  0  0  0  0
  1  4  1  0  0  0  0
  4  5  1  0  0  0  0
  4  6  1  0  0  0  0
  4  7  1  0  0  0  0
  7  8  1  0  0  0  0
  7  9  1  0  0  0  0
  7 10  1  0  0  0  0
 10 11  1  0  0  0  0
 10 12  1  0  0  0  0
 10 13  1  0  0  0  0
 13 14  1  0  0  0  0
 13 15  1  0  0  0  0
 13 16  1  0  0  0  0
M  END
> <VConfSearch Rank>
763

> <Conf_Id>
36

> <Delta U+W>
-0.427

> <U+W>
-57.331

> <U>
7.263

> <W>
-64.594

> <W(PB)>
-66.513

> <W(SA)>
1.920

> <Valence>
6.734

> <Coulomb>
-0.068

> <VdW>
0.598

> <VdW6>
-4.819

> <VdW12>
5.417

> <Bond>
0.107

> <Angle>
2.469

> <Pdih>
4.157

> <Idih>
0.001

> <Tether>
0.000

$$$$
VeraChem MOL file


 16 15  0  0  0  0  0  0  0  0999 V2000     
   22.1454   20.5177   21.7690 C   0  0  0  0  0  0  0  0  0  0  0  0
   21.9424   21.5755   21.2070 O   0  5  0  0  0  0  0  0  0  0  0  0
   23.2458   20.0138   21.8748 O   0  0  0  0  0  0  0  0  0  0  0  0
   20.9520   19.7720   22.3559 C   0  0  0  0  0  0  0  0  0  0  0  0
   20.2258   20.5187   22.6967 H   0  0  0  0  0  0  0  0  0  0  0  0
   21.2951   19.2239   23.2415 H   0  0  0  0  0  0  0  0  0  0  0  0
   20.2964   18.7962   21.3445 C   0  0  0  0  0  0  0  0  0  0  0  0
   19.9187   19.3619   20.4815 H   0  0  0  0  0  0  0  0  0  0  0  0
   21.0688   18.1174   20.9571 H   0  0  0  0  0  0  0  0  0  0  0  0
   19.1544   17.9520   21.9557 C   0  0  0  0  0  0  0  0  0  0  0  0
   19.5347   17.3772   22.8115 H   0  0  0  0  0  0  0  0  0  0  0  0
   18.8214   17.2162   21.2107 H   0  0  0  0  0  0  0  0  0  0  0  0
   17.9409   18.7980   22.3967 C   0  0  0  0  0  0  0  0  0  0  0  0
   18.2008   19.4718   23.2226 H   0  0  0  0  0  0  0  0  0  0  0  0
   17.1257   18.1488   22.7417 H   0  0  0  0  0  0  0  0  0  0  0  0
   17.5609   19.4039   21.5637 H   0  0  0  0  0  0  0  0  0  0  0  0
  1  2  1  0  0  0  0
  1  3  2  0  0  0  0
  1  4  1  0  0  0  0
  4  5  1  0  0  0  0
  4  6  1  0  0  0  0
  4  7  1  0  0  0  0
  7  8  1  0  0  0  0
  7  9  1  0  0  0  0
  7 10  1  0  0  0  0
 10 11  1  0  0  0  0
 10 12  1  0  0  0  0
 10 13  1  0  0  0  0
 13 14  1  0  0  0  0
 13 15  1  0  0  0  0
 13 16  1  0  0  0  0
M  END
> <VConfSearch Rank>
764

> <Conf_Id>
17

> <Delta U+W>
-0.432

> <U+W>
-57.336

> <U>
7.263

> <W>
-64.599

> <W(PB)>
-66.503

> <W(SA)>
1.904

> <Valence>
6.734

> <Coulomb>
-0.068

> <VdW>
0.598

> <VdW6>
-4.819

> <VdW12>
5.417

> <Bond>
0.107

> <Angle>
2.469

> <Pdih>
4.157

> <Idih>
0.001

> <Tether>
0.000

$$$$
VeraChem MOL file


 16 15  0  0  0  0  0  0  0  0999 V2000     
   21.6645   20.2786   23.4923 C   0  0  0  0  0  0  0  0  0  0  0  0
   21.4952   20.0615   24.6757 O   0  5  0  0  0  0  0  0  0  0  0  0
   22.7477   20.2119   22.9460 O   0  0  0  0  0  0  0  0  0  0  0  0
   20.4540   20.6800   22.6538 C   0  0  0  0  0  0  0  0  0  0  0  0
   20.8084   21.1668   21.7370 H   0  0  0  0  0  0  0  0  0  0  0  0
   19.8988   21.4370   23.2203 H   0  0  0  0  0  0  0  0  0  0  0  0
   19.5094   19.5012   22.3026 C   0  0  0  0  0  0  0  0  0  0  0  0
   19.1855   19.0058   23.2284 H   0  0  0  0  0  0  0  0  0  0  0  0
   18.6047   19.8998   21.8240 H   0  0  0  0  0  0  0  0  0  0  0  0
   20.1704   18.4706   21.3618 C   0  0  0  0  0  0  0  0  0  0  0  0
   21.0663   18.0495   21.8390 H   0  0  0  0  0  0  0  0  0  0  0  0
   20.5050   18.9697   20.4418 H   0  0  0  0  0  0  0  0  0  0  0  0
   19.1999   17.3283   21.0018 C   0  0  0  0  0  0  0  0  0  0  0  0
   18.8736   16.7921   21.9027 H   0  0  0  0  0  0  0  0  0  0  0  0
   19.6852   16.6047   20.3339 H   0  0  0  0  0  0  0  0  0  0  0  0
   18.3086   17.7159   20.4914 H   0  0  0  0  0  0  0  0  0  0  0  0
  1  2  1  0  0  0  0
  1  3  2  0  0  0  0
  1  4  1  0  0  0  0
  4  5  1  0  0  0  0
  4  6  1  0  0  0  0
  4  7  1  0  0  0  0
  7  8  1  0  0  0  0
  7  9  1  0  0  0  0
  7 10  1  0  0  0  0
 10 11  1  0  0  0  0
 10 12  1  0  0  0  0
 10 13  1  0  0  0  0
 13 14  1  0  0  0  0
 13 15  1  0  0  0  0
 13 16  1  0  0  0  0
M  END
> <VConfSearch Rank>
765

> <Conf_Id>
19

> <Delta U+W>
0.048

> <U+W>
-56.856

> <U>
8.276

> <W>
-65.132

> <W(PB)>
-67.031

> <W(SA)>
1.899

> <Valence>
6.513

> <Coulomb>
1.428

> <VdW>
0.335

> <VdW6>
-5.021

> <VdW12>
5.356

> <Bond>
0.092

> <Angle>
2.417

> <Pdih>
4.003

> <Idih>
0.001

> <Tether>
0.000

$$$$
VeraChem MOL file


 16 15  0  0  0  0  0  0  0  0999 V2000     
   21.0576   17.2279   21.4234 C   0  0  0  0  0  0  0  0  0  0  0  0
   22.1239   17.0947   21.9906 O   0  5  0  0  0  0  0  0  0  0  0  0
   20.9223   17.1391   20.2192 O   0  0  0  0  0  0  0  0  0  0  0  0
   19.8190   17.4979   22.2733 C   0  0  0  0  0  0  0  0  0  0  0  0
   19.8442   16.8021   23.1204 H   0  0  0  0  0  0  0  0  0  0  0  0
   18.9282   17.2481   21.6841 H   0  0  0  0  0  0  0  0  0  0  0  0
   19.7200   18.9525   22.8020 C   0  0  0  0  0  0  0  0  0  0  0  0
   18.8829   19.0182   23.5100 H   0  0  0  0  0  0  0  0  0  0  0  0
   20.6310   19.1979   23.3656 H   0  0  0  0  0  0  0  0  0  0  0  0
   19.5115   19.9826   21.6708 C   0  0  0  0  0  0  0  0  0  0  0  0
   18.6072   19.7288   21.1005 H   0  0  0  0  0  0  0  0  0  0  0  0
   20.3541   19.9402   20.9666 H   0  0  0  0  0  0  0  0  0  0  0  0
   19.3828   21.4150   22.2259 C   0  0  0  0  0  0  0  0  0  0  0  0
   18.5262   21.4968   22.9078 H   0  0  0  0  0  0  0  0  0  0  0  0
   19.2361   22.1342   21.4096 H   0  0  0  0  0  0  0  0  0  0  0  0
   20.2878   21.7057   22.7753 H   0  0  0  0  0  0  0  0  0  0  0  0
  1  2  1  0  0  0  0
  1  3  2  0  0  0  0
  1  4  1  0  0  0  0
  4  5  1  0  0  0  0
  4  6  1  0  0  0  0
  4  7  1  0  0  0  0
  7  8  1  0  0  0  0
  7  9  1  0  0  0  0
  7 10  1  0  0  0  0
 10 11  1  0  0  0  0
 10 12  1  0  0  0  0
 10 13  1  0  0  0  0
 13 14  1  0  0  0  0
 13 15  1  0  0  0  0
 13 16  1  0  0  0  0
M  END
> <VConfSearch Rank>
766

> <Conf_Id>
20

> <Delta U+W>
-0.010

> <U+W>
-56.914

> <U>
8.277

> <W>
-65.191

> <W(PB)>
-67.081

> <W(SA)>
1.890

> <Valence>
6.513

> <Coulomb>
1.429

> <VdW>
0.335

> <VdW6>
-5.021

> <VdW12>
5.356

> <Bond>
0.092

> <Angle>
2.417

> <Pdih>
4.002

> <Idih>
0.001

> <Tether>
0.000

$$$$
VeraChem MOL file


 16 15  0  0  0  0  0  0  0  0999 V2000     
   20.0740   20.6515   20.6384 C   0  0  0  0  0  0  0  0  0  0  0  0
   21.1516   21.0484   20.2406 O   0  5  0  0  0  0  0  0  0  0  0  0
   19.1495   21.3888   20.9171 O   0  0  0  0  0  0  0  0  0  0  0  0
   19.8625   19.1448   20.7608 C   0  0  0  0  0  0  0  0  0  0  0  0
   20.1745   18.6941   19.8113 H   0  0  0  0  0  0  0  0  0  0  0  0
   18.7891   18.9470   20.8599 H   0  0  0  0  0  0  0  0  0  0  0  0
   20.6507   18.4844   21.9250 C   0  0  0  0  0  0  0  0  0  0  0  0
   20.5036   17.3966   21.8880 H   0  0  0  0  0  0  0  0  0  0  0  0
   21.7244   18.6556   21.7659 H   0  0  0  0  0  0  0  0  0  0  0  0
   20.2650   19.0026   23.3309 C   0  0  0  0  0  0  0  0  0  0  0  0
   20.4408   20.0857   23.3921 H   0  0  0  0  0  0  0  0  0  0  0  0
   20.9305   18.5392   24.0722 H   0  0  0  0  0  0  0  0  0  0  0  0
   18.8019   18.6936   23.7133 C   0  0  0  0  0  0  0  0  0  0  0  0
   18.0989   19.2389   23.0706 H   0  0  0  0  0  0  0  0  0  0  0  0
   18.6047   18.9945   24.7503 H   0  0  0  0  0  0  0  0  0  0  0  0
   18.5900   17.6200   23.6259 H   0  0  0  0  0  0  0  0  0  0  0  0
  1  2  1  0  0  0  0
  1  3  2  0  0  0  0
  1  4  1  0  0  0  0
  4  5  1  0  0  0  0
  4  6  1  0  0  0  0
  4  7  1  0  0  0  0
  7  8  1  0  0  0  0
  7  9  1  0  0  0  0
  7 10  1  0  0  0  0
 10 11  1  0  0  0  0
 10 12  1  0  0  0  0
 10 13  1  0  0  0  0
 13 14  1  0  0  0  0
 13 15  1  0  0  0  0
 13 16  1  0  0  0  0
M  END
> <VConfSearch Rank>
767

> <Conf_Id>
37

> <Delta U+W>
1.063

> <U+W>
-55.841

> <U>
9.719

> <W>
-65.560

> <W(PB)>
-67.414

> <W(SA)>
1.854

> <Valence>
7.002

> <Coulomb>
2.402

> <VdW>
0.314

> <VdW6>
-5.861

> <VdW12>
6.175

> <Bond>
0.134

> <Angle>
2.733

> <Pdih>
4.133

> <Idih>
0.002

> <Tether>
0.000

$$$$
VeraChem MOL file


 16 15  0  0  0  0  0  0  0  0999 V2000     
   20.9014   18.0376   20.4916 C   0  0  0  0  0  0  0  0  0  0  0  0
   20.3661   18.0347   19.4006 O   0  5  0  0  0  0  0  0  0  0  0  0
   22.0961   18.1901   20.6516 O   0  0  0  0  0  0  0  0  0  0  0  0
   20.0290   17.8024   21.7218 C   0  0  0  0  0  0  0  0  0  0  0  0
   20.6775   17.5636   22.5726 H   0  0  0  0  0  0  0  0  0  0  0  0
   19.4286   16.9058   21.5285 H   0  0  0  0  0  0  0  0  0  0  0  0
   19.0853   18.9865   22.0681 C   0  0  0  0  0  0  0  0  0  0  0  0
   18.4142   19.1635   21.2161 H   0  0  0  0  0  0  0  0  0  0  0  0
   18.4428   18.7002   22.9117 H   0  0  0  0  0  0  0  0  0  0  0  0
   19.8169   20.3061   22.4105 C   0  0  0  0  0  0  0  0  0  0  0  0
   19.0679   21.0964   22.5576 H   0  0  0  0  0  0  0  0  0  0  0  0
   20.4369   20.6221   21.5601 H   0  0  0  0  0  0  0  0  0  0  0  0
   20.6908   20.2061   23.6789 C   0  0  0  0  0  0  0  0  0  0  0  0
   20.1016   19.8574   24.5370 H   0  0  0  0  0  0  0  0  0  0  0  0
   21.1114   21.1876   23.9332 H   0  0  0  0  0  0  0  0  0  0  0  0
   21.5298   19.5143   23.5306 H   0  0  0  0  0  0  0  0  0  0  0  0
  1  2  1  0  0  0  0
  1  3  2  0  0  0  0
  1  4  1  0  0  0  0
  4  5  1  0  0  0  0
  4  6  1  0  0  0  0
  4  7  1  0  0  0  0
  7  8  1  0  0  0  0
  7  9  1  0  0  0  0
  7 10  1  0  0  0  0
 10 11  1  0  0  0  0
 10 12  1  0  0  0  0
 10 13  1  0  0  0  0
 13 14  1  0  0  0  0
 13 15  1  0  0  0  0
 13 16  1  0  0  0  0
M  END
> <VConfSearch Rank>
768

> <Conf_Id>
39

> <Delta U+W>
1.129

> <U+W>
-55.775

> <U>
9.718

> <W>
-65.493

> <W(PB)>
-67.361

> <W(SA)>
1.869

> <Valence>
7.002

> <Coulomb>
2.402

> <VdW>
0.314

> <VdW6>
-5.861

> <VdW12>
6.175

> <Bond>
0.134

> <Angle>
2.734

> <Pdih>
4.133

> <Idih>
0.002

> <Tether>
0.000

$$$$
VeraChem MOL file


 16 15  0  0  0  0  0  0  0  0999 V2000     
   20.0158   19.6935   24.1646 C   0  0  0  0  0  0  0  0  0  0  0  0
   20.7224   18.9557   24.8227 O   0  5  0  0  0  0  0  0  0  0  0  0
   18.9137   20.0593   24.5233 O   0  0  0  0  0  0  0  0  0  0  0  0
   20.5801   20.2604   22.8631 C   0  0  0  0  0  0  0  0  0  0  0  0
   21.6055   19.8948   22.7296 H   0  0  0  0  0  0  0  0  0  0  0  0
   20.6502   21.3453   23.0036 H   0  0  0  0  0  0  0  0  0  0  0  0
   19.7357   19.9698   21.5905 C   0  0  0  0  0  0  0  0  0  0  0  0
   18.6713   20.1467   21.7989 H   0  0  0  0  0  0  0  0  0  0  0  0
   20.0191   20.7010   20.8214 H   0  0  0  0  0  0  0  0  0  0  0  0
   19.9322   18.5559   20.9925 C   0  0  0  0  0  0  0  0  0  0  0  0
   20.9976   18.3823   20.7874 H   0  0  0  0  0  0  0  0  0  0  0  0
   19.4206   18.5156   20.0209 H   0  0  0  0  0  0  0  0  0  0  0  0
   19.3830   17.4207   21.8814 C   0  0  0  0  0  0  0  0  0  0  0  0
   19.9725   17.3119   22.7999 H   0  0  0  0  0  0  0  0  0  0  0  0
   19.4231   16.4621   21.3482 H   0  0  0  0  0  0  0  0  0  0  0  0
   18.3386   17.6098   22.1618 H   0  0  0  0  0  0  0  0  0  0  0  0
  1  2  1  0  0  0  0
  1  3  2  0  0  0  0
  1  4  1  0  0  0  0
  4  5  1  0  0  0  0
  4  6  1  0  0  0  0
  4  7  1  0  0  0  0
  7  8  1  0  0  0  0
  7  9  1  0  0  0  0
  7 10  1  0  0  0  0
 10 11  1  0  0  0  0
 10 12  1  0  0  0  0
 10 13  1  0  0  0  0
 13 14  1  0  0  0  0
 13 15  1  0  0  0  0
 13 16  1  0  0  0  0
M  END
> <VConfSearch Rank>
769

> <Conf_Id>
47

> <Delta U+W>
2.301

> <U+W>
-54.603

> <U>
11.258

> <W>
-65.861

> <W(PB)>
-67.702

> <W(SA)>
1.841

> <Valence>
8.169

> <Coulomb>
2.735

> <VdW>
0.355

> <VdW6>
-6.245

> <VdW12>
6.600

> <Bond>
0.149

> <Angle>
3.168

> <Pdih>
4.840

> <Idih>
0.011

> <Tether>
0.000

$$$$
VeraChem MOL file


 16 15  0  0  0  0  0  0  0  0999 V2000     
   21.2863   19.8366   23.4775 C   0  0  0  0  0  0  0  0  0  0  0  0
   21.2639   19.2086   24.5179 O   0  5  0  0  0  0  0  0  0  0  0  0
   21.3269   21.0502   23.4300 O   0  0  0  0  0  0  0  0  0  0  0  0
   21.3580   19.0607   22.1636 C   0  0  0  0  0  0  0  0  0  0  0  0
   22.2924   18.4881   22.1937 H   0  0  0  0  0  0  0  0  0  0  0  0
   21.4529   19.7718   21.3340 H   0  0  0  0  0  0  0  0  0  0  0  0
   20.1763   18.0847   21.9028 C   0  0  0  0  0  0  0  0  0  0  0  0
   20.5035   17.3479   21.1569 H   0  0  0  0  0  0  0  0  0  0  0  0
   19.9539   17.5138   22.8151 H   0  0  0  0  0  0  0  0  0  0  0  0
   18.8881   18.7564   21.3691 C   0  0  0  0  0  0  0  0  0  0  0  0
   18.1833   17.9680   21.0710 H   0  0  0  0  0  0  0  0  0  0  0  0
   19.1151   19.3276   20.4583 H   0  0  0  0  0  0  0  0  0  0  0  0
   18.1908   19.6726   22.3960 C   0  0  0  0  0  0  0  0  0  0  0  0
   17.2178   20.0070   22.0137 H   0  0  0  0  0  0  0  0  0  0  0  0
   18.7889   20.5683   22.6031 H   0  0  0  0  0  0  0  0  0  0  0  0
   18.0201   19.1447   23.3433 H   0  0  0  0  0  0  0  0  0  0  0  0
  1  2  1  0  0  0  0
  1  3  2  0  0  0  0
  1  4  1  0  0  0  0
  4  5  1  0  0  0  0
  4  6  1  0  0  0  0
  4  7  1  0  0  0  0
  7  8  1  0  0  0  0
  7  9  1  0  0  0  0
  7 10  1  0  0  0  0
 10 11  1  0  0  0  0
 10 12  1  0  0  0  0
 10 13  1  0  0  0  0
 13 14  1  0  0  0  0
 13 15  1  0  0  0  0
 13 16  1  0  0  0  0
M  END
> <VConfSearch Rank>
770

> <Conf_Id>
45

> <Delta U+W>
2.303

> <U+W>
-54.601

> <U>
11.258

> <W>
-65.860

> <W(PB)>
-67.709

> <W(SA)>
1.849

> <Valence>
8.169

> <Coulomb>
2.735

> <VdW>
0.355

> <VdW6>
-6.245

> <VdW12>
6.600

> <Bond>
0.149

> <Angle>
3.168

> <Pdih>
4.840

> <Idih>
0.011

> <Tether>
0.000

$$$$
VeraChem MOL file


 16 15  0  0  0  0  0  0  0  0999 V2000     
   19.5455   18.1057   19.4031 C   0  0  0  0  0  0  0  0  0  0  0  0
   18.3882   17.8075   19.6259 O   0  5  0  0  0  0  0  0  0  0  0  0
   20.0850   17.9116   18.3324 O   0  0  0  0  0  0  0  0  0  0  0  0
   20.3878   18.7567   20.5016 C   0  0  0  0  0  0  0  0  0  0  0  0
   20.7504   19.7150   20.1113 H   0  0  0  0  0  0  0  0  0  0  0  0
   21.2672   18.1213   20.6595 H   0  0  0  0  0  0  0  0  0  0  0  0
   19.6569   18.9841   21.8516 C   0  0  0  0  0  0  0  0  0  0  0  0
   18.7738   19.6167   21.6862 H   0  0  0  0  0  0  0  0  0  0  0  0
   19.2912   18.0214   22.2350 H   0  0  0  0  0  0  0  0  0  0  0  0
   20.5788   19.6433   22.8989 C   0  0  0  0  0  0  0  0  0  0  0  0
   20.9438   20.6071   22.5175 H   0  0  0  0  0  0  0  0  0  0  0  0
   21.4615   19.0108   23.0666 H   0  0  0  0  0  0  0  0  0  0  0  0
   19.8473   19.8665   24.2373 C   0  0  0  0  0  0  0  0  0  0  0  0
   18.9768   20.5223   24.1045 H   0  0  0  0  0  0  0  0  0  0  0  0
   20.5165   20.3357   24.9703 H   0  0  0  0  0  0  0  0  0  0  0  0
   19.4983   18.9142   24.6577 H   0  0  0  0  0  0  0  0  0  0  0  0
  1  2  1  0  0  0  0
  1  3  2  0  0  0  0
  1  4  1  0  0  0  0
  4  5  1  0  0  0  0
  4  6  1  0  0  0  0
  4  7  1  0  0  0  0
  7  8  1  0  0  0  0
  7  9  1  0  0  0  0
  7 10  1  0  0  0  0
 10 11  1  0  0  0  0
 10 12  1  0  0  0  0
 10 13  1  0  0  0  0
 13 14  1  0  0  0  0
 13 15  1  0  0  0  0
 13 16  1  0  0  0  0
M  END
> <VConfSearch Rank>
771

> <Conf_Id>
0

> <Delta U+W>
0.000

> <U+W>
-56.904

> <U>
7.329

> <W>
-64.233

> <W(PB)>
-66.148

> <W(SA)>
1.915

> <Valence>
6.755

> <Coulomb>
-0.421

> <VdW>
0.995

> <VdW6>
-4.495

> <VdW12>
5.490

> <Bond>
0.106

> <Angle>
2.715

> <Pdih>
3.934

> <Idih>
0.000

> <Tether>
0.000

$$$$
VeraChem MOL file


 16 15  0  0  0  0  0  0  0  0999 V2000     
   19.5433   19.0306   24.6280 C   0  0  0  0  0  0  0  0  0  0  0  0
   19.8407   17.9821   25.1646 O   0  5  0  0  0  0  0  0  0  0  0  0
   19.5809   20.1072   25.1895 O   0  0  0  0  0  0  0  0  0  0  0  0
   19.1172   18.9957   23.1645 C   0  0  0  0  0  0  0  0  0  0  0  0
   18.3866   19.7975   23.0028 H   0  0  0  0  0  0  0  0  0  0  0  0
   18.6009   18.0454   22.9822 H   0  0  0  0  0  0  0  0  0  0  0  0
   20.3074   19.1527   22.1863 C   0  0  0  0  0  0  0  0  0  0  0  0
   20.8214   20.1025   22.3894 H   0  0  0  0  0  0  0  0  0  0  0  0
   21.0357   18.3504   22.3689 H   0  0  0  0  0  0  0  0  0  0  0  0
   19.8491   19.1139   20.7135 C   0  0  0  0  0  0  0  0  0  0  0  0
   19.1213   19.9166   20.5303 H   0  0  0  0  0  0  0  0  0  0  0  0
   19.3356   18.1640   20.5098 H   0  0  0  0  0  0  0  0  0  0  0  0
   21.0387   19.2708   19.7458 C   0  0  0  0  0  0  0  0  0  0  0  0
   21.7682   18.4623   19.8858 H   0  0  0  0  0  0  0  0  0  0  0  0
   21.5522   20.2278   19.9065 H   0  0  0  0  0  0  0  0  0  0  0  0
   20.6957   19.2410   18.7033 H   0  0  0  0  0  0  0  0  0  0  0  0
  1  2  1  0  0  0  0
  1  3  2  0  0  0  0
  1  4  1  0  0  0  0
  4  5  1  0  0  0  0
  4  6  1  0  0  0  0
  4  7  1  0  0  0  0
  7  8  1  0  0  0  0
  7  9  1  0  0  0  0
  7 10  1  0  0  0  0
 10 11  1  0  0  0  0
 10 12  1  0  0  0  0
 10 13  1  0  0  0  0
 13 14  1  0  0  0  0
 13 15  1  0  0  0  0
 13 16  1  0  0  0  0
M  END
> <VConfSearch Rank>
772

> <Conf_Id>
22

> <Delta U+W>
-1.185

> <U+W>
-58.089

> <U>
6.298

> <W>
-64.387

> <W(PB)>
-66.329

> <W(SA)>
1.942

> <Valence>
6.246

> <Coulomb>
-0.408

> <VdW>
0.460

> <VdW6>
-4.207

> <VdW12>
4.667

> <Bond>
0.072

> <Angle>
2.246

> <Pdih>
3.928

> <Idih>
0.001

> <Tether>
0.000

$$$$
VeraChem MOL file


 16 15  0  0  0  0  0  0  0  0999 V2000     
   20.2834   16.7748   21.0006 C   0  0  0  0  0  0  0  0  0  0  0  0
   21.2769   16.4585   20.3769 O   0  5  0  0  0  0  0  0  0  0  0  0
   19.2235   16.1868   20.9185 O   0  0  0  0  0  0  0  0  0  0  0  0
   20.3662   17.9875   21.9210 C   0  0  0  0  0  0  0  0  0  0  0  0
   21.3864   18.0435   22.3194 H   0  0  0  0  0  0  0  0  0  0  0  0
   19.6953   17.8100   22.7692 H   0  0  0  0  0  0  0  0  0  0  0  0
   19.9992   19.3126   21.2038 C   0  0  0  0  0  0  0  0  0  0  0  0
   20.6305   19.4173   20.3105 H   0  0  0  0  0  0  0  0  0  0  0  0
   18.9614   19.2607   20.8465 H   0  0  0  0  0  0  0  0  0  0  0  0
   20.1837   20.5646   22.0920 C   0  0  0  0  0  0  0  0  0  0  0  0
   20.0099   21.4605   21.4800 H   0  0  0  0  0  0  0  0  0  0  0  0
   21.2244   20.6230   22.4398 H   0  0  0  0  0  0  0  0  0  0  0  0
   19.2286   20.5970   23.3042 C   0  0  0  0  0  0  0  0  0  0  0  0
   19.4423   19.7803   24.0050 H   0  0  0  0  0  0  0  0  0  0  0  0
   18.1825   20.5107   22.9826 H   0  0  0  0  0  0  0  0  0  0  0  0
   19.3366   21.5419   23.8525 H   0  0  0  0  0  0  0  0  0  0  0  0
  1  2  1  0  0  0  0
  1  3  2  0  0  0  0
  1  4  1  0  0  0  0
  4  5  1  0  0  0  0
  4  6  1  0  0  0  0
  4  7  1  0  0  0  0
  7  8  1  0  0  0  0
  7  9  1  0  0  0  0
  7 10  1  0  0  0  0
 10 11  1  0  0  0  0
 10 12  1  0  0  0  0
 10 13  1  0  0  0  0
 13 14  1  0  0  0  0
 13 15  1  0  0  0  0
 13 16  1  0  0  0  0
M  END
> <VConfSearch Rank>
773

> <Conf_Id>
36

> <Delta U+W>
-0.427

> <U+W>
-57.331

> <U>
7.263

> <W>
-64.594

> <W(PB)>
-66.513

> <W(SA)>
1.920

> <Valence>
6.734

> <Coulomb>
-0.068

> <VdW>
0.598

> <VdW6>
-4.819

> <VdW12>
5.417

> <Bond>
0.107

> <Angle>
2.469

> <Pdih>
4.157

> <Idih>
0.001

> <Tether>
0.000

$$$$
VeraChem MOL file


 16 15  0  0  0  0  0  0  0  0999 V2000     
   20.1710   16.6013   22.4406 C   0  0  0  0  0  0  0  0  0  0  0  0
   19.6993   15.9532   21.5277 O   0  5  0  0  0  0  0  0  0  0  0  0
   20.3660   16.1520   23.5525 O   0  0  0  0  0  0  0  0  0  0  0  0
   20.5185   18.0633   22.1832 C   0  0  0  0  0  0  0  0  0  0  0  0
   20.8374   18.1523   21.1384 H   0  0  0  0  0  0  0  0  0  0  0  0
   21.3800   18.3239   22.8096 H   0  0  0  0  0  0  0  0  0  0  0  0
   19.3357   19.0228   22.4754 C   0  0  0  0  0  0  0  0  0  0  0  0
   18.4940   18.7795   21.8125 H   0  0  0  0  0  0  0  0  0  0  0  0
   18.9839   18.8474   23.5015 H   0  0  0  0  0  0  0  0  0  0  0  0
   19.7038   20.5169   22.3252 C   0  0  0  0  0  0  0  0  0  0  0  0
   20.5379   20.7632   22.9968 H   0  0  0  0  0  0  0  0  0  0  0  0
   18.8502   21.1257   22.6539 H   0  0  0  0  0  0  0  0  0  0  0  0
   20.0686   20.9114   20.8781 C   0  0  0  0  0  0  0  0  0  0  0  0
   20.9862   20.4104   20.5452 H   0  0  0  0  0  0  0  0  0  0  0  0
   20.2364   21.9938   20.8063 H   0  0  0  0  0  0  0  0  0  0  0  0
   19.2602   20.6481   20.1835 H   0  0  0  0  0  0  0  0  0  0  0  0
  1  2  1  0  0  0  0
  1  3  2  0  0  0  0
  1  4  1  0  0  0  0
  4  5  1  0  0  0  0
  4  6  1  0  0  0  0
  4  7  1  0  0  0  0
  7  8  1  0  0  0  0
  7  9  1  0  0  0  0
  7 10  1  0  0  0  0
 10 11  1  0  0  0  0
 10 12  1  0  0  0  0
 10 13  1  0  0  0  0
 13 14  1  0  0  0  0
 13 15  1  0  0  0  0
 13 16  1  0  0  0  0
M  END
> <VConfSearch Rank>
774

> <Conf_Id>
17

> <Delta U+W>
-0.432

> <U+W>
-57.336

> <U>
7.263

> <W>
-64.599

> <W(PB)>
-66.503

> <W(SA)>
1.904

> <Valence>
6.734

> <Coulomb>
-0.068

> <VdW>
0.598

> <VdW6>
-4.819

> <VdW12>
5.417

> <Bond>
0.107

> <Angle>
2.469

> <Pdih>
4.157

> <Idih>
0.001

> <Tether>
0.000

$$$$
VeraChem MOL file


 16 15  0  0  0  0  0  0  0  0999 V2000     
   20.3858   16.8806   22.7674 C   0  0  0  0  0  0  0  0  0  0  0  0
   19.5333   16.5103   23.5499 O   0  5  0  0  0  0  0  0  0  0  0  0
   20.7012   16.2566   21.7737 O   0  0  0  0  0  0  0  0  0  0  0  0
   21.1152   18.1882   23.0632 C   0  0  0  0  0  0  0  0  0  0  0  0
   22.0521   18.2038   22.4931 H   0  0  0  0  0  0  0  0  0  0  0  0
   21.3902   18.1777   24.1246 H   0  0  0  0  0  0  0  0  0  0  0  0
   20.2820   19.4600   22.7576 C   0  0  0  0  0  0  0  0  0  0  0  0
   19.3347   19.4169   23.3129 H   0  0  0  0  0  0  0  0  0  0  0  0
   20.8257   20.3397   23.1276 H   0  0  0  0  0  0  0  0  0  0  0  0
   19.9970   19.6351   21.2502 C   0  0  0  0  0  0  0  0  0  0  0  0
   19.4349   18.7693   20.8730 H   0  0  0  0  0  0  0  0  0  0  0  0
   20.9446   19.6655   20.6949 H   0  0  0  0  0  0  0  0  0  0  0  0
   19.1972   20.9230   20.9710 C   0  0  0  0  0  0  0  0  0  0  0  0
   18.2302   20.9048   21.4905 H   0  0  0  0  0  0  0  0  0  0  0  0
   19.0026   21.0318   19.8961 H   0  0  0  0  0  0  0  0  0  0  0  0
   19.7505   21.8099   21.3067 H   0  0  0  0  0  0  0  0  0  0  0  0
  1  2  1  0  0  0  0
  1  3  2  0  0  0  0
  1  4  1  0  0  0  0
  4  5  1  0  0  0  0
  4  6  1  0  0  0  0
  4  7  1  0  0  0  0
  7  8  1  0  0  0  0
  7  9  1  0  0  0  0
  7 10  1  0  0  0  0
 10 11  1  0  0  0  0
 10 12  1  0  0  0  0
 10 13  1  0  0  0  0
 13 14  1  0  0  0  0
 13 15  1  0  0  0  0
 13 16  1  0  0  0  0
M  END
> <VConfSearch Rank>
775

> <Conf_Id>
19

> <Delta U+W>
0.048

> <U+W>
-56.856

> <U>
8.276

> <W>
-65.132

> <W(PB)>
-67.031

> <W(SA)>
1.899

> <Valence>
6.513

> <Coulomb>
1.428

> <VdW>
0.335

> <VdW6>
-5.021

> <VdW12>
5.356

> <Bond>
0.092

> <Angle>
2.417

> <Pdih>
4.003

> <Idih>
0.001

> <Tether>
0.000

$$$$
VeraChem MOL file


 16 15  0  0  0  0  0  0  0  0999 V2000     
   21.7826   19.9160   23.2558 C   0  0  0  0  0  0  0  0  0  0  0  0
   21.5511   20.8093   24.0462 O   0  5  0  0  0  0  0  0  0  0  0  0
   22.6849   19.9561   22.4430 O   0  0  0  0  0  0  0  0  0  0  0  0
   20.9064   18.6672   23.3041 C   0  0  0  0  0  0  0  0  0  0  0  0
   20.8020   18.3800   24.3571 H   0  0  0  0  0  0  0  0  0  0  0  0
   21.4359   17.8477   22.8029 H   0  0  0  0  0  0  0  0  0  0  0  0
   19.5002   18.8571   22.6782 C   0  0  0  0  0  0  0  0  0  0  0  0
   18.8963   17.9622   22.8805 H   0  0  0  0  0  0  0  0  0  0  0  0
   18.9932   19.6988   23.1704 H   0  0  0  0  0  0  0  0  0  0  0  0
   19.5562   19.0992   21.1543 C   0  0  0  0  0  0  0  0  0  0  0  0
   20.0743   18.2629   20.6649 H   0  0  0  0  0  0  0  0  0  0  0  0
   20.1415   20.0046   20.9409 H   0  0  0  0  0  0  0  0  0  0  0  0
   18.1450   19.2509   20.5527 C   0  0  0  0  0  0  0  0  0  0  0  0
   17.5468   18.3457   20.7206 H   0  0  0  0  0  0  0  0  0  0  0  0
   18.2027   19.4232   19.4701 H   0  0  0  0  0  0  0  0  0  0  0  0
   17.6156   20.1007   21.0034 H   0  0  0  0  0  0  0  0  0  0  0  0
  1  2  1  0  0  0  0
  1  3  2  0  0  0  0
  1  4  1  0  0  0  0
  4  5  1  0  0  0  0
  4  6  1  0  0  0  0
  4  7  1  0  0  0  0
  7  8  1  0  0  0  0
  7  9  1  0  0  0  0
  7 10  1  0  0  0  0
 10 11  1  0  0  0  0
 10 12  1  0  0  0  0
 10 13  1  0  0  0  0
 13 14  1  0  0  0  0
 13 15  1  0  0  0  0
 13 16  1  0  0  0  0
M  END
> <VConfSearch Rank>
776

> <Conf_Id>
20

> <Delta U+W>
-0.010

> <U+W>
-56.914

> <U>
8.277

> <W>
-65.191

> <W(PB)>
-67.081

> <W(SA)>
1.890

> <Valence>
6.513

> <Coulomb>
1.429

> <VdW>
0.335

> <VdW6>
-5.021

> <VdW12>
5.356

> <Bond>
0.092

> <Angle>
2.417

> <Pdih>
4.002

> <Idih>
0.001

> <Tether>
0.000

$$$$
VeraChem MOL file


 16 15  0  0  0  0  0  0  0  0999 V2000     
   19.6073   20.7566   23.5899 C   0  0  0  0  0  0  0  0  0  0  0  0
   19.7267   21.9304   23.2985 O   0  5  0  0  0  0  0  0  0  0  0  0
   20.1074   20.2571   24.5782 O   0  0  0  0  0  0  0  0  0  0  0  0
   18.7553   19.8730   22.6826 C   0  0  0  0  0  0  0  0  0  0  0  0
   17.7997   20.3883   22.5307 H   0  0  0  0  0  0  0  0  0  0  0  0
   18.5247   18.9424   23.2136 H   0  0  0  0  0  0  0  0  0  0  0  0
   19.3997   19.5706   21.3021 C   0  0  0  0  0  0  0  0  0  0  0  0
   18.6881   19.0006   20.6896 H   0  0  0  0  0  0  0  0  0  0  0  0
   19.5676   20.5202   20.7755 H   0  0  0  0  0  0  0  0  0  0  0  0
   20.7381   18.7980   21.3785 C   0  0  0  0  0  0  0  0  0  0  0  0
   21.4707   19.3747   21.9602 H   0  0  0  0  0  0  0  0  0  0  0  0
   21.1511   18.7074   20.3644 H   0  0  0  0  0  0  0  0  0  0  0  0
   20.5922   17.3861   21.9848 C   0  0  0  0  0  0  0  0  0  0  0  0
   20.2987   17.4350   23.0412 H   0  0  0  0  0  0  0  0  0  0  0  0
   21.5456   16.8449   21.9303 H   0  0  0  0  0  0  0  0  0  0  0  0
   19.8387   16.8003   21.4425 H   0  0  0  0  0  0  0  0  0  0  0  0
  1  2  1  0  0  0  0
  1  3  2  0  0  0  0
  1  4  1  0  0  0  0
  4  5  1  0  0  0  0
  4  6  1  0  0  0  0
  4  7  1  0  0  0  0
  7  8  1  0  0  0  0
  7  9  1  0  0  0  0
  7 10  1  0  0  0  0
 10 11  1  0  0  0  0
 10 12  1  0  0  0  0
 10 13  1  0  0  0  0
 13 14  1  0  0  0  0
 13 15  1  0  0  0  0
 13 16  1  0  0  0  0
M  END
> <VConfSearch Rank>
777

> <Conf_Id>
37

> <Delta U+W>
1.063

> <U+W>
-55.841

> <U>
9.719

> <W>
-65.560

> <W(PB)>
-67.414

> <W(SA)>
1.854

> <Valence>
7.002

> <Coulomb>
2.402

> <VdW>
0.314

> <VdW6>
-5.861

> <VdW12>
6.175

> <Bond>
0.134

> <Angle>
2.733

> <Pdih>
4.133

> <Idih>
0.002

> <Tether>
0.000

$$$$
VeraChem MOL file


 16 15  0  0  0  0  0  0  0  0999 V2000     
   21.9536   20.2534   22.4373 C   0  0  0  0  0  0  0  0  0  0  0  0
   23.0142   19.7384   22.7318 O   0  5  0  0  0  0  0  0  0  0  0  0
   21.8328   21.0838   21.5585 O   0  0  0  0  0  0  0  0  0  0  0  0
   20.7155   19.8599   23.2385 C   0  0  0  0  0  0  0  0  0  0  0  0
   19.9231   20.5917   23.0438 H   0  0  0  0  0  0  0  0  0  0  0  0
   20.9712   19.9549   24.3003 H   0  0  0  0  0  0  0  0  0  0  0  0
   20.2096   18.4180   22.9602 C   0  0  0  0  0  0  0  0  0  0  0  0
   21.0084   17.7083   23.2165 H   0  0  0  0  0  0  0  0  0  0  0  0
   19.3712   18.1942   23.6336 H   0  0  0  0  0  0  0  0  0  0  0  0
   19.7689   18.1678   21.4983 C   0  0  0  0  0  0  0  0  0  0  0  0
   19.5094   17.1061   21.3852 H   0  0  0  0  0  0  0  0  0  0  0  0
   20.6101   18.3547   20.8164 H   0  0  0  0  0  0  0  0  0  0  0  0
   18.5576   19.0245   21.0726 C   0  0  0  0  0  0  0  0  0  0  0  0
   17.7135   18.8826   21.7599 H   0  0  0  0  0  0  0  0  0  0  0  0
   18.2247   18.7441   20.0649 H   0  0  0  0  0  0  0  0  0  0  0  0
   18.8124   20.0918   21.0525 H   0  0  0  0  0  0  0  0  0  0  0  0
  1  2  1  0  0  0  0
  1  3  2  0  0  0  0
  1  4  1  0  0  0  0
  4  5  1  0  0  0  0
  4  6  1  0  0  0  0
  4  7  1  0  0  0  0
  7  8  1  0  0  0  0
  7  9  1  0  0  0  0
  7 10  1  0  0  0  0
 10 11  1  0  0  0  0
 10 12  1  0  0  0  0
 10 13  1  0  0  0  0
 13 14  1  0  0  0  0
 13 15  1  0  0  0  0
 13 16  1  0  0  0  0
M  END
> <VConfSearch Rank>
778

> <Conf_Id>
39

> <Delta U+W>
1.129

> <U+W>
-55.775

> <U>
9.718

> <W>
-65.493

> <W(PB)>
-67.361

> <W(SA)>
1.869

> <Valence>
7.002

> <Coulomb>
2.402

> <VdW>
0.314

> <VdW6>
-5.861

> <VdW12>
6.175

> <Bond>
0.134

> <Angle>
2.734

> <Pdih>
4.133

> <Idih>
0.002

> <Tether>
0.000

$$$$
VeraChem MOL file


 16 15  0  0  0  0  0  0  0  0999 V2000     
   19.2988   17.3018   22.9464 C   0  0  0  0  0  0  0  0  0  0  0  0
   19.9184   16.9777   23.9403 O   0  5  0  0  0  0  0  0  0  0  0  0
   19.1241   16.5634   21.9970 O   0  0  0  0  0  0  0  0  0  0  0  0
   18.6302   18.6753   22.9296 C   0  0  0  0  0  0  0  0  0  0  0  0
   18.8201   19.1763   23.8866 H   0  0  0  0  0  0  0  0  0  0  0  0
   17.5504   18.4925   22.8806 H   0  0  0  0  0  0  0  0  0  0  0  0
   19.0398   19.5992   21.7482 C   0  0  0  0  0  0  0  0  0  0  0  0
   19.0434   19.0276   20.8096 H   0  0  0  0  0  0  0  0  0  0  0  0
   18.2622   20.3663   21.6325 H   0  0  0  0  0  0  0  0  0  0  0  0
   20.3944   20.3246   21.9337 C   0  0  0  0  0  0  0  0  0  0  0  0
   20.3875   20.8931   22.8739 H   0  0  0  0  0  0  0  0  0  0  0  0
   20.5061   21.0630   21.1276 H   0  0  0  0  0  0  0  0  0  0  0  0
   21.6157   19.3823   21.9059 C   0  0  0  0  0  0  0  0  0  0  0  0
   21.6375   18.7307   22.7879 H   0  0  0  0  0  0  0  0  0  0  0  0
   22.5478   19.9619   21.9010 H   0  0  0  0  0  0  0  0  0  0  0  0
   21.6048   18.7492   21.0091 H   0  0  0  0  0  0  0  0  0  0  0  0
  1  2  1  0  0  0  0
  1  3  2  0  0  0  0
  1  4  1  0  0  0  0
  4  5  1  0  0  0  0
  4  6  1  0  0  0  0
  4  7  1  0  0  0  0
  7  8  1  0  0  0  0
  7  9  1  0  0  0  0
  7 10  1  0  0  0  0
 10 11  1  0  0  0  0
 10 12  1  0  0  0  0
 10 13  1  0  0  0  0
 13 14  1  0  0  0  0
 13 15  1  0  0  0  0
 13 16  1  0  0  0  0
M  END
> <VConfSearch Rank>
779

> <Conf_Id>
47

> <Delta U+W>
2.301

> <U+W>
-54.603

> <U>
11.258

> <W>
-65.861

> <W(PB)>
-67.702

> <W(SA)>
1.841

> <Valence>
8.169

> <Coulomb>
2.735

> <VdW>
0.355

> <VdW6>
-6.245

> <VdW12>
6.600

> <Bond>
0.149

> <Angle>
3.168

> <Pdih>
4.840

> <Idih>
0.011

> <Tether>
0.000

$$$$
VeraChem MOL file


 16 15  0  0  0  0  0  0  0  0999 V2000     
   21.2108   18.4837   23.6086 C   0  0  0  0  0  0  0  0  0  0  0  0
   22.1841   19.2099   23.5586 O   0  5  0  0  0  0  0  0  0  0  0  0
   21.2818   17.2707   23.6234 O   0  0  0  0  0  0  0  0  0  0  0  0
   19.8326   19.1272   23.7510 C   0  0  0  0  0  0  0  0  0  0  0  0
   19.8472   19.6823   24.6962 H   0  0  0  0  0  0  0  0  0  0  0  0
   19.0799   18.3374   23.8630 H   0  0  0  0  0  0  0  0  0  0  0  0
   19.4296   20.0954   22.6033 C   0  0  0  0  0  0  0  0  0  0  0  0
   18.6309   20.7502   22.9770 H   0  0  0  0  0  0  0  0  0  0  0  0
   20.2726   20.7560   22.3573 H   0  0  0  0  0  0  0  0  0  0  0  0
   18.9087   19.3995   21.3227 C   0  0  0  0  0  0  0  0  0  0  0  0
   18.5068   20.1684   20.6486 H   0  0  0  0  0  0  0  0  0  0  0  0
   18.0674   18.7386   21.5731 H   0  0  0  0  0  0  0  0  0  0  0  0
   19.9884   18.6003   20.5638 C   0  0  0  0  0  0  0  0  0  0  0  0
   19.5991   18.2488   19.5996 H   0  0  0  0  0  0  0  0  0  0  0  0
   20.3057   17.7178   21.1326 H   0  0  0  0  0  0  0  0  0  0  0  0
   20.8726   19.2206   20.3671 H   0  0  0  0  0  0  0  0  0  0  0  0
  1  2  1  0  0  0  0
  1  3  2  0  0  0  0
  1  4  1  0  0  0  0
  4  5  1  0  0  0  0
  4  6  1  0  0  0  0
  4  7  1  0  0  0  0
  7  8  1  0  0  0  0
  7  9  1  0  0  0  0
  7 10  1  0  0  0  0
 10 11  1  0  0  0  0
 10 12  1  0  0  0  0
 10 13  1  0  0  0  0
 13 14  1  0  0  0  0
 13 15  1  0  0  0  0
 13 16  1  0  0  0  0
M  END
> <VConfSearch Rank>
780

> <Conf_Id>
45

> <Delta U+W>
2.303

> <U+W>
-54.601

> <U>
11.258

> <W>
-65.860

> <W(PB)>
-67.709

> <W(SA)>
1.849

> <Valence>
8.169

> <Coulomb>
2.735

> <VdW>
0.355

> <VdW6>
-6.245

> <VdW12>
6.600

> <Bond>
0.149

> <Angle>
3.168

> <Pdih>
4.840

> <Idih>
0.011

> <Tether>
0.000

$$$$
VeraChem MOL file


 16 15  0  0  0  0  0  0  0  0999 V2000     
   20.2682   16.5012   21.1060 C   0  0  0  0  0  0  0  0  0  0  0  0
   19.4363   16.0712   21.8813 O   0  5  0  0  0  0  0  0  0  0  0  0
   20.8766   15.7939   20.3282 O   0  0  0  0  0  0  0  0  0  0  0  0
   20.5862   17.9973   21.0849 C   0  0  0  0  0  0  0  0  0  0  0  0
   20.4030   18.3564   20.0652 H   0  0  0  0  0  0  0  0  0  0  0  0
   21.6605   18.1062   21.2750 H   0  0  0  0  0  0  0  0  0  0  0  0
   19.7854   18.8604   22.0958 C   0  0  0  0  0  0  0  0  0  0  0  0
   18.7099   18.7430   21.9039 H   0  0  0  0  0  0  0  0  0  0  0  0
   19.9687   18.4926   23.1149 H   0  0  0  0  0  0  0  0  0  0  0  0
   20.1688   20.3525   22.0058 C   0  0  0  0  0  0  0  0  0  0  0  0
   19.9843   20.7221   20.9876 H   0  0  0  0  0  0  0  0  0  0  0  0
   21.2439   20.4715   22.1993 H   0  0  0  0  0  0  0  0  0  0  0  0
   19.3703   21.2045   23.0121 C   0  0  0  0  0  0  0  0  0  0  0  0
   18.2916   21.1288   22.8218 H   0  0  0  0  0  0  0  0  0  0  0  0
   19.6547   22.2620   22.9351 H   0  0  0  0  0  0  0  0  0  0  0  0
   19.5605   20.8764   24.0425 H   0  0  0  0  0  0  0  0  0  0  0  0
  1  2  1  0  0  0  0
  1  3  2  0  0  0  0
  1  4  1  0  0  0  0
  4  5  1  0  0  0  0
  4  6  1  0  0  0  0
  4  7  1  0  0  0  0
  7  8  1  0  0  0  0
  7  9  1  0  0  0  0
  7 10  1  0  0  0  0
 10 11  1  0  0  0  0
 10 12  1  0  0  0  0
 10 13  1  0  0  0  0
 13 14  1  0  0  0  0
 13 15  1  0  0  0  0
 13 16  1  0  0  0  0
M  END
> <VConfSearch Rank>
781

> <Conf_Id>
0

> <Delta U+W>
0.000

> <U+W>
-56.904

> <U>
7.329

> <W>
-64.233

> <W(PB)>
-66.148

> <W(SA)>
1.915

> <Valence>
6.755

> <Coulomb>
-0.421

> <VdW>
0.995

> <VdW6>
-4.495

> <VdW12>
5.490

> <Bond>
0.106

> <Angle>
2.715

> <Pdih>
3.934

> <Idih>
0.000

> <Tether>
0.000

$$$$
VeraChem MOL file


 16 15  0  0  0  0  0  0  0  0999 V2000     
   21.5353   20.5275   20.1395 C   0  0  0  0  0  0  0  0  0  0  0  0
   20.9109   21.3289   19.4734 O   0  5  0  0  0  0  0  0  0  0  0  0
   22.7001   20.6756   20.4514 O   0  0  0  0  0  0  0  0  0  0  0  0
   20.8126   19.2762   20.6258 C   0  0  0  0  0  0  0  0  0  0  0  0
   21.5424   18.4591   20.6772 H   0  0  0  0  0  0  0  0  0  0  0  0
   20.0673   18.9977   19.8710 H   0  0  0  0  0  0  0  0  0  0  0  0
   20.1311   19.4705   22.0027 C   0  0  0  0  0  0  0  0  0  0  0  0
   20.8879   19.7609   22.7447 H   0  0  0  0  0  0  0  0  0  0  0  0
   19.4127   20.2996   21.9384 H   0  0  0  0  0  0  0  0  0  0  0  0
   19.4077   18.1907   22.4711 C   0  0  0  0  0  0  0  0  0  0  0  0
   20.1258   17.3616   22.5362 H   0  0  0  0  0  0  0  0  0  0  0  0
   18.6503   17.9004   21.7297 H   0  0  0  0  0  0  0  0  0  0  0  0
   18.7318   18.3915   23.8419 C   0  0  0  0  0  0  0  0  0  0  0  0
   17.9851   19.1953   23.7977 H   0  0  0  0  0  0  0  0  0  0  0  0
   19.4715   18.6525   24.6101 H   0  0  0  0  0  0  0  0  0  0  0  0
   18.2223   17.4727   24.1601 H   0  0  0  0  0  0  0  0  0  0  0  0
  1  2  1  0  0  0  0
  1  3  2  0  0  0  0
  1  4  1  0  0  0  0
  4  5  1  0  0  0  0
  4  6  1  0  0  0  0
  4  7  1  0  0  0  0
  7  8  1  0  0  0  0
  7  9  1  0  0  0  0
  7 10  1  0  0  0  0
 10 11  1  0  0  0  0
 10 12  1  0  0  0  0
 10 13  1  0  0  0  0
 13 14  1  0  0  0  0
 13 15  1  0  0  0  0
 13 16  1  0  0  0  0
M  END
> <VConfSearch Rank>
782

> <Conf_Id>
22

> <Delta U+W>
-1.185

> <U+W>
-58.089

> <U>
6.298

> <W>
-64.387

> <W(PB)>
-66.329

> <W(SA)>
1.942

> <Valence>
6.246

> <Coulomb>
-0.408

> <VdW>
0.460

> <VdW6>
-4.207

> <VdW12>
4.667

> <Bond>
0.072

> <Angle>
2.246

> <Pdih>
3.928

> <Idih>
0.001

> <Tether>
0.000

$$$$
VeraChem MOL file


 16 15  0  0  0  0  0  0  0  0999 V2000     
   18.5136   21.2840   21.8422 C   0  0  0  0  0  0  0  0  0  0  0  0
   17.3244   21.2474   21.5962 O   0  5  0  0  0  0  0  0  0  0  0  0
   19.2023   22.2720   21.6825 O   0  0  0  0  0  0  0  0  0  0  0  0
   19.1815   20.0152   22.3605 C   0  0  0  0  0  0  0  0  0  0  0  0
   18.4464   19.4634   22.9586 H   0  0  0  0  0  0  0  0  0  0  0  0
   19.9908   20.3153   23.0359 H   0  0  0  0  0  0  0  0  0  0  0  0
   19.7276   19.1152   21.2218 C   0  0  0  0  0  0  0  0  0  0  0  0
   18.9120   18.9044   20.5163 H   0  0  0  0  0  0  0  0  0  0  0  0
   20.4935   19.6638   20.6563 H   0  0  0  0  0  0  0  0  0  0  0  0
   20.3098   17.7736   21.7233 C   0  0  0  0  0  0  0  0  0  0  0  0
   20.5712   17.1550   20.8536 H   0  0  0  0  0  0  0  0  0  0  0  0
   19.5405   17.2195   22.2788 H   0  0  0  0  0  0  0  0  0  0  0  0
   21.5643   17.9466   22.6061 C   0  0  0  0  0  0  0  0  0  0  0  0
   21.3260   18.4628   23.5445 H   0  0  0  0  0  0  0  0  0  0  0  0
   22.3373   18.5233   22.0817 H   0  0  0  0  0  0  0  0  0  0  0  0
   21.9896   16.9680   22.8641 H   0  0  0  0  0  0  0  0  0  0  0  0
  1  2  1  0  0  0  0
  1  3  2  0  0  0  0
  1  4  1  0  0  0  0
  4  5  1  0  0  0  0
  4  6  1  0  0  0  0
  4  7  1  0  0  0  0
  7  8  1  0  0  0  0
  7  9  1  0  0  0  0
  7 10  1  0  0  0  0
 10 11  1  0  0  0  0
 10 12  1  0  0  0  0
 10 13  1  0  0  0  0
 13 14  1  0  0  0  0
 13 15  1  0  0  0  0
 13 16  1  0  0  0  0
M  END
> <VConfSearch Rank>
783

> <Conf_Id>
36

> <Delta U+W>
-0.427

> <U+W>
-57.331

> <U>
7.263

> <W>
-64.594

> <W(PB)>
-66.513

> <W(SA)>
1.920

> <Valence>
6.734

> <Coulomb>
-0.068

> <VdW>
0.598

> <VdW6>
-4.819

> <VdW12>
5.417

> <Bond>
0.107

> <Angle>
2.469

> <Pdih>
4.157

> <Idih>
0.001

> <Tether>
0.000

$$$$
VeraChem MOL file


 16 15  0  0  0  0  0  0  0  0999 V2000     
   21.6883   17.8786   23.4496 C   0  0  0  0  0  0  0  0  0  0  0  0
   21.1685   17.4250   24.4496 O   0  5  0  0  0  0  0  0  0  0  0  0
   22.8861   18.0443   23.3315 O   0  0  0  0  0  0  0  0  0  0  0  0
   20.7873   18.2806   22.2872 C   0  0  0  0  0  0  0  0  0  0  0  0
   19.9295   17.5985   22.2776 H   0  0  0  0  0  0  0  0  0  0  0  0
   21.3418   18.1191   21.3549 H   0  0  0  0  0  0  0  0  0  0  0  0
   20.3112   19.7538   22.3772 C   0  0  0  0  0  0  0  0  0  0  0  0
   19.7211   19.8929   23.2935 H   0  0  0  0  0  0  0  0  0  0  0  0
   21.1917   20.4042   22.4728 H   0  0  0  0  0  0  0  0  0  0  0  0
   19.4873   20.2102   21.1511 C   0  0  0  0  0  0  0  0  0  0  0  0
   20.0816   20.0820   20.2358 H   0  0  0  0  0  0  0  0  0  0  0  0
   19.2852   21.2863   21.2422 H   0  0  0  0  0  0  0  0  0  0  0  0
   18.1447   19.4620   21.0073 C   0  0  0  0  0  0  0  0  0  0  0  0
   18.3001   18.3958   20.8003 H   0  0  0  0  0  0  0  0  0  0  0  0
   17.5599   19.8797   20.1775 H   0  0  0  0  0  0  0  0  0  0  0  0
   17.5449   19.5519   21.9224 H   0  0  0  0  0  0  0  0  0  0  0  0
  1  2  1  0  0  0  0
  1  3  2  0  0  0  0
  1  4  1  0  0  0  0
  4  5  1  0  0  0  0
  4  6  1  0  0  0  0
  4  7  1  0  0  0  0
  7  8  1  0  0  0  0
  7  9  1  0  0  0  0
  7 10  1  0  0  0  0
 10 11  1  0  0  0  0
 10 12  1  0  0  0  0
 10 13  1  0  0  0  0
 13 14  1  0  0  0  0
 13 15  1  0  0  0  0
 13 16  1  0  0  0  0
M  END
> <VConfSearch Rank>
784

> <Conf_Id>
17

> <Delta U+W>
-0.432

> <U+W>
-57.336

> <U>
7.263

> <W>
-64.599

> <W(PB)>
-66.503

> <W(SA)>
1.904

> <Valence>
6.734

> <Coulomb>
-0.068

> <VdW>
0.598

> <VdW6>
-4.819

> <VdW12>
5.417

> <Bond>
0.107

> <Angle>
2.469

> <Pdih>
4.157

> <Idih>
0.001

> <Tether>
0.000

$$$$
VeraChem MOL file


 16 15  0  0  0  0  0  0  0  0999 V2000     
   22.2610   18.0915   22.0722 C   0  0  0  0  0  0  0  0  0  0  0  0
   22.7896   18.0837   20.9781 O   0  5  0  0  0  0  0  0  0  0  0  0
   22.8263   18.4446   23.0881 O   0  0  0  0  0  0  0  0  0  0  0  0
   20.8169   17.6089   22.1773 C   0  0  0  0  0  0  0  0  0  0  0  0
   20.6097   17.3477   23.2223 H   0  0  0  0  0  0  0  0  0  0  0  0
   20.7376   16.6819   21.5972 H   0  0  0  0  0  0  0  0  0  0  0  0
   19.7698   18.6312   21.6639 C   0  0  0  0  0  0  0  0  0  0  0  0
   20.0065   18.9050   20.6263 H   0  0  0  0  0  0  0  0  0  0  0  0
   18.7818   18.1514   21.6468 H   0  0  0  0  0  0  0  0  0  0  0  0
   19.7029   19.9024   22.5378 C   0  0  0  0  0  0  0  0  0  0  0  0
   20.6814   20.4025   22.5457 H   0  0  0  0  0  0  0  0  0  0  0  0
   19.4784   19.6261   23.5774 H   0  0  0  0  0  0  0  0  0  0  0  0
   18.6319   20.8859   22.0258 C   0  0  0  0  0  0  0  0  0  0  0  0
   18.8496   21.2026   20.9974 H   0  0  0  0  0  0  0  0  0  0  0  0
   18.5979   21.7835   22.6569 H   0  0  0  0  0  0  0  0  0  0  0  0
   17.6358   20.4243   22.0391 H   0  0  0  0  0  0  0  0  0  0  0  0
  1  2  1  0  0  0  0
  1  3  2  0  0  0  0
  1  4  1  0  0  0  0
  4  5  1  0  0  0  0
  4  6  1  0  0  0  0
  4  7  1  0  0  0  0
  7  8  1  0  0  0  0
  7  9  1  0  0  0  0
  7 10  1  0  0  0  0
 10 11  1  0  0  0  0
 10 12  1  0  0  0  0
 10 13  1  0  0  0  0
 13 14  1  0  0  0  0
 13 15  1  0  0  0  0
 13 16  1  0  0  0  0
M  END
> <VConfSearch Rank>
785

> <Conf_Id>
19

> <Delta U+W>
0.048

> <U+W>
-56.856

> <U>
8.276

> <W>
-65.132

> <W(PB)>
-67.031

> <W(SA)>
1.899

> <Valence>
6.513

> <Coulomb>
1.428

> <VdW>
0.335

> <VdW6>
-5.021

> <VdW12>
5.356

> <Bond>
0.092

> <Angle>
2.417

> <Pdih>
4.003

> <Idih>
0.001

> <Tether>
0.000

$$$$
VeraChem MOL file


 16 15  0  0  0  0  0  0  0  0999 V2000     
   18.4006   17.3507   21.6608 C   0  0  0  0  0  0  0  0  0  0  0  0
   17.4560   17.2978   22.4232 O   0  5  0  0  0  0  0  0  0  0  0  0
   19.1037   16.3958   21.3960 O   0  0  0  0  0  0  0  0  0  0  0  0
   18.7042   18.6838   20.9823 C   0  0  0  0  0  0  0  0  0  0  0  0
   17.7532   19.0913   20.6192 H   0  0  0  0  0  0  0  0  0  0  0  0
   19.3258   18.4939   20.0987 H   0  0  0  0  0  0  0  0  0  0  0  0
   19.3919   19.7216   21.9070 C   0  0  0  0  0  0  0  0  0  0  0  0
   19.4444   20.6858   21.3835 H   0  0  0  0  0  0  0  0  0  0  0  0
   18.7722   19.8802   22.8006 H   0  0  0  0  0  0  0  0  0  0  0  0
   20.8145   19.2924   22.3267 C   0  0  0  0  0  0  0  0  0  0  0  0
   21.4293   19.1222   21.4320 H   0  0  0  0  0  0  0  0  0  0  0  0
   20.7721   18.3380   22.8698 H   0  0  0  0  0  0  0  0  0  0  0  0
   21.4874   20.3560   23.2169 C   0  0  0  0  0  0  0  0  0  0  0  0
   21.5751   21.3136   22.6871 H   0  0  0  0  0  0  0  0  0  0  0  0
   22.4964   20.0353   23.5067 H   0  0  0  0  0  0  0  0  0  0  0  0
   20.9081   20.5232   24.1344 H   0  0  0  0  0  0  0  0  0  0  0  0
  1  2  1  0  0  0  0
  1  3  2  0  0  0  0
  1  4  1  0  0  0  0
  4  5  1  0  0  0  0
  4  6  1  0  0  0  0
  4  7  1  0  0  0  0
  7  8  1  0  0  0  0
  7  9  1  0  0  0  0
  7 10  1  0  0  0  0
 10 11  1  0  0  0  0
 10 12  1  0  0  0  0
 10 13  1  0  0  0  0
 13 14  1  0  0  0  0
 13 15  1  0  0  0  0
 13 16  1  0  0  0  0
M  END
> <VConfSearch Rank>
786

> <Conf_Id>
20

> <Delta U+W>
-0.010

> <U+W>
-56.914

> <U>
8.277

> <W>
-65.191

> <W(PB)>
-67.081

> <W(SA)>
1.890

> <Valence>
6.513

> <Coulomb>
1.429

> <VdW>
0.335

> <VdW6>
-5.021

> <VdW12>
5.356

> <Bond>
0.092

> <Angle>
2.417

> <Pdih>
4.002

> <Idih>
0.001

> <Tether>
0.000

$$$$
VeraChem MOL file


 16 15  0  0  0  0  0  0  0  0999 V2000     
   20.3754   19.0270   20.0899 C   0  0  0  0  0  0  0  0  0  0  0  0
   19.6847   18.4531   19.2712 O   0  5  0  0  0  0  0  0  0  0  0  0
   21.5799   18.8872   20.1666 O   0  0  0  0  0  0  0  0  0  0  0  0
   19.6956   20.0004   21.0493 C   0  0  0  0  0  0  0  0  0  0  0  0
   19.0773   20.6745   20.4450 H   0  0  0  0  0  0  0  0  0  0  0  0
   20.4638   20.6238   21.5210 H   0  0  0  0  0  0  0  0  0  0  0  0
   18.8080   19.3172   22.1254 C   0  0  0  0  0  0  0  0  0  0  0  0
   18.2985   20.0906   22.7159 H   0  0  0  0  0  0  0  0  0  0  0  0
   18.0176   18.7454   21.6196 H   0  0  0  0  0  0  0  0  0  0  0  0
   19.5761   18.3719   23.0794 C   0  0  0  0  0  0  0  0  0  0  0  0
   20.0623   17.5724   22.5031 H   0  0  0  0  0  0  0  0  0  0  0  0
   18.8535   17.8784   23.7438 H   0  0  0  0  0  0  0  0  0  0  0  0
   20.6283   19.1010   23.9419 C   0  0  0  0  0  0  0  0  0  0  0  0
   21.4393   19.5054   23.3228 H   0  0  0  0  0  0  0  0  0  0  0  0
   21.0774   18.4087   24.6657 H   0  0  0  0  0  0  0  0  0  0  0  0
   20.1740   19.9288   24.5017 H   0  0  0  0  0  0  0  0  0  0  0  0
  1  2  1  0  0  0  0
  1  3  2  0  0  0  0
  1  4  1  0  0  0  0
  4  5  1  0  0  0  0
  4  6  1  0  0  0  0
  4  7  1  0  0  0  0
  7  8  1  0  0  0  0
  7  9  1  0  0  0  0
  7 10  1  0  0  0  0
 10 11  1  0  0  0  0
 10 12  1  0  0  0  0
 10 13  1  0  0  0  0
 13 14  1  0  0  0  0
 13 15  1  0  0  0  0
 13 16  1  0  0  0  0
M  END
> <VConfSearch Rank>
787

> <Conf_Id>
37

> <Delta U+W>
1.063

> <U+W>
-55.841

> <U>
9.719

> <W>
-65.560

> <W(PB)>
-67.414

> <W(SA)>
1.854

> <Valence>
7.002

> <Coulomb>
2.402

> <VdW>
0.314

> <VdW6>
-5.861

> <VdW12>
6.175

> <Bond>
0.134

> <Angle>
2.733

> <Pdih>
4.133

> <Idih>
0.002

> <Tether>
0.000

$$$$
VeraChem MOL file


 16 15  0  0  0  0  0  0  0  0999 V2000     
   20.5433   21.2436   22.0705 C   0  0  0  0  0  0  0  0  0  0  0  0
   21.6668   21.7017   22.0018 O   0  5  0  0  0  0  0  0  0  0  0  0
   19.6249   21.6122   21.3656 O   0  0  0  0  0  0  0  0  0  0  0  0
   20.2657   20.1731   23.1226 C   0  0  0  0  0  0  0  0  0  0  0  0
   19.1811   20.0685   23.2405 H   0  0  0  0  0  0  0  0  0  0  0  0
   20.6467   20.5501   24.0789 H   0  0  0  0  0  0  0  0  0  0  0  0
   20.9185   18.7971   22.8174 C   0  0  0  0  0  0  0  0  0  0  0  0
   22.0078   18.9286   22.7592 H   0  0  0  0  0  0  0  0  0  0  0  0
   20.7351   18.1167   23.6599 H   0  0  0  0  0  0  0  0  0  0  0  0
   20.4248   18.1329   21.5100 C   0  0  0  0  0  0  0  0  0  0  0  0
   21.0017   17.2130   21.3424 H   0  0  0  0  0  0  0  0  0  0  0  0
   20.6344   18.7894   20.6541 H   0  0  0  0  0  0  0  0  0  0  0  0
   18.9222   17.7806   21.5360 C   0  0  0  0  0  0  0  0  0  0  0  0
   18.6795   17.1531   22.4034 H   0  0  0  0  0  0  0  0  0  0  0  0
   18.6420   17.2286   20.6296 H   0  0  0  0  0  0  0  0  0  0  0  0
   18.3021   18.6851   21.5784 H   0  0  0  0  0  0  0  0  0  0  0  0
  1  2  1  0  0  0  0
  1  3  2  0  0  0  0
  1  4  1  0  0  0  0
  4  5  1  0  0  0  0
  4  6  1  0  0  0  0
  4  7  1  0  0  0  0
  7  8  1  0  0  0  0
  7  9  1  0  0  0  0
  7 10  1  0  0  0  0
 10 11  1  0  0  0  0
 10 12  1  0  0  0  0
 10 13  1  0  0  0  0
 13 14  1  0  0  0  0
 13 15  1  0  0  0  0
 13 16  1  0  0  0  0
M  END
> <VConfSearch Rank>
788

> <Conf_Id>
39

> <Delta U+W>
1.129

> <U+W>
-55.775

> <U>
9.718

> <W>
-65.493

> <W(PB)>
-67.361

> <W(SA)>
1.869

> <Valence>
7.002

> <Coulomb>
2.402

> <VdW>
0.314

> <VdW6>
-5.861

> <VdW12>
6.175

> <Bond>
0.134

> <Angle>
2.734

> <Pdih>
4.133

> <Idih>
0.002

> <Tether>
0.000

$$$$
VeraChem MOL file


 16 15  0  0  0  0  0  0  0  0999 V2000     
   18.8917   19.4116   23.9597 C   0  0  0  0  0  0  0  0  0  0  0  0
   17.7397   19.0362   23.8661 O   0  5  0  0  0  0  0  0  0  0  0  0
   19.2061   20.5032   24.3918 O   0  0  0  0  0  0  0  0  0  0  0  0
   20.0024   18.4264   23.6001 C   0  0  0  0  0  0  0  0  0  0  0  0
   19.5508   17.4709   23.3071 H   0  0  0  0  0  0  0  0  0  0  0  0
   20.5600   18.2387   24.5251 H   0  0  0  0  0  0  0  0  0  0  0  0
   20.9922   18.9122   22.5040 C   0  0  0  0  0  0  0  0  0  0  0  0
   21.2841   19.9537   22.6980 H   0  0  0  0  0  0  0  0  0  0  0  0
   21.9123   18.3188   22.5912 H   0  0  0  0  0  0  0  0  0  0  0  0
   20.4729   18.7673   21.0532 C   0  0  0  0  0  0  0  0  0  0  0  0
   20.1803   17.7252   20.8640 H   0  0  0  0  0  0  0  0  0  0  0  0
   21.3010   18.9850   20.3646 H   0  0  0  0  0  0  0  0  0  0  0  0
   19.2964   19.7062   20.7150 C   0  0  0  0  0  0  0  0  0  0  0  0
   18.3886   19.4218   21.2610 H   0  0  0  0  0  0  0  0  0  0  0  0
   19.0645   19.6604   19.6431 H   0  0  0  0  0  0  0  0  0  0  0  0
   19.5382   20.7473   20.9658 H   0  0  0  0  0  0  0  0  0  0  0  0
  1  2  1  0  0  0  0
  1  3  2  0  0  0  0
  1  4  1  0  0  0  0
  4  5  1  0  0  0  0
  4  6  1  0  0  0  0
  4  7  1  0  0  0  0
  7  8  1  0  0  0  0
  7  9  1  0  0  0  0
  7 10  1  0  0  0  0
 10 11  1  0  0  0  0
 10 12  1  0  0  0  0
 10 13  1  0  0  0  0
 13 14  1  0  0  0  0
 13 15  1  0  0  0  0
 13 16  1  0  0  0  0
M  END
> <VConfSearch Rank>
789

> <Conf_Id>
47

> <Delta U+W>
2.301

> <U+W>
-54.603

> <U>
11.258

> <W>
-65.861

> <W(PB)>
-67.702

> <W(SA)>
1.841

> <Valence>
8.169

> <Coulomb>
2.735

> <VdW>
0.355

> <VdW6>
-6.245

> <VdW12>
6.600

> <Bond>
0.149

> <Angle>
3.168

> <Pdih>
4.840

> <Idih>
0.011

> <Tether>
0.000

$$$$
VeraChem MOL file


 16 15  0  0  0  0  0  0  0  0999 V2000     
   18.0499   18.3090   22.2655 C   0  0  0  0  0  0  0  0  0  0  0  0
   17.6369   18.2833   23.4083 O   0  5  0  0  0  0  0  0  0  0  0  0
   17.9874   17.3588   21.5105 O   0  0  0  0  0  0  0  0  0  0  0  0
   18.5931   19.6286   21.7204 C   0  0  0  0  0  0  0  0  0  0  0  0
   17.7635   20.3442   21.7605 H   0  0  0  0  0  0  0  0  0  0  0  0
   18.8452   19.5002   20.6607 H   0  0  0  0  0  0  0  0  0  0  0  0
   19.8059   20.2182   22.4940 C   0  0  0  0  0  0  0  0  0  0  0  0
   19.8687   21.2896   22.2603 H   0  0  0  0  0  0  0  0  0  0  0  0
   19.6265   20.1544   23.5763 H   0  0  0  0  0  0  0  0  0  0  0  0
   21.1706   19.5779   22.1429 C   0  0  0  0  0  0  0  0  0  0  0  0
   21.9646   20.1697   22.6190 H   0  0  0  0  0  0  0  0  0  0  0  0
   21.3452   19.6420   21.0601 H   0  0  0  0  0  0  0  0  0  0  0  0
   21.3094   18.1125   22.6051 C   0  0  0  0  0  0  0  0  0  0  0  0
   22.3377   17.7587   22.4560 H   0  0  0  0  0  0  0  0  0  0  0  0
   20.6470   17.4495   22.0354 H   0  0  0  0  0  0  0  0  0  0  0  0
   21.0666   18.0106   23.6709 H   0  0  0  0  0  0  0  0  0  0  0  0
  1  2  1  0  0  0  0
  1  3  2  0  0  0  0
  1  4  1  0  0  0  0
  4  5  1  0  0  0  0
  4  6  1  0  0  0  0
  4  7  1  0  0  0  0
  7  8  1  0  0  0  0
  7  9  1  0  0  0  0
  7 10  1  0  0  0  0
 10 11  1  0  0  0  0
 10 12  1  0  0  0  0
 10 13  1  0  0  0  0
 13 14  1  0  0  0  0
 13 15  1  0  0  0  0
 13 16  1  0  0  0  0
M  END
> <VConfSearch Rank>
790

> <Conf_Id>
45

> <Delta U+W>
2.303

> <U+W>
-54.601

> <U>
11.258

> <W>
-65.860

> <W(PB)>
-67.709

> <W(SA)>
1.849

> <Valence>
8.169

> <Coulomb>
2.735

> <VdW>
0.355

> <VdW6>
-6.245

> <VdW12>
6.600

> <Bond>
0.149

> <Angle>
3.168

> <Pdih>
4.840

> <Idih>
0.011

> <Tether>
0.000

$$$$
VeraChem MOL file


 16 15  0  0  0  0  0  0  0  0999 V2000     
   22.6699   18.4392   22.0334 C   0  0  0  0  0  0  0  0  0  0  0  0
   22.8517   18.5812   20.8399 O   0  5  0  0  0  0  0  0  0  0  0  0
   23.5476   18.0996   22.8012 O   0  0  0  0  0  0  0  0  0  0  0  0
   21.2827   18.6919   22.6265 C   0  0  0  0  0  0  0  0  0  0  0  0
   21.3923   19.4624   23.3988 H   0  0  0  0  0  0  0  0  0  0  0  0
   20.9710   17.7713   23.1339 H   0  0  0  0  0  0  0  0  0  0  0  0
   20.1938   19.1227   21.6081 C   0  0  0  0  0  0  0  0  0  0  0  0
   20.5140   20.0424   21.0990 H   0  0  0  0  0  0  0  0  0  0  0  0
   20.0923   18.3495   20.8339 H   0  0  0  0  0  0  0  0  0  0  0  0
   18.8298   19.3556   22.2910 C   0  0  0  0  0  0  0  0  0  0  0  0
   18.9295   20.1299   23.0643 H   0  0  0  0  0  0  0  0  0  0  0  0
   18.5075   18.4360   22.7990 H   0  0  0  0  0  0  0  0  0  0  0  0
   17.7527   19.7832   21.2746 C   0  0  0  0  0  0  0  0  0  0  0  0
   18.0348   20.7184   20.7734 H   0  0  0  0  0  0  0  0  0  0  0  0
   16.7897   19.9445   21.7763 H   0  0  0  0  0  0  0  0  0  0  0  0
   17.6097   19.0121   20.5062 H   0  0  0  0  0  0  0  0  0  0  0  0
  1  2  1  0  0  0  0
  1  3  2  0  0  0  0
  1  4  1  0  0  0  0
  4  5  1  0  0  0  0
  4  6  1  0  0  0  0
  4  7  1  0  0  0  0
  7  8  1  0  0  0  0
  7  9  1  0  0  0  0
  7 10  1  0  0  0  0
 10 11  1  0  0  0  0
 10 12  1  0  0  0  0
 10 13  1  0  0  0  0
 13 14  1  0  0  0  0
 13 15  1  0  0  0  0
 13 16  1  0  0  0  0
M  END
> <VConfSearch Rank>
791

> <Conf_Id>
0

> <Delta U+W>
0.000

> <U+W>
-56.904

> <U>
7.329

> <W>
-64.233

> <W(PB)>
-66.148

> <W(SA)>
1.915

> <Valence>
6.755

> <Coulomb>
-0.421

> <VdW>
0.995

> <VdW6>
-4.495

> <VdW12>
5.490

> <Bond>
0.106

> <Angle>
2.715

> <Pdih>
3.934

> <Idih>
0.000

> <Tether>
0.000

$$$$
VeraChem MOL file


 16 15  0  0  0  0  0  0  0  0999 V2000     
   22.0059   20.0986   20.3176 C   0  0  0  0  0  0  0  0  0  0  0  0
   23.1272   20.0322   20.7803 O   0  5  0  0  0  0  0  0  0  0  0  0
   21.7645   20.0322   19.1288 O   0  0  0  0  0  0  0  0  0  0  0  0
   20.8361   20.2558   21.2828 C   0  0  0  0  0  0  0  0  0  0  0  0
   20.0568   20.8425   20.7815 H   0  0  0  0  0  0  0  0  0  0  0  0
   21.1803   20.8424   22.1431 H   0  0  0  0  0  0  0  0  0  0  0  0
   20.2602   18.8990   21.7578 C   0  0  0  0  0  0  0  0  0  0  0  0
   19.9315   18.3185   20.8847 H   0  0  0  0  0  0  0  0  0  0  0  0
   21.0551   18.3183   22.2463 H   0  0  0  0  0  0  0  0  0  0  0  0
   19.0790   19.0863   22.7326 C   0  0  0  0  0  0  0  0  0  0  0  0
   18.2837   19.6665   22.2443 H   0  0  0  0  0  0  0  0  0  0  0  0
   19.4075   19.6663   23.6062 H   0  0  0  0  0  0  0  0  0  0  0  0
   18.5110   17.7321   23.2012 C   0  0  0  0  0  0  0  0  0  0  0  0
   19.2779   17.1433   23.7213 H   0  0  0  0  0  0  0  0  0  0  0  0
   18.1458   17.1435   22.3493 H   0  0  0  0  0  0  0  0  0  0  0  0
   17.6723   17.8831   23.8932 H   0  0  0  0  0  0  0  0  0  0  0  0
  1  2  1  0  0  0  0
  1  3  2  0  0  0  0
  1  4  1  0  0  0  0
  4  5  1  0  0  0  0
  4  6  1  0  0  0  0
  4  7  1  0  0  0  0
  7  8  1  0  0  0  0
  7  9  1  0  0  0  0
  7 10  1  0  0  0  0
 10 11  1  0  0  0  0
 10 12  1  0  0  0  0
 10 13  1  0  0  0  0
 13 14  1  0  0  0  0
 13 15  1  0  0  0  0
 13 16  1  0  0  0  0
M  END
> <VConfSearch Rank>
792

> <Conf_Id>
22

> <Delta U+W>
-1.185

> <U+W>
-58.089

> <U>
6.298

> <W>
-64.387

> <W(PB)>
-66.329

> <W(SA)>
1.942

> <Valence>
6.246

> <Coulomb>
-0.408

> <VdW>
0.460

> <VdW6>
-4.207

> <VdW12>
4.667

> <Bond>
0.072

> <Angle>
2.246

> <Pdih>
3.928

> <Idih>
0.001

> <Tether>
0.000

$$$$
VeraChem MOL file


 16 15  0  0  0  0  0  0  0  0999 V2000     
   18.4464   18.4587   20.0082 C   0  0  0  0  0  0  0  0  0  0  0  0
   18.3433   19.1337   19.0034 O   0  5  0  0  0  0  0  0  0  0  0  0
   17.6215   17.6356   20.3518 O   0  0  0  0  0  0  0  0  0  0  0  0
   19.6674   18.6706   20.8964 C   0  0  0  0  0  0  0  0  0  0  0  0
   20.5111   18.9506   20.2543 H   0  0  0  0  0  0  0  0  0  0  0  0
   19.9158   17.7084   21.3586 H   0  0  0  0  0  0  0  0  0  0  0  0
   19.4399   19.7542   21.9824 C   0  0  0  0  0  0  0  0  0  0  0  0
   19.1086   20.6805   21.4930 H   0  0  0  0  0  0  0  0  0  0  0  0
   18.6207   19.4427   22.6450 H   0  0  0  0  0  0  0  0  0  0  0  0
   20.7025   20.0595   22.8209 C   0  0  0  0  0  0  0  0  0  0  0  0
   20.4880   20.9073   23.4862 H   0  0  0  0  0  0  0  0  0  0  0  0
   21.5184   20.3824   22.1595 H   0  0  0  0  0  0  0  0  0  0  0  0
   21.1699   18.8620   23.6755 C   0  0  0  0  0  0  0  0  0  0  0  0
   21.5037   18.0269   23.0469 H   0  0  0  0  0  0  0  0  0  0  0  0
   20.3607   18.5030   24.3248 H   0  0  0  0  0  0  0  0  0  0  0  0
   22.0127   19.1533   24.3156 H   0  0  0  0  0  0  0  0  0  0  0  0
  1  2  1  0  0  0  0
  1  3  2  0  0  0  0
  1  4  1  0  0  0  0
  4  5  1  0  0  0  0
  4  6  1  0  0  0  0
  4  7  1  0  0  0  0
  7  8  1  0  0  0  0
  7  9  1  0  0  0  0
  7 10  1  0  0  0  0
 10 11  1  0  0  0  0
 10 12  1  0  0  0  0
 10 13  1  0  0  0  0
 13 14  1  0  0  0  0
 13 15  1  0  0  0  0
 13 16  1  0  0  0  0
M  END
> <VConfSearch Rank>
793

> <Conf_Id>
36

> <Delta U+W>
-0.427

> <U+W>
-57.331

> <U>
7.263

> <W>
-64.594

> <W(PB)>
-66.513

> <W(SA)>
1.920

> <Valence>
6.734

> <Coulomb>
-0.068

> <VdW>
0.598

> <VdW6>
-4.819

> <VdW12>
5.417

> <Bond>
0.107

> <Angle>
2.469

> <Pdih>
4.157

> <Idih>
0.001

> <Tether>
0.000

$$$$
VeraChem MOL file


 16 15  0  0  0  0  0  0  0  0999 V2000     
   21.2734   21.1049   23.0529 C   0  0  0  0  0  0  0  0  0  0  0  0
   22.4635   20.8653   23.0995 O   0  5  0  0  0  0  0  0  0  0  0  0
   20.7326   21.9553   23.7314 O   0  0  0  0  0  0  0  0  0  0  0  0
   20.4080   20.2803   22.1065 C   0  0  0  0  0  0  0  0  0  0  0  0
   21.0175   20.0260   21.2319 H   0  0  0  0  0  0  0  0  0  0  0  0
   19.5857   20.9158   21.7562 H   0  0  0  0  0  0  0  0  0  0  0  0
   19.8456   18.9968   22.7707 C   0  0  0  0  0  0  0  0  0  0  0  0
   20.6777   18.3488   23.0789 H   0  0  0  0  0  0  0  0  0  0  0  0
   19.3143   19.2787   23.6903 H   0  0  0  0  0  0  0  0  0  0  0  0
   18.8777   18.2063   21.8603 C   0  0  0  0  0  0  0  0  0  0  0  0
   18.0393   18.8506   21.5615 H   0  0  0  0  0  0  0  0  0  0  0  0
   18.4433   17.3800   22.4399 H   0  0  0  0  0  0  0  0  0  0  0  0
   19.5610   17.6271   20.6031 C   0  0  0  0  0  0  0  0  0  0  0  0
   19.9120   18.4233   19.9348 H   0  0  0  0  0  0  0  0  0  0  0  0
   18.8568   17.0042   20.0364 H   0  0  0  0  0  0  0  0  0  0  0  0
   20.4210   17.0017   20.8762 H   0  0  0  0  0  0  0  0  0  0  0  0
  1  2  1  0  0  0  0
  1  3  2  0  0  0  0
  1  4  1  0  0  0  0
  4  5  1  0  0  0  0
  4  6  1  0  0  0  0
  4  7  1  0  0  0  0
  7  8  1  0  0  0  0
  7  9  1  0  0  0  0
  7 10  1  0  0  0  0
 10 11  1  0  0  0  0
 10 12  1  0  0  0  0
 10 13  1  0  0  0  0
 13 14  1  0  0  0  0
 13 15  1  0  0  0  0
 13 16  1  0  0  0  0
M  END
> <VConfSearch Rank>
794

> <Conf_Id>
17

> <Delta U+W>
-0.432

> <U+W>
-57.336

> <U>
7.263

> <W>
-64.599

> <W(PB)>
-66.503

> <W(SA)>
1.904

> <Valence>
6.734

> <Coulomb>
-0.068

> <VdW>
0.598

> <VdW6>
-4.819

> <VdW12>
5.417

> <Bond>
0.107

> <Angle>
2.469

> <Pdih>
4.157

> <Idih>
0.001

> <Tether>
0.000

$$$$
VeraChem MOL file


 16 15  0  0  0  0  0  0  0  0999 V2000     
   22.1668   18.5300   21.0346 C   0  0  0  0  0  0  0  0  0  0  0  0
   22.5209   17.3933   21.2771 O   0  5  0  0  0  0  0  0  0  0  0  0
   22.1225   18.9942   19.9127 O   0  0  0  0  0  0  0  0  0  0  0  0
   21.7802   19.4288   22.2061 C   0  0  0  0  0  0  0  0  0  0  0  0
   21.8289   20.4740   21.8770 H   0  0  0  0  0  0  0  0  0  0  0  0
   22.5455   19.3047   22.9814 H   0  0  0  0  0  0  0  0  0  0  0  0
   20.3831   19.1210   22.8047 C   0  0  0  0  0  0  0  0  0  0  0  0
   20.3396   18.0644   23.1034 H   0  0  0  0  0  0  0  0  0  0  0  0
   20.2489   19.7140   23.7196 H   0  0  0  0  0  0  0  0  0  0  0  0
   19.2339   19.4345   21.8223 C   0  0  0  0  0  0  0  0  0  0  0  0
   19.3465   18.8313   20.9106 H   0  0  0  0  0  0  0  0  0  0  0  0
   19.2861   20.4882   21.5149 H   0  0  0  0  0  0  0  0  0  0  0  0
   17.8563   19.1520   22.4536 C   0  0  0  0  0  0  0  0  0  0  0  0
   17.7659   18.0966   22.7423 H   0  0  0  0  0  0  0  0  0  0  0  0
   17.0513   19.3790   21.7426 H   0  0  0  0  0  0  0  0  0  0  0  0
   17.7007   19.7674   23.3495 H   0  0  0  0  0  0  0  0  0  0  0  0
  1  2  1  0  0  0  0
  1  3  2  0  0  0  0
  1  4  1  0  0  0  0
  4  5  1  0  0  0  0
  4  6  1  0  0  0  0
  4  7  1  0  0  0  0
  7  8  1  0  0  0  0
  7  9  1  0  0  0  0
  7 10  1  0  0  0  0
 10 11  1  0  0  0  0
 10 12  1  0  0  0  0
 10 13  1  0  0  0  0
 13 14  1  0  0  0  0
 13 15  1  0  0  0  0
 13 16  1  0  0  0  0
M  END
> <VConfSearch Rank>
795

> <Conf_Id>
19

> <Delta U+W>
0.048

> <U+W>
-56.856

> <U>
8.276

> <W>
-65.132

> <W(PB)>
-67.031

> <W(SA)>
1.899

> <Valence>
6.513

> <Coulomb>
1.428

> <VdW>
0.335

> <VdW6>
-5.021

> <VdW12>
5.356

> <Bond>
0.092

> <Angle>
2.417

> <Pdih>
4.003

> <Idih>
0.001

> <Tether>
0.000

$$$$
VeraChem MOL file


 16 15  0  0  0  0  0  0  0  0999 V2000     
   21.4443   19.8581   20.4699 C   0  0  0  0  0  0  0  0  0  0  0  0
   22.4370   20.3706   20.9475 O   0  5  0  0  0  0  0  0  0  0  0  0
   20.8079   20.3489   19.5586 O   0  0  0  0  0  0  0  0  0  0  0  0
   20.9874   18.5140   21.0306 C   0  0  0  0  0  0  0  0  0  0  0  0
   21.8757   17.8779   21.1228 H   0  0  0  0  0  0  0  0  0  0  0  0
   20.3283   18.0339   20.2970 H   0  0  0  0  0  0  0  0  0  0  0  0
   20.2763   18.6115   22.4053 C   0  0  0  0  0  0  0  0  0  0  0  0
   20.1098   17.5973   22.7931 H   0  0  0  0  0  0  0  0  0  0  0  0
   20.9367   19.1196   23.1217 H   0  0  0  0  0  0  0  0  0  0  0  0
   18.9244   19.3530   22.3234 C   0  0  0  0  0  0  0  0  0  0  0  0
   18.2697   18.8511   21.5976 H   0  0  0  0  0  0  0  0  0  0  0  0
   19.0813   20.3767   21.9556 H   0  0  0  0  0  0  0  0  0  0  0  0
   18.2236   19.4061   23.6954 C   0  0  0  0  0  0  0  0  0  0  0  0
   18.0223   18.3952   24.0734 H   0  0  0  0  0  0  0  0  0  0  0  0
   17.2656   19.9368   23.6199 H   0  0  0  0  0  0  0  0  0  0  0  0
   18.8447   19.9310   24.4332 H   0  0  0  0  0  0  0  0  0  0  0  0
  1  2  1  0  0  0  0
  1  3  2  0  0  0  0
  1  4  1  0  0  0  0
  4  5  1  0  0  0  0
  4  6  1  0  0  0  0
  4  7  1  0  0  0  0
  7  8  1  0  0  0  0
  7  9  1  0  0  0  0
  7 10  1  0  0  0  0
 10 11  1  0  0  0  0
 10 12  1  0  0  0  0
 10 13  1  0  0  0  0
 13 14  1  0  0  0  0
 13 15  1  0  0  0  0
 13 16  1  0  0  0  0
M  END
> <VConfSearch Rank>
796

> <Conf_Id>
20

> <Delta U+W>
-0.010

> <U+W>
-56.914

> <U>
8.277

> <W>
-65.191

> <W(PB)>
-67.081

> <W(SA)>
1.890

> <Valence>
6.513

> <Coulomb>
1.429

> <VdW>
0.335

> <VdW6>
-5.021

> <VdW12>
5.356

> <Bond>
0.092

> <Angle>
2.417

> <Pdih>
4.002

> <Idih>
0.001

> <Tether>
0.000

$$$$
VeraChem MOL file


 16 15  0  0  0  0  0  0  0  0999 V2000     
   18.8792   18.5019   23.9656 C   0  0  0  0  0  0  0  0  0  0  0  0
   19.1502   18.9319   25.0694 O   0  5  0  0  0  0  0  0  0  0  0  0
   18.7438   17.3193   23.7216 O   0  0  0  0  0  0  0  0  0  0  0  0
   18.6646   19.5049   22.8353 C   0  0  0  0  0  0  0  0  0  0  0  0
   17.9575   20.2594   23.1995 H   0  0  0  0  0  0  0  0  0  0  0  0
   18.1704   18.9943   22.0008 H   0  0  0  0  0  0  0  0  0  0  0  0
   19.9630   20.2090   22.3546 C   0  0  0  0  0  0  0  0  0  0  0  0
   19.7047   20.9659   21.6018 H   0  0  0  0  0  0  0  0  0  0  0  0
   20.4027   20.7542   23.2012 H   0  0  0  0  0  0  0  0  0  0  0  0
   21.0283   19.2517   21.7692 C   0  0  0  0  0  0  0  0  0  0  0  0
   21.3211   18.5099   22.5252 H   0  0  0  0  0  0  0  0  0  0  0  0
   21.9330   19.8305   21.5375 H   0  0  0  0  0  0  0  0  0  0  0  0
   20.5587   18.5281   20.4892 C   0  0  0  0  0  0  0  0  0  0  0  0
   19.7297   17.8410   20.7018 H   0  0  0  0  0  0  0  0  0  0  0  0
   21.3780   17.9365   20.0605 H   0  0  0  0  0  0  0  0  0  0  0  0
   20.2265   19.2473   19.7292 H   0  0  0  0  0  0  0  0  0  0  0  0
  1  2  1  0  0  0  0
  1  3  2  0  0  0  0
  1  4  1  0  0  0  0
  4  5  1  0  0  0  0
  4  6  1  0  0  0  0
  4  7  1  0  0  0  0
  7  8  1  0  0  0  0
  7  9  1  0  0  0  0
  7 10  1  0  0  0  0
 10 11  1  0  0  0  0
 10 12  1  0  0  0  0
 10 13  1  0  0  0  0
 13 14  1  0  0  0  0
 13 15  1  0  0  0  0
 13 16  1  0  0  0  0
M  END
> <VConfSearch Rank>
797

> <Conf_Id>
37

> <Delta U+W>
1.063

> <U+W>
-55.841

> <U>
9.719

> <W>
-65.560

> <W(PB)>
-67.414

> <W(SA)>
1.854

> <Valence>
7.002

> <Coulomb>
2.402

> <VdW>
0.314

> <VdW6>
-5.861

> <VdW12>
6.175

> <Bond>
0.134

> <Angle>
2.733

> <Pdih>
4.133

> <Idih>
0.002

> <Tether>
0.000

$$$$
VeraChem MOL file


 16 15  0  0  0  0  0  0  0  0999 V2000     
   18.7295   17.6854   21.4439 C   0  0  0  0  0  0  0  0  0  0  0  0
   18.8402   17.1348   20.3662 O   0  5  0  0  0  0  0  0  0  0  0  0
   18.4644   17.0966   22.4731 O   0  0  0  0  0  0  0  0  0  0  0  0
   18.8987   19.2013   21.4983 C   0  0  0  0  0  0  0  0  0  0  0  0
   18.5064   19.5651   22.4549 H   0  0  0  0  0  0  0  0  0  0  0  0
   18.2583   19.6286   20.7178 H   0  0  0  0  0  0  0  0  0  0  0  0
   20.3589   19.6863   21.2854 C   0  0  0  0  0  0  0  0  0  0  0  0
   20.7014   19.3508   20.2967 H   0  0  0  0  0  0  0  0  0  0  0  0
   20.3737   20.7842   21.2602 H   0  0  0  0  0  0  0  0  0  0  0  0
   21.3588   19.1884   22.3561 C   0  0  0  0  0  0  0  0  0  0  0  0
   22.3694   19.5134   22.0728 H   0  0  0  0  0  0  0  0  0  0  0  0
   21.3792   18.0897   22.3673 H   0  0  0  0  0  0  0  0  0  0  0  0
   21.0455   19.7144   23.7730 C   0  0  0  0  0  0  0  0  0  0  0  0
   20.9843   20.8104   23.7819 H   0  0  0  0  0  0  0  0  0  0  0  0
   21.8323   19.4133   24.4766 H   0  0  0  0  0  0  0  0  0  0  0  0
   20.0953   19.3113   24.1461 H   0  0  0  0  0  0  0  0  0  0  0  0
  1  2  1  0  0  0  0
  1  3  2  0  0  0  0
  1  4  1  0  0  0  0
  4  5  1  0  0  0  0
  4  6  1  0  0  0  0
  4  7  1  0  0  0  0
  7  8  1  0  0  0  0
  7  9  1  0  0  0  0
  7 10  1  0  0  0  0
 10 11  1  0  0  0  0
 10 12  1  0  0  0  0
 10 13  1  0  0  0  0
 13 14  1  0  0  0  0
 13 15  1  0  0  0  0
 13 16  1  0  0  0  0
M  END
> <VConfSearch Rank>
798

> <Conf_Id>
39

> <Delta U+W>
1.129

> <U+W>
-55.775

> <U>
9.718

> <W>
-65.493

> <W(PB)>
-67.361

> <W(SA)>
1.869

> <Valence>
7.002

> <Coulomb>
2.402

> <VdW>
0.314

> <VdW6>
-5.861

> <VdW12>
6.175

> <Bond>
0.134

> <Angle>
2.734

> <Pdih>
4.133

> <Idih>
0.002

> <Tether>
0.000

$$$$
VeraChem MOL file


 16 15  0  0  0  0  0  0  0  0999 V2000     
   17.9680   19.2180   21.7853 C   0  0  0  0  0  0  0  0  0  0  0  0
   17.2913   18.4647   22.4572 O   0  5  0  0  0  0  0  0  0  0  0  0
   17.8754   19.3014   20.5764 O   0  0  0  0  0  0  0  0  0  0  0  0
   18.9182   20.1716   22.5074 C   0  0  0  0  0  0  0  0  0  0  0  0
   18.8211   20.0206   23.5895 H   0  0  0  0  0  0  0  0  0  0  0  0
   18.5560   21.1850   22.2989 H   0  0  0  0  0  0  0  0  0  0  0  0
   20.4102   20.0714   22.0821 C   0  0  0  0  0  0  0  0  0  0  0  0
   20.4846   20.0173   20.9871 H   0  0  0  0  0  0  0  0  0  0  0  0
   20.9092   21.0054   22.3736 H   0  0  0  0  0  0  0  0  0  0  0  0
   21.1893   18.8993   22.7261 C   0  0  0  0  0  0  0  0  0  0  0  0
   21.1108   18.9558   23.8206 H   0  0  0  0  0  0  0  0  0  0  0  0
   22.2551   19.0177   22.4868 H   0  0  0  0  0  0  0  0  0  0  0  0
   20.7320   17.5068   22.2442 C   0  0  0  0  0  0  0  0  0  0  0  0
   19.7226   17.2715   22.6030 H   0  0  0  0  0  0  0  0  0  0  0  0
   21.4067   16.7286   22.6237 H   0  0  0  0  0  0  0  0  0  0  0  0
   20.7308   17.4499   21.1478 H   0  0  0  0  0  0  0  0  0  0  0  0
  1  2  1  0  0  0  0
  1  3  2  0  0  0  0
  1  4  1  0  0  0  0
  4  5  1  0  0  0  0
  4  6  1  0  0  0  0
  4  7  1  0  0  0  0
  7  8  1  0  0  0  0
  7  9  1  0  0  0  0
  7 10  1  0  0  0  0
 10 11  1  0  0  0  0
 10 12  1  0  0  0  0
 10 13  1  0  0  0  0
 13 14  1  0  0  0  0
 13 15  1  0  0  0  0
 13 16  1  0  0  0  0
M  END
> <VConfSearch Rank>
799

> <Conf_Id>
47

> <Delta U+W>
2.301

> <U+W>
-54.603

> <U>
11.258

> <W>
-65.861

> <W(PB)>
-67.702

> <W(SA)>
1.841

> <Valence>
8.169

> <Coulomb>
2.735

> <VdW>
0.355

> <VdW6>
-6.245

> <VdW12>
6.600

> <Bond>
0.149

> <Angle>
3.168

> <Pdih>
4.840

> <Idih>
0.011

> <Tether>
0.000

$$$$
VeraChem MOL file


 16 15  0  0  0  0  0  0  0  0999 V2000     
   19.5450   20.2337   20.6481 C   0  0  0  0  0  0  0  0  0  0  0  0
   18.4095   20.0344   20.2632 O   0  5  0  0  0  0  0  0  0  0  0  0
   20.5102   20.2368   19.9098 O   0  0  0  0  0  0  0  0  0  0  0  0
   19.7607   20.5875   22.1184 C   0  0  0  0  0  0  0  0  0  0  0  0
   19.2112   21.5194   22.2957 H   0  0  0  0  0  0  0  0  0  0  0  0
   20.8218   20.8140   22.2790 H   0  0  0  0  0  0  0  0  0  0  0  0
   19.2793   19.5162   23.1371 C   0  0  0  0  0  0  0  0  0  0  0  0
   19.1456   20.0091   24.1095 H   0  0  0  0  0  0  0  0  0  0  0  0
   18.2870   19.1434   22.8476 H   0  0  0  0  0  0  0  0  0  0  0  0
   20.2541   18.3310   23.3389 C   0  0  0  0  0  0  0  0  0  0  0  0
   19.8965   17.7275   24.1846 H   0  0  0  0  0  0  0  0  0  0  0  0
   21.2453   18.7080   23.6264 H   0  0  0  0  0  0  0  0  0  0  0  0
   20.3853   17.4142   22.1050 C   0  0  0  0  0  0  0  0  0  0  0  0
   20.9746   16.5215   22.3510 H   0  0  0  0  0  0  0  0  0  0  0  0
   20.8928   17.9267   21.2787 H   0  0  0  0  0  0  0  0  0  0  0  0
   19.3994   17.0837   21.7529 H   0  0  0  0  0  0  0  0  0  0  0  0
  1  2  1  0  0  0  0
  1  3  2  0  0  0  0
  1  4  1  0  0  0  0
  4  5  1  0  0  0  0
  4  6  1  0  0  0  0
  4  7  1  0  0  0  0
  7  8  1  0  0  0  0
  7  9  1  0  0  0  0
  7 10  1  0  0  0  0
 10 11  1  0  0  0  0
 10 12  1  0  0  0  0
 10 13  1  0  0  0  0
 13 14  1  0  0  0  0
 13 15  1  0  0  0  0
 13 16  1  0  0  0  0
M  END
> <VConfSearch Rank>
800

> <Conf_Id>
45

> <Delta U+W>
2.303

> <U+W>
-54.601

> <U>
11.258

> <W>
-65.860

> <W(PB)>
-67.709

> <W(SA)>
1.849

> <Valence>
8.169

> <Coulomb>
2.735

> <VdW>
0.355

> <VdW6>
-6.245

> <VdW12>
6.600

> <Bond>
0.149

> <Angle>
3.168

> <Pdih>
4.840

> <Idih>
0.011

> <Tether>
0.000

$$$$
VeraChem MOL file


 16 15  0  0  0  0  0  0  0  0999 V2000     
   20.0106   17.5208   19.6808 C   0  0  0  0  0  0  0  0  0  0  0  0
   21.0080   16.9068   20.0061 O   0  5  0  0  0  0  0  0  0  0  0  0
   19.4061   17.3038   18.6498 O   0  0  0  0  0  0  0  0  0  0  0  0
   19.4666   18.6240   20.5902 C   0  0  0  0  0  0  0  0  0  0  0  0
   18.4308   18.3631   20.8376 H   0  0  0  0  0  0  0  0  0  0  0  0
   19.4324   19.5474   20.0000 H   0  0  0  0  0  0  0  0  0  0  0  0
   20.2715   18.8659   21.8947 C   0  0  0  0  0  0  0  0  0  0  0  0
   20.3070   17.9360   22.4791 H   0  0  0  0  0  0  0  0  0  0  0  0
   21.3096   19.1216   21.6406 H   0  0  0  0  0  0  0  0  0  0  0  0
   19.6538   19.9926   22.7492 C   0  0  0  0  0  0  0  0  0  0  0  0
   18.6162   19.7374   23.0055 H   0  0  0  0  0  0  0  0  0  0  0  0
   19.6194   20.9237   22.1665 H   0  0  0  0  0  0  0  0  0  0  0  0
   20.4575   20.2281   24.0433 C   0  0  0  0  0  0  0  0  0  0  0  0
   20.4818   19.3209   24.6611 H   0  0  0  0  0  0  0  0  0  0  0  0
   20.0052   21.0318   24.6388 H   0  0  0  0  0  0  0  0  0  0  0  0
   21.4924   20.5159   23.8160 H   0  0  0  0  0  0  0  0  0  0  0  0
  1  2  1  0  0  0  0
  1  3  2  0  0  0  0
  1  4  1  0  0  0  0
  4  5  1  0  0  0  0
  4  6  1  0  0  0  0
  4  7  1  0  0  0  0
  7  8  1  0  0  0  0
  7  9  1  0  0  0  0
  7 10  1  0  0  0  0
 10 11  1  0  0  0  0
 10 12  1  0  0  0  0
 10 13  1  0  0  0  0
 13 14  1  0  0  0  0
 13 15  1  0  0  0  0
 13 16  1  0  0  0  0
M  END
> <VConfSearch Rank>
801

> <Conf_Id>
0

> <Delta U+W>
0.000

> <U+W>
-56.904

> <U>
7.329

> <W>
-64.233

> <W(PB)>
-66.148

> <W(SA)>
1.915

> <Valence>
6.755

> <Coulomb>
-0.421

> <VdW>
0.995

> <VdW6>
-4.495

> <VdW12>
5.490

> <Bond>
0.106

> <Angle>
2.715

> <Pdih>
3.934

> <Idih>
0.000

> <Tether>
0.000

$$$$
VeraChem MOL file


 16 15  0  0  0  0  0  0  0  0999 V2000     
   17.7405   20.2729   21.0096 C   0  0  0  0  0  0  0  0  0  0  0  0
   16.8477   20.3633   21.8285 O   0  5  0  0  0  0  0  0  0  0  0  0
   17.8994   21.0610   20.0989 O   0  0  0  0  0  0  0  0  0  0  0  0
   18.7262   19.1174   21.1429 C   0  0  0  0  0  0  0  0  0  0  0  0
   19.0565   18.8330   20.1365 H   0  0  0  0  0  0  0  0  0  0  0  0
   18.1895   18.2579   21.5626 H   0  0  0  0  0  0  0  0  0  0  0  0
   19.9487   19.4668   22.0270 C   0  0  0  0  0  0  0  0  0  0  0  0
   20.4682   20.3364   21.6008 H   0  0  0  0  0  0  0  0  0  0  0  0
   19.6012   19.7613   23.0270 H   0  0  0  0  0  0  0  0  0  0  0  0
   20.9294   18.2816   22.1452 C   0  0  0  0  0  0  0  0  0  0  0  0
   21.2777   17.9873   21.1454 H   0  0  0  0  0  0  0  0  0  0  0  0
   20.4104   17.4120   22.5719 H   0  0  0  0  0  0  0  0  0  0  0  0
   22.1433   18.6366   23.0264 C   0  0  0  0  0  0  0  0  0  0  0  0
   21.8260   18.9050   24.0426 H   0  0  0  0  0  0  0  0  0  0  0  0
   22.6996   19.4845   22.6056 H   0  0  0  0  0  0  0  0  0  0  0  0
   22.8304   17.7836   23.1001 H   0  0  0  0  0  0  0  0  0  0  0  0
  1  2  1  0  0  0  0
  1  3  2  0  0  0  0
  1  4  1  0  0  0  0
  4  5  1  0  0  0  0
  4  6  1  0  0  0  0
  4  7  1  0  0  0  0
  7  8  1  0  0  0  0
  7  9  1  0  0  0  0
  7 10  1  0  0  0  0
 10 11  1  0  0  0  0
 10 12  1  0  0  0  0
 10 13  1  0  0  0  0
 13 14  1  0  0  0  0
 13 15  1  0  0  0  0
 13 16  1  0  0  0  0
M  END
> <VConfSearch Rank>
802

> <Conf_Id>
22

> <Delta U+W>
-1.185

> <U+W>
-58.089

> <U>
6.298

> <W>
-64.387

> <W(PB)>
-66.329

> <W(SA)>
1.942

> <Valence>
6.246

> <Coulomb>
-0.408

> <VdW>
0.460

> <VdW6>
-4.207

> <VdW12>
4.667

> <Bond>
0.072

> <Angle>
2.246

> <Pdih>
3.928

> <Idih>
0.001

> <Tether>
0.000

$$$$
VeraChem MOL file


 16 15  0  0  0  0  0  0  0  0999 V2000     
   18.8469   19.2039   19.6550 C   0  0  0  0  0  0  0  0  0  0  0  0
   18.8430   18.2429   18.9117 O   0  5  0  0  0  0  0  0  0  0  0  0
   18.6791   20.3461   19.2767 O   0  0  0  0  0  0  0  0  0  0  0  0
   19.0959   18.9651   21.1401 C   0  0  0  0  0  0  0  0  0  0  0  0
   18.6769   17.9862   21.4025 H   0  0  0  0  0  0  0  0  0  0  0  0
   18.5324   19.7205   21.6994 H   0  0  0  0  0  0  0  0  0  0  0  0
   20.6000   19.0199   21.5138 C   0  0  0  0  0  0  0  0  0  0  0  0
   21.1485   18.3135   20.8754 H   0  0  0  0  0  0  0  0  0  0  0  0
   20.9982   20.0183   21.2860 H   0  0  0  0  0  0  0  0  0  0  0  0
   20.8794   18.6716   22.9941 C   0  0  0  0  0  0  0  0  0  0  0  0
   21.9665   18.6261   23.1471 H   0  0  0  0  0  0  0  0  0  0  0  0
   20.4917   17.6684   23.2190 H   0  0  0  0  0  0  0  0  0  0  0  0
   20.2799   19.6937   23.9834 C   0  0  0  0  0  0  0  0  0  0  0  0
   19.1834   19.6919   23.9463 H   0  0  0  0  0  0  0  0  0  0  0  0
   20.6310   20.7095   23.7598 H   0  0  0  0  0  0  0  0  0  0  0  0
   20.5778   19.4521   25.0120 H   0  0  0  0  0  0  0  0  0  0  0  0
  1  2  1  0  0  0  0
  1  3  2  0  0  0  0
  1  4  1  0  0  0  0
  4  5  1  0  0  0  0
  4  6  1  0  0  0  0
  4  7  1  0  0  0  0
  7  8  1  0  0  0  0
  7  9  1  0  0  0  0
  7 10  1  0  0  0  0
 10 11  1  0  0  0  0
 10 12  1  0  0  0  0
 10 13  1  0  0  0  0
 13 14  1  0  0  0  0
 13 15  1  0  0  0  0
 13 16  1  0  0  0  0
M  END
> <VConfSearch Rank>
803

> <Conf_Id>
36

> <Delta U+W>
-0.427

> <U+W>
-57.331

> <U>
7.263

> <W>
-64.594

> <W(PB)>
-66.513

> <W(SA)>
1.920

> <Valence>
6.734

> <Coulomb>
-0.068

> <VdW>
0.598

> <VdW6>
-4.819

> <VdW12>
5.417

> <Bond>
0.107

> <Angle>
2.469

> <Pdih>
4.157

> <Idih>
0.001

> <Tether>
0.000

$$$$
VeraChem MOL file


 16 15  0  0  0  0  0  0  0  0999 V2000     
   19.5425   20.8043   20.0512 C   0  0  0  0  0  0  0  0  0  0  0  0
   20.5473   20.9712   19.3890 O   0  5  0  0  0  0  0  0  0  0  0  0
   18.5993   21.5701   20.0450 O   0  0  0  0  0  0  0  0  0  0  0  0
   19.4690   19.5782   20.9543 C   0  0  0  0  0  0  0  0  0  0  0  0
   20.0232   18.7689   20.4653 H   0  0  0  0  0  0  0  0  0  0  0  0
   18.4204   19.2632   21.0163 H   0  0  0  0  0  0  0  0  0  0  0  0
   20.0319   19.8432   22.3748 C   0  0  0  0  0  0  0  0  0  0  0  0
   21.0938   20.1163   22.3032 H   0  0  0  0  0  0  0  0  0  0  0  0
   19.5155   20.7137   22.8027 H   0  0  0  0  0  0  0  0  0  0  0  0
   19.8648   18.6443   23.3366 C   0  0  0  0  0  0  0  0  0  0  0  0
   18.8017   18.3785   23.4175 H   0  0  0  0  0  0  0  0  0  0  0  0
   20.1858   18.9505   24.3419 H   0  0  0  0  0  0  0  0  0  0  0  0
   20.6790   17.4040   22.9104 C   0  0  0  0  0  0  0  0  0  0  0  0
   20.3158   16.9932   21.9601 H   0  0  0  0  0  0  0  0  0  0  0  0
   20.5972   16.6129   23.6671 H   0  0  0  0  0  0  0  0  0  0  0  0
   21.7421   17.6525   22.7950 H   0  0  0  0  0  0  0  0  0  0  0  0
  1  2  1  0  0  0  0
  1  3  2  0  0  0  0
  1  4  1  0  0  0  0
  4  5  1  0  0  0  0
  4  6  1  0  0  0  0
  4  7  1  0  0  0  0
  7  8  1  0  0  0  0
  7  9  1  0  0  0  0
  7 10  1  0  0  0  0
 10 11  1  0  0  0  0
 10 12  1  0  0  0  0
 10 13  1  0  0  0  0
 13 14  1  0  0  0  0
 13 15  1  0  0  0  0
 13 16  1  0  0  0  0
M  END
> <VConfSearch Rank>
804

> <Conf_Id>
17

> <Delta U+W>
-0.432

> <U+W>
-57.336

> <U>
7.263

> <W>
-64.599

> <W(PB)>
-66.503

> <W(SA)>
1.904

> <Valence>
6.734

> <Coulomb>
-0.068

> <VdW>
0.598

> <VdW6>
-4.819

> <VdW12>
5.417

> <Bond>
0.107

> <Angle>
2.469

> <Pdih>
4.157

> <Idih>
0.001

> <Tether>
0.000

$$$$
VeraChem MOL file


 16 15  0  0  0  0  0  0  0  0999 V2000     
   20.5175   20.5826   20.2557 C   0  0  0  0  0  0  0  0  0  0  0  0
   21.6418   20.5061   19.8014 O   0  5  0  0  0  0  0  0  0  0  0  0
   19.5136   20.5431   19.5724 O   0  0  0  0  0  0  0  0  0  0  0  0
   20.3609   20.7620   21.7632 C   0  0  0  0  0  0  0  0  0  0  0  0
   19.3577   21.1559   21.9671 H   0  0  0  0  0  0  0  0  0  0  0  0
   21.0741   21.5331   22.0778 H   0  0  0  0  0  0  0  0  0  0  0  0
   20.6040   19.4679   22.5825 C   0  0  0  0  0  0  0  0  0  0  0  0
   21.6006   19.0694   22.3467 H   0  0  0  0  0  0  0  0  0  0  0  0
   20.6086   19.7186   23.6519 H   0  0  0  0  0  0  0  0  0  0  0  0
   19.5329   18.3876   22.3179 C   0  0  0  0  0  0  0  0  0  0  0  0
   19.5331   18.1138   21.2537 H   0  0  0  0  0  0  0  0  0  0  0  0
   18.5359   18.7915   22.5423 H   0  0  0  0  0  0  0  0  0  0  0  0
   19.7788   17.1261   23.1690 C   0  0  0  0  0  0  0  0  0  0  0  0
   20.7577   16.6839   22.9416 H   0  0  0  0  0  0  0  0  0  0  0  0
   19.0099   16.3686   22.9685 H   0  0  0  0  0  0  0  0  0  0  0  0
   19.7499   17.3630   24.2407 H   0  0  0  0  0  0  0  0  0  0  0  0
  1  2  1  0  0  0  0
  1  3  2  0  0  0  0
  1  4  1  0  0  0  0
  4  5  1  0  0  0  0
  4  6  1  0  0  0  0
  4  7  1  0  0  0  0
  7  8  1  0  0  0  0
  7  9  1  0  0  0  0
  7 10  1  0  0  0  0
 10 11  1  0  0  0  0
 10 12  1  0  0  0  0
 10 13  1  0  0  0  0
 13 14  1  0  0  0  0
 13 15  1  0  0  0  0
 13 16  1  0  0  0  0
M  END
> <VConfSearch Rank>
805

> <Conf_Id>
19

> <Delta U+W>
0.048

> <U+W>
-56.856

> <U>
8.276

> <W>
-65.132

> <W(PB)>
-67.031

> <W(SA)>
1.899

> <Valence>
6.513

> <Coulomb>
1.428

> <VdW>
0.335

> <VdW6>
-5.021

> <VdW12>
5.356

> <Bond>
0.092

> <Angle>
2.417

> <Pdih>
4.003

> <Idih>
0.001

> <Tether>
0.000

$$$$
VeraChem MOL file


 16 15  0  0  0  0  0  0  0  0999 V2000     
   20.0713   18.5712   24.3740 C   0  0  0  0  0  0  0  0  0  0  0  0
   21.2202   18.5499   24.7687 O   0  5  0  0  0  0  0  0  0  0  0  0
   19.2777   17.6722   24.5697 O   0  0  0  0  0  0  0  0  0  0  0  0
   19.5947   19.8048   23.6120 C   0  0  0  0  0  0  0  0  0  0  0  0
   19.9438   20.6861   24.1631 H   0  0  0  0  0  0  0  0  0  0  0  0
   18.4984   19.8297   23.6359 H   0  0  0  0  0  0  0  0  0  0  0  0
   20.0996   19.8773   22.1475 C   0  0  0  0  0  0  0  0  0  0  0  0
   19.8279   20.8540   21.7248 H   0  0  0  0  0  0  0  0  0  0  0  0
   21.1971   19.8226   22.1376 H   0  0  0  0  0  0  0  0  0  0  0  0
   19.5121   18.7580   21.2607 C   0  0  0  0  0  0  0  0  0  0  0  0
   18.4146   18.8063   21.2815 H   0  0  0  0  0  0  0  0  0  0  0  0
   19.7950   17.7752   21.6629 H   0  0  0  0  0  0  0  0  0  0  0  0
   20.0032   18.8733   19.8040 C   0  0  0  0  0  0  0  0  0  0  0  0
   19.7045   19.8335   19.3633 H   0  0  0  0  0  0  0  0  0  0  0  0
   19.5775   18.0705   19.1879 H   0  0  0  0  0  0  0  0  0  0  0  0
   21.0972   18.7970   19.7515 H   0  0  0  0  0  0  0  0  0  0  0  0
  1  2  1  0  0  0  0
  1  3  2  0  0  0  0
  1  4  1  0  0  0  0
  4  5  1  0  0  0  0
  4  6  1  0  0  0  0
  4  7  1  0  0  0  0
  7  8  1  0  0  0  0
  7  9  1  0  0  0  0
  7 10  1  0  0  0  0
 10 11  1  0  0  0  0
 10 12  1  0  0  0  0
 10 13  1  0  0  0  0
 13 14  1  0  0  0  0
 13 15  1  0  0  0  0
 13 16  1  0  0  0  0
M  END
> <VConfSearch Rank>
806

> <Conf_Id>
20

> <Delta U+W>
-0.010

> <U+W>
-56.914

> <U>
8.277

> <W>
-65.191

> <W(PB)>
-67.081

> <W(SA)>
1.890

> <Valence>
6.513

> <Coulomb>
1.429

> <VdW>
0.335

> <VdW6>
-5.021

> <VdW12>
5.356

> <Bond>
0.092

> <Angle>
2.417

> <Pdih>
4.002

> <Idih>
0.001

> <Tether>
0.000

$$$$
VeraChem MOL file


 16 15  0  0  0  0  0  0  0  0999 V2000     
   21.4068   18.1228   23.2480 C   0  0  0  0  0  0  0  0  0  0  0  0
   22.3435   17.5741   22.7020 O   0  5  0  0  0  0  0  0  0  0  0  0
   20.7524   17.6090   24.1335 O   0  0  0  0  0  0  0  0  0  0  0  0
   21.0575   19.5459   22.8205 C   0  0  0  0  0  0  0  0  0  0  0  0
   21.9850   20.1299   22.8449 H   0  0  0  0  0  0  0  0  0  0  0  0
   20.3937   19.9866   23.5731 H   0  0  0  0  0  0  0  0  0  0  0  0
   20.4248   19.6476   21.4056 C   0  0  0  0  0  0  0  0  0  0  0  0
   20.2818   20.7063   21.1503 H   0  0  0  0  0  0  0  0  0  0  0  0
   21.1372   19.2472   20.6710 H   0  0  0  0  0  0  0  0  0  0  0  0
   19.0781   18.9011   21.2540 C   0  0  0  0  0  0  0  0  0  0  0  0
   19.2152   17.8330   21.4731 H   0  0  0  0  0  0  0  0  0  0  0  0
   18.7571   18.9627   20.2050 H   0  0  0  0  0  0  0  0  0  0  0  0
   17.9603   19.4739   22.1512 C   0  0  0  0  0  0  0  0  0  0  0  0
   18.1854   19.3204   23.2143 H   0  0  0  0  0  0  0  0  0  0  0  0
   17.0054   18.9758   21.9393 H   0  0  0  0  0  0  0  0  0  0  0  0
   17.8273   20.5495   21.9768 H   0  0  0  0  0  0  0  0  0  0  0  0
  1  2  1  0  0  0  0
  1  3  2  0  0  0  0
  1  4  1  0  0  0  0
  4  5  1  0  0  0  0
  4  6  1  0  0  0  0
  4  7  1  0  0  0  0
  7  8  1  0  0  0  0
  7  9  1  0  0  0  0
  7 10  1  0  0  0  0
 10 11  1  0  0  0  0
 10 12  1  0  0  0  0
 10 13  1  0  0  0  0
 13 14  1  0  0  0  0
 13 15  1  0  0  0  0
 13 16  1  0  0  0  0
M  END
> <VConfSearch Rank>
807

> <Conf_Id>
37

> <Delta U+W>
1.063

> <U+W>
-55.841

> <U>
9.719

> <W>
-65.560

> <W(PB)>
-67.414

> <W(SA)>
1.854

> <Valence>
7.002

> <Coulomb>
2.402

> <VdW>
0.314

> <VdW6>
-5.861

> <VdW12>
6.175

> <Bond>
0.134

> <Angle>
2.733

> <Pdih>
4.133

> <Idih>
0.002

> <Tether>
0.000

$$$$
VeraChem MOL file


 16 15  0  0  0  0  0  0  0  0999 V2000     
   19.0126   19.3921   20.3600 C   0  0  0  0  0  0  0  0  0  0  0  0
   19.4551   19.1259   19.2600 O   0  5  0  0  0  0  0  0  0  0  0  0
   17.9065   19.0585   20.7362 O   0  0  0  0  0  0  0  0  0  0  0  0
   19.8811   20.2190   21.3043 C   0  0  0  0  0  0  0  0  0  0  0  0
   19.2532   20.5983   22.1186 H   0  0  0  0  0  0  0  0  0  0  0  0
   20.2264   21.0962   20.7446 H   0  0  0  0  0  0  0  0  0  0  0  0
   21.1099   19.4559   21.8704 C   0  0  0  0  0  0  0  0  0  0  0  0
   21.7444   19.1373   21.0318 H   0  0  0  0  0  0  0  0  0  0  0  0
   21.7173   20.1465   22.4709 H   0  0  0  0  0  0  0  0  0  0  0  0
   20.7527   18.2170   22.7256 C   0  0  0  0  0  0  0  0  0  0  0  0
   21.6822   17.7033   23.0072 H   0  0  0  0  0  0  0  0  0  0  0  0
   20.1739   17.5016   22.1250 H   0  0  0  0  0  0  0  0  0  0  0  0
   19.9695   18.5681   24.0085 C   0  0  0  0  0  0  0  0  0  0  0  0
   20.5109   19.3095   24.6103 H   0  0  0  0  0  0  0  0  0  0  0  0
   19.8232   17.6724   24.6258 H   0  0  0  0  0  0  0  0  0  0  0  0
   18.9773   18.9726   23.7709 H   0  0  0  0  0  0  0  0  0  0  0  0
  1  2  1  0  0  0  0
  1  3  2  0  0  0  0
  1  4  1  0  0  0  0
  4  5  1  0  0  0  0
  4  6  1  0  0  0  0
  4  7  1  0  0  0  0
  7  8  1  0  0  0  0
  7  9  1  0  0  0  0
  7 10  1  0  0  0  0
 10 11  1  0  0  0  0
 10 12  1  0  0  0  0
 10 13  1  0  0  0  0
 13 14  1  0  0  0  0
 13 15  1  0  0  0  0
 13 16  1  0  0  0  0
M  END
> <VConfSearch Rank>
808

> <Conf_Id>
39

> <Delta U+W>
1.129

> <U+W>
-55.775

> <U>
9.718

> <W>
-65.493

> <W(PB)>
-67.361

> <W(SA)>
1.869

> <Valence>
7.002

> <Coulomb>
2.402

> <VdW>
0.314

> <VdW6>
-5.861

> <VdW12>
6.175

> <Bond>
0.134

> <Angle>
2.734

> <Pdih>
4.133

> <Idih>
0.002

> <Tether>
0.000

$$$$
VeraChem MOL file


 16 15  0  0  0  0  0  0  0  0999 V2000     
   20.2677   21.0404   22.3270 C   0  0  0  0  0  0  0  0  0  0  0  0
   21.3991   21.2639   22.7101 O   0  5  0  0  0  0  0  0  0  0  0  0
   19.2878   21.6074   22.7692 O   0  0  0  0  0  0  0  0  0  0  0  0
   20.0788   20.0627   21.1686 C   0  0  0  0  0  0  0  0  0  0  0  0
   21.0620   19.7051   20.8394 H   0  0  0  0  0  0  0  0  0  0  0  0
   19.6630   20.6448   20.3379 H   0  0  0  0  0  0  0  0  0  0  0  0
   19.1392   18.8592   21.4614 C   0  0  0  0  0  0  0  0  0  0  0  0
   18.2357   19.2072   21.9810 H   0  0  0  0  0  0  0  0  0  0  0  0
   18.7978   18.4538   20.4994 H   0  0  0  0  0  0  0  0  0  0  0  0
   19.7961   17.7034   22.2540 C   0  0  0  0  0  0  0  0  0  0  0  0
   20.6999   17.3597   21.7323 H   0  0  0  0  0  0  0  0  0  0  0  0
   19.1027   16.8511   22.2639 H   0  0  0  0  0  0  0  0  0  0  0  0
   20.1450   18.0664   23.7124 C   0  0  0  0  0  0  0  0  0  0  0  0
   20.9579   18.8013   23.7576 H   0  0  0  0  0  0  0  0  0  0  0  0
   20.4752   17.1752   24.2614 H   0  0  0  0  0  0  0  0  0  0  0  0
   19.2735   18.4831   24.2342 H   0  0  0  0  0  0  0  0  0  0  0  0
  1  2  1  0  0  0  0
  1  3  2  0  0  0  0
  1  4  1  0  0  0  0
  4  5  1  0  0  0  0
  4  6  1  0  0  0  0
  4  7  1  0  0  0  0
  7  8  1  0  0  0  0
  7  9  1  0  0  0  0
  7 10  1  0  0  0  0
 10 11  1  0  0  0  0
 10 12  1  0  0  0  0
 10 13  1  0  0  0  0
 13 14  1  0  0  0  0
 13 15  1  0  0  0  0
 13 16  1  0  0  0  0
M  END
> <VConfSearch Rank>
809

> <Conf_Id>
47

> <Delta U+W>
2.301

> <U+W>
-54.603

> <U>
11.258

> <W>
-65.861

> <W(PB)>
-67.702

> <W(SA)>
1.841

> <Valence>
8.169

> <Coulomb>
2.735

> <VdW>
0.355

> <VdW6>
-6.245

> <VdW12>
6.600

> <Bond>
0.149

> <Angle>
3.168

> <Pdih>
4.840

> <Idih>
0.011

> <Tether>
0.000

$$$$
VeraChem MOL file


 16 15  0  0  0  0  0  0  0  0999 V2000     
   21.6620   18.2626   22.5280 C   0  0  0  0  0  0  0  0  0  0  0  0
   22.0037   17.7458   21.4824 O   0  5  0  0  0  0  0  0  0  0  0  0
   21.7282   17.7015   23.6040 O   0  0  0  0  0  0  0  0  0  0  0  0
   21.2111   19.7219   22.5022 C   0  0  0  0  0  0  0  0  0  0  0  0
   22.0673   20.3033   22.1408 H   0  0  0  0  0  0  0  0  0  0  0  0
   21.0181   20.0540   23.5296 H   0  0  0  0  0  0  0  0  0  0  0  0
   19.9809   20.0214   21.6002 C   0  0  0  0  0  0  0  0  0  0  0  0
   19.9794   21.0964   21.3749 H   0  0  0  0  0  0  0  0  0  0  0  0
   20.0915   19.5098   20.6340 H   0  0  0  0  0  0  0  0  0  0  0  0
   18.6131   19.6701   22.2338 C   0  0  0  0  0  0  0  0  0  0  0  0
   17.8185   20.0661   21.5863 H   0  0  0  0  0  0  0  0  0  0  0  0
   18.5072   20.1820   23.2002 H   0  0  0  0  0  0  0  0  0  0  0  0
   18.3824   18.1561   22.4203 C   0  0  0  0  0  0  0  0  0  0  0  0
   17.3505   17.9615   22.7397 H   0  0  0  0  0  0  0  0  0  0  0  0
   19.0483   17.7421   23.1872 H   0  0  0  0  0  0  0  0  0  0  0  0
   18.5558   17.6124   21.4824 H   0  0  0  0  0  0  0  0  0  0  0  0
  1  2  1  0  0  0  0
  1  3  2  0  0  0  0
  1  4  1  0  0  0  0
  4  5  1  0  0  0  0
  4  6  1  0  0  0  0
  4  7  1  0  0  0  0
  7  8  1  0  0  0  0
  7  9  1  0  0  0  0
  7 10  1  0  0  0  0
 10 11  1  0  0  0  0
 10 12  1  0  0  0  0
 10 13  1  0  0  0  0
 13 14  1  0  0  0  0
 13 15  1  0  0  0  0
 13 16  1  0  0  0  0
M  END
> <VConfSearch Rank>
810

> <Conf_Id>
45

> <Delta U+W>
2.303

> <U+W>
-54.601

> <U>
11.258

> <W>
-65.860

> <W(PB)>
-67.709

> <W(SA)>
1.849

> <Valence>
8.169

> <Coulomb>
2.735

> <VdW>
0.355

> <VdW6>
-6.245

> <VdW12>
6.600

> <Bond>
0.149

> <Angle>
3.168

> <Pdih>
4.840

> <Idih>
0.011

> <Tether>
0.000

$$$$
VeraChem MOL file


 16 15  0  0  0  0  0  0  0  0999 V2000     
   19.7157   20.3678   19.4831 C   0  0  0  0  0  0  0  0  0  0  0  0
   19.1738   19.4173   18.9533 O   0  5  0  0  0  0  0  0  0  0  0  0
   19.9425   21.4096   18.9014 O   0  0  0  0  0  0  0  0  0  0  0  0
   20.1439   20.2789   20.9489 C   0  0  0  0  0  0  0  0  0  0  0  0
   19.6478   21.0966   21.4850 H   0  0  0  0  0  0  0  0  0  0  0  0
   21.2215   20.4773   20.9876 H   0  0  0  0  0  0  0  0  0  0  0  0
   19.8345   18.9294   21.6501 C   0  0  0  0  0  0  0  0  0  0  0  0
   18.7543   18.7334   21.6034 H   0  0  0  0  0  0  0  0  0  0  0  0
   20.3297   18.1135   21.1055 H   0  0  0  0  0  0  0  0  0  0  0  0
   20.2990   18.9281   23.1217 C   0  0  0  0  0  0  0  0  0  0  0  0
   19.8032   19.7425   23.6679 H   0  0  0  0  0  0  0  0  0  0  0  0
   21.3795   19.1223   23.1698 H   0  0  0  0  0  0  0  0  0  0  0  0
   19.9890   17.5855   23.8126 C   0  0  0  0  0  0  0  0  0  0  0  0
   18.9104   17.3806   23.8068 H   0  0  0  0  0  0  0  0  0  0  0  0
   20.3255   17.6013   24.8575 H   0  0  0  0  0  0  0  0  0  0  0  0
   20.4984   16.7558   23.3050 H   0  0  0  0  0  0  0  0  0  0  0  0
  1  2  1  0  0  0  0
  1  3  2  0  0  0  0
  1  4  1  0  0  0  0
  4  5  1  0  0  0  0
  4  6  1  0  0  0  0
  4  7  1  0  0  0  0
  7  8  1  0  0  0  0
  7  9  1  0  0  0  0
  7 10  1  0  0  0  0
 10 11  1  0  0  0  0
 10 12  1  0  0  0  0
 10 13  1  0  0  0  0
 13 14  1  0  0  0  0
 13 15  1  0  0  0  0
 13 16  1  0  0  0  0
M  END
> <VConfSearch Rank>
811

> <Conf_Id>
0

> <Delta U+W>
0.000

> <U+W>
-56.904

> <U>
7.329

> <W>
-64.233

> <W(PB)>
-66.148

> <W(SA)>
1.915

> <Valence>
6.755

> <Coulomb>
-0.421

> <VdW>
0.995

> <VdW6>
-4.495

> <VdW12>
5.490

> <Bond>
0.106

> <Angle>
2.715

> <Pdih>
3.934

> <Idih>
0.000

> <Tether>
0.000

$$$$
VeraChem MOL file


 16 15  0  0  0  0  0  0  0  0999 V2000     
   21.9269   20.8265   22.9381 C   0  0  0  0  0  0  0  0  0  0  0  0
   23.0445   20.6656   22.4898 O   0  5  0  0  0  0  0  0  0  0  0  0
   21.4989   21.9024   23.3059 O   0  0  0  0  0  0  0  0  0  0  0  0
   21.0048   19.6156   23.0271 C   0  0  0  0  0  0  0  0  0  0  0  0
   20.3480   19.7501   23.8951 H   0  0  0  0  0  0  0  0  0  0  0  0
   21.6222   18.7304   23.2222 H   0  0  0  0  0  0  0  0  0  0  0  0
   20.1603   19.4056   21.7462 C   0  0  0  0  0  0  0  0  0  0  0  0
   19.5573   20.3047   21.5575 H   0  0  0  0  0  0  0  0  0  0  0  0
   20.8315   19.2850   20.8845 H   0  0  0  0  0  0  0  0  0  0  0  0
   19.2370   18.1750   21.8625 C   0  0  0  0  0  0  0  0  0  0  0  0
   18.5651   18.2955   22.7237 H   0  0  0  0  0  0  0  0  0  0  0  0
   19.8397   17.2756   22.0505 H   0  0  0  0  0  0  0  0  0  0  0  0
   18.3996   17.9722   20.5843 C   0  0  0  0  0  0  0  0  0  0  0  0
   19.0470   17.8177   19.7110 H   0  0  0  0  0  0  0  0  0  0  0  0
   17.7630   18.8452   20.3891 H   0  0  0  0  0  0  0  0  0  0  0  0
   17.7490   17.0936   20.6834 H   0  0  0  0  0  0  0  0  0  0  0  0
  1  2  1  0  0  0  0
  1  3  2  0  0  0  0
  1  4  1  0  0  0  0
  4  5  1  0  0  0  0
  4  6  1  0  0  0  0
  4  7  1  0  0  0  0
  7  8  1  0  0  0  0
  7  9  1  0  0  0  0
  7 10  1  0  0  0  0
 10 11  1  0  0  0  0
 10 12  1  0  0  0  0
 10 13  1  0  0  0  0
 13 14  1  0  0  0  0
 13 15  1  0  0  0  0
 13 16  1  0  0  0  0
M  END
> <VConfSearch Rank>
812

> <Conf_Id>
22

> <Delta U+W>
-1.185

> <U+W>
-58.089

> <U>
6.298

> <W>
-64.387

> <W(PB)>
-66.329

> <W(SA)>
1.942

> <Valence>
6.246

> <Coulomb>
-0.408

> <VdW>
0.460

> <VdW6>
-4.207

> <VdW12>
4.667

> <Bond>
0.072

> <Angle>
2.246

> <Pdih>
3.928

> <Idih>
0.001

> <Tether>
0.000

$$$$
VeraChem MOL file


 16 15  0  0  0  0  0  0  0  0999 V2000     
   17.9285   17.7447   21.2195 C   0  0  0  0  0  0  0  0  0  0  0  0
   16.7867   18.1471   21.3207 O   0  5  0  0  0  0  0  0  0  0  0  0
   18.2194   16.5702   21.1103 O   0  0  0  0  0  0  0  0  0  0  0  0
   19.0585   18.7678   21.2514 C   0  0  0  0  0  0  0  0  0  0  0  0
   18.6907   19.6956   20.7969 H   0  0  0  0  0  0  0  0  0  0  0  0
   19.8677   18.3924   20.6147 H   0  0  0  0  0  0  0  0  0  0  0  0
   19.5780   19.0451   22.6861 C   0  0  0  0  0  0  0  0  0  0  0  0
   18.7282   19.3355   23.3194 H   0  0  0  0  0  0  0  0  0  0  0  0
   19.9826   18.1180   23.1150 H   0  0  0  0  0  0  0  0  0  0  0  0
   20.6476   20.1597   22.7485 C   0  0  0  0  0  0  0  0  0  0  0  0
   20.8795   20.3681   23.8021 H   0  0  0  0  0  0  0  0  0  0  0  0
   20.2392   21.0902   22.3304 H   0  0  0  0  0  0  0  0  0  0  0  0
   21.9547   19.7907   22.0148 C   0  0  0  0  0  0  0  0  0  0  0  0
   21.7920   19.6838   20.9351 H   0  0  0  0  0  0  0  0  0  0  0  0
   22.3667   18.8475   22.3967 H   0  0  0  0  0  0  0  0  0  0  0  0
   22.7106   20.5732   22.1609 H   0  0  0  0  0  0  0  0  0  0  0  0
  1  2  1  0  0  0  0
  1  3  2  0  0  0  0
  1  4  1  0  0  0  0
  4  5  1  0  0  0  0
  4  6  1  0  0  0  0
  4  7  1  0  0  0  0
  7  8  1  0  0  0  0
  7  9  1  0  0  0  0
  7 10  1  0  0  0  0
 10 11  1  0  0  0  0
 10 12  1  0  0  0  0
 10 13  1  0  0  0  0
 13 14  1  0  0  0  0
 13 15  1  0  0  0  0
 13 16  1  0  0  0  0
M  END
> <VConfSearch Rank>
813

> <Conf_Id>
36

> <Delta U+W>
-0.427

> <U+W>
-57.331

> <U>
7.263

> <W>
-64.594

> <W(PB)>
-66.513

> <W(SA)>
1.920

> <Valence>
6.734

> <Coulomb>
-0.068

> <VdW>
0.598

> <VdW6>
-4.819

> <VdW12>
5.417

> <Bond>
0.107

> <Angle>
2.469

> <Pdih>
4.157

> <Idih>
0.001

> <Tether>
0.000

$$$$
VeraChem MOL file


 16 15  0  0  0  0  0  0  0  0999 V2000     
   21.7825   19.8073   20.2717 C   0  0  0  0  0  0  0  0  0  0  0  0
   22.3572   20.8223   20.6115 O   0  5  0  0  0  0  0  0  0  0  0  0
   21.7906   19.3797   19.1346 O   0  0  0  0  0  0  0  0  0  0  0  0
   20.9915   19.0392   21.3247 C   0  0  0  0  0  0  0  0  0  0  0  0
   21.5063   19.1610   22.2845 H   0  0  0  0  0  0  0  0  0  0  0  0
   21.0288   17.9736   21.0685 H   0  0  0  0  0  0  0  0  0  0  0  0
   19.5182   19.5113   21.4328 C   0  0  0  0  0  0  0  0  0  0  0  0
   19.4931   20.5684   21.7315 H   0  0  0  0  0  0  0  0  0  0  0  0
   19.0565   19.4587   20.4371 H   0  0  0  0  0  0  0  0  0  0  0  0
   18.6732   18.6702   22.4172 C   0  0  0  0  0  0  0  0  0  0  0  0
   18.6886   17.6148   22.1119 H   0  0  0  0  0  0  0  0  0  0  0  0
   17.6262   18.9971   22.3523 H   0  0  0  0  0  0  0  0  0  0  0  0
   19.1433   18.7938   23.8823 C   0  0  0  0  0  0  0  0  0  0  0  0
   20.1473   18.3728   24.0180 H   0  0  0  0  0  0  0  0  0  0  0  0
   18.4624   18.2509   24.5507 H   0  0  0  0  0  0  0  0  0  0  0  0
   19.1636   19.8441   24.2012 H   0  0  0  0  0  0  0  0  0  0  0  0
  1  2  1  0  0  0  0
  1  3  2  0  0  0  0
  1  4  1  0  0  0  0
  4  5  1  0  0  0  0
  4  6  1  0  0  0  0
  4  7  1  0  0  0  0
  7  8  1  0  0  0  0
  7  9  1  0  0  0  0
  7 10  1  0  0  0  0
 10 11  1  0  0  0  0
 10 12  1  0  0  0  0
 10 13  1  0  0  0  0
 13 14  1  0  0  0  0
 13 15  1  0  0  0  0
 13 16  1  0  0  0  0
M  END
> <VConfSearch Rank>
814

> <Conf_Id>
17

> <Delta U+W>
-0.432

> <U+W>
-57.336

> <U>
7.263

> <W>
-64.599

> <W(PB)>
-66.503

> <W(SA)>
1.904

> <Valence>
6.734

> <Coulomb>
-0.068

> <VdW>
0.598

> <VdW6>
-4.819

> <VdW12>
5.417

> <Bond>
0.107

> <Angle>
2.469

> <Pdih>
4.157

> <Idih>
0.001

> <Tether>
0.000

$$$$
VeraChem MOL file


 16 15  0  0  0  0  0  0  0  0999 V2000     
   20.0528   19.0907   24.4566 C   0  0  0  0  0  0  0  0  0  0  0  0
   18.9235   19.0470   24.9028 O   0  5  0  0  0  0  0  0  0  0  0  0
   20.9462   18.3508   24.8179 O   0  0  0  0  0  0  0  0  0  0  0  0
   20.3700   20.1485   23.4031 C   0  0  0  0  0  0  0  0  0  0  0  0
   21.4569   20.2906   23.3651 H   0  0  0  0  0  0  0  0  0  0  0  0
   19.9385   21.0955   23.7485 H   0  0  0  0  0  0  0  0  0  0  0  0
   19.8242   19.8167   21.9899 C   0  0  0  0  0  0  0  0  0  0  0  0
   18.7398   19.6490   22.0484 H   0  0  0  0  0  0  0  0  0  0  0  0
   19.9748   20.6866   21.3363 H   0  0  0  0  0  0  0  0  0  0  0  0
   20.5108   18.5842   21.3625 C   0  0  0  0  0  0  0  0  0  0  0  0
   20.3493   17.7023   21.9980 H   0  0  0  0  0  0  0  0  0  0  0  0
   21.5963   18.7482   21.3160 H   0  0  0  0  0  0  0  0  0  0  0  0
   19.9744   18.2969   19.9461 C   0  0  0  0  0  0  0  0  0  0  0  0
   18.8948   18.0986   19.9681 H   0  0  0  0  0  0  0  0  0  0  0  0
   20.4717   17.4182   19.5152 H   0  0  0  0  0  0  0  0  0  0  0  0
   20.1532   19.1494   19.2777 H   0  0  0  0  0  0  0  0  0  0  0  0
  1  2  1  0  0  0  0
  1  3  2  0  0  0  0
  1  4  1  0  0  0  0
  4  5  1  0  0  0  0
  4  6  1  0  0  0  0
  4  7  1  0  0  0  0
  7  8  1  0  0  0  0
  7  9  1  0  0  0  0
  7 10  1  0  0  0  0
 10 11  1  0  0  0  0
 10 12  1  0  0  0  0
 10 13  1  0  0  0  0
 13 14  1  0  0  0  0
 13 15  1  0  0  0  0
 13 16  1  0  0  0  0
M  END
> <VConfSearch Rank>
815

> <Conf_Id>
19

> <Delta U+W>
0.048

> <U+W>
-56.856

> <U>
8.276

> <W>
-65.132

> <W(PB)>
-67.031

> <W(SA)>
1.899

> <Valence>
6.513

> <Coulomb>
1.428

> <VdW>
0.335

> <VdW6>
-5.021

> <VdW12>
5.356

> <Bond>
0.092

> <Angle>
2.417

> <Pdih>
4.003

> <Idih>
0.001

> <Tether>
0.000

$$$$
VeraChem MOL file


 16 15  0  0  0  0  0  0  0  0999 V2000     
   18.5588   18.5062   23.9536 C   0  0  0  0  0  0  0  0  0  0  0  0
   17.5872   19.2119   24.1387 O   0  5  0  0  0  0  0  0  0  0  0  0
   19.3415   18.1984   24.8305 O   0  0  0  0  0  0  0  0  0  0  0  0
   18.7938   17.9589   22.5483 C   0  0  0  0  0  0  0  0  0  0  0  0
   17.8328   17.5830   22.1776 H   0  0  0  0  0  0  0  0  0  0  0  0
   19.4670   17.0956   22.6163 H   0  0  0  0  0  0  0  0  0  0  0  0
   19.3607   19.0018   21.5504 C   0  0  0  0  0  0  0  0  0  0  0  0
   19.3657   18.5648   20.5426 H   0  0  0  0  0  0  0  0  0  0  0  0
   18.6912   19.8726   21.5142 H   0  0  0  0  0  0  0  0  0  0  0  0
   20.7906   19.4564   21.9148 C   0  0  0  0  0  0  0  0  0  0  0  0
   21.4561   18.5834   21.9628 H   0  0  0  0  0  0  0  0  0  0  0  0
   20.7940   19.9143   22.9138 H   0  0  0  0  0  0  0  0  0  0  0  0
   21.3424   20.4664   20.8892 C   0  0  0  0  0  0  0  0  0  0  0  0
   21.3833   20.0244   19.8851 H   0  0  0  0  0  0  0  0  0  0  0  0
   22.3582   20.7797   21.1633 H   0  0  0  0  0  0  0  0  0  0  0  0
   20.7115   21.3638   20.8437 H   0  0  0  0  0  0  0  0  0  0  0  0
  1  2  1  0  0  0  0
  1  3  2  0  0  0  0
  1  4  1  0  0  0  0
  4  5  1  0  0  0  0
  4  6  1  0  0  0  0
  4  7  1  0  0  0  0
  7  8  1  0  0  0  0
  7  9  1  0  0  0  0
  7 10  1  0  0  0  0
 10 11  1  0  0  0  0
 10 12  1  0  0  0  0
 10 13  1  0  0  0  0
 13 14  1  0  0  0  0
 13 15  1  0  0  0  0
 13 16  1  0  0  0  0
M  END
> <VConfSearch Rank>
816

> <Conf_Id>
20

> <Delta U+W>
-0.010

> <U+W>
-56.914

> <U>
8.277

> <W>
-65.191

> <W(PB)>
-67.081

> <W(SA)>
1.890

> <Valence>
6.513

> <Coulomb>
1.429

> <VdW>
0.335

> <VdW6>
-5.021

> <VdW12>
5.356

> <Bond>
0.092

> <Angle>
2.417

> <Pdih>
4.002

> <Idih>
0.001

> <Tether>
0.000

$$$$
VeraChem MOL file


 16 15  0  0  0  0  0  0  0  0999 V2000     
   21.2869   19.0663   23.7795 C   0  0  0  0  0  0  0  0  0  0  0  0
   20.9677   19.0747   24.9520 O   0  5  0  0  0  0  0  0  0  0  0  0
   22.1817   19.7503   23.3236 O   0  0  0  0  0  0  0  0  0  0  0  0
   20.5457   18.1202   22.8386 C   0  0  0  0  0  0  0  0  0  0  0  0
   20.5520   17.1275   23.3038 H   0  0  0  0  0  0  0  0  0  0  0  0
   21.1174   18.0302   21.9079 H   0  0  0  0  0  0  0  0  0  0  0  0
   19.0793   18.5380   22.5422 C   0  0  0  0  0  0  0  0  0  0  0  0
   18.6016   17.7636   21.9269 H   0  0  0  0  0  0  0  0  0  0  0  0
   18.5223   18.5661   23.4889 H   0  0  0  0  0  0  0  0  0  0  0  0
   18.9365   19.9080   21.8374 C   0  0  0  0  0  0  0  0  0  0  0  0
   19.3802   20.6974   22.4599 H   0  0  0  0  0  0  0  0  0  0  0  0
   17.8682   20.1487   21.7480 H   0  0  0  0  0  0  0  0  0  0  0  0
   19.5731   19.9386   20.4316 C   0  0  0  0  0  0  0  0  0  0  0  0
   20.6633   19.8248   20.4859 H   0  0  0  0  0  0  0  0  0  0  0  0
   19.3639   20.8957   19.9366 H   0  0  0  0  0  0  0  0  0  0  0  0
   19.1719   19.1356   19.7997 H   0  0  0  0  0  0  0  0  0  0  0  0
  1  2  1  0  0  0  0
  1  3  2  0  0  0  0
  1  4  1  0  0  0  0
  4  5  1  0  0  0  0
  4  6  1  0  0  0  0
  4  7  1  0  0  0  0
  7  8  1  0  0  0  0
  7  9  1  0  0  0  0
  7 10  1  0  0  0  0
 10 11  1  0  0  0  0
 10 12  1  0  0  0  0
 10 13  1  0  0  0  0
 13 14  1  0  0  0  0
 13 15  1  0  0  0  0
 13 16  1  0  0  0  0
M  END
> <VConfSearch Rank>
817

> <Conf_Id>
37

> <Delta U+W>
1.063

> <U+W>
-55.841

> <U>
9.719

> <W>
-65.560

> <W(PB)>
-67.414

> <W(SA)>
1.854

> <Valence>
7.002

> <Coulomb>
2.402

> <VdW>
0.314

> <VdW6>
-5.861

> <VdW12>
6.175

> <Bond>
0.134

> <Angle>
2.733

> <Pdih>
4.133

> <Idih>
0.002

> <Tether>
0.000

$$$$
VeraChem MOL file


 16 15  0  0  0  0  0  0  0  0999 V2000     
   21.9209   20.3271   22.0414 C   0  0  0  0  0  0  0  0  0  0  0  0
   23.0359   19.8491   21.9696 O   0  5  0  0  0  0  0  0  0  0  0  0
   21.5319   21.2307   21.3283 O   0  0  0  0  0  0  0  0  0  0  0  0
   20.9729   19.7853   23.1079 C   0  0  0  0  0  0  0  0  0  0  0  0
   20.1370   20.4847   23.2239 H   0  0  0  0  0  0  0  0  0  0  0  0
   21.5165   19.7911   24.0599 H   0  0  0  0  0  0  0  0  0  0  0  0
   20.4506   18.3501   22.8247 C   0  0  0  0  0  0  0  0  0  0  0  0
   21.3093   17.6670   22.7681 H   0  0  0  0  0  0  0  0  0  0  0  0
   19.8445   18.0128   23.6763 H   0  0  0  0  0  0  0  0  0  0  0  0
   19.6206   18.2182   21.5255 C   0  0  0  0  0  0  0  0  0  0  0  0
   19.3705   17.1593   21.3731 H   0  0  0  0  0  0  0  0  0  0  0  0
   20.2281   18.5200   20.6609 H   0  0  0  0  0  0  0  0  0  0  0  0
   18.3142   19.0397   21.5518 C   0  0  0  0  0  0  0  0  0  0  0  0
   17.7042   18.7822   22.4274 H   0  0  0  0  0  0  0  0  0  0  0  0
   17.7173   18.8399   20.6526 H   0  0  0  0  0  0  0  0  0  0  0  0
   18.5219   20.1171   21.5791 H   0  0  0  0  0  0  0  0  0  0  0  0
  1  2  1  0  0  0  0
  1  3  2  0  0  0  0
  1  4  1  0  0  0  0
  4  5  1  0  0  0  0
  4  6  1  0  0  0  0
  4  7  1  0  0  0  0
  7  8  1  0  0  0  0
  7  9  1  0  0  0  0
  7 10  1  0  0  0  0
 10 11  1  0  0  0  0
 10 12  1  0  0  0  0
 10 13  1  0  0  0  0
 13 14  1  0  0  0  0
 13 15  1  0  0  0  0
 13 16  1  0  0  0  0
M  END
> <VConfSearch Rank>
818

> <Conf_Id>
39

> <Delta U+W>
1.129

> <U+W>
-55.775

> <U>
9.718

> <W>
-65.493

> <W(PB)>
-67.361

> <W(SA)>
1.869

> <Valence>
7.002

> <Coulomb>
2.402

> <VdW>
0.314

> <VdW6>
-5.861

> <VdW12>
6.175

> <Bond>
0.134

> <Angle>
2.734

> <Pdih>
4.133

> <Idih>
0.002

> <Tether>
0.000

$$$$
VeraChem MOL file


 16 15  0  0  0  0  0  0  0  0999 V2000     
   19.6682   17.9501   23.8975 C   0  0  0  0  0  0  0  0  0  0  0  0
   20.6650   17.9712   24.5923 O   0  5  0  0  0  0  0  0  0  0  0  0
   19.0950   16.9260   23.5816 O   0  0  0  0  0  0  0  0  0  0  0  0
   19.0550   19.2842   23.4759 C   0  0  0  0  0  0  0  0  0  0  0  0
   19.6464   20.1010   23.9073 H   0  0  0  0  0  0  0  0  0  0  0  0
   18.0658   19.3316   23.9459 H   0  0  0  0  0  0  0  0  0  0  0  0
   18.8956   19.4871   21.9428 C   0  0  0  0  0  0  0  0  0  0  0  0
   18.4861   18.5759   21.4849 H   0  0  0  0  0  0  0  0  0  0  0  0
   18.1435   20.2712   21.7811 H   0  0  0  0  0  0  0  0  0  0  0  0
   20.1891   19.9155   21.2088 C   0  0  0  0  0  0  0  0  0  0  0  0
   20.5963   20.8255   21.6707 H   0  0  0  0  0  0  0  0  0  0  0  0
   19.9295   20.1838   20.1754 H   0  0  0  0  0  0  0  0  0  0  0  0
   21.2764   18.8215   21.1711 C   0  0  0  0  0  0  0  0  0  0  0  0
   21.6891   18.6340   22.1699 H   0  0  0  0  0  0  0  0  0  0  0  0
   22.1075   19.1285   20.5232 H   0  0  0  0  0  0  0  0  0  0  0  0
   20.8728   17.8778   20.7815 H   0  0  0  0  0  0  0  0  0  0  0  0
  1  2  1  0  0  0  0
  1  3  2  0  0  0  0
  1  4  1  0  0  0  0
  4  5  1  0  0  0  0
  4  6  1  0  0  0  0
  4  7  1  0  0  0  0
  7  8  1  0  0  0  0
  7  9  1  0  0  0  0
  7 10  1  0  0  0  0
 10 11  1  0  0  0  0
 10 12  1  0  0  0  0
 10 13  1  0  0  0  0
 13 14  1  0  0  0  0
 13 15  1  0  0  0  0
 13 16  1  0  0  0  0
M  END
> <VConfSearch Rank>
819

> <Conf_Id>
47

> <Delta U+W>
2.301

> <U+W>
-54.603

> <U>
11.258

> <W>
-65.861

> <W(PB)>
-67.702

> <W(SA)>
1.841

> <Valence>
8.169

> <Coulomb>
2.735

> <VdW>
0.355

> <VdW6>
-6.245

> <VdW12>
6.600

> <Bond>
0.149

> <Angle>
3.168

> <Pdih>
4.840

> <Idih>
0.011

> <Tether>
0.000

$$$$
VeraChem MOL file


 16 15  0  0  0  0  0  0  0  0999 V2000     
   18.6721   20.5274   21.5367 C   0  0  0  0  0  0  0  0  0  0  0  0
   18.2448   20.1574   20.4607 O   0  5  0  0  0  0  0  0  0  0  0  0
   19.1300   21.6366   21.7285 O   0  0  0  0  0  0  0  0  0  0  0  0
   18.5453   19.5833   22.7309 C   0  0  0  0  0  0  0  0  0  0  0  0
   17.4725   19.4079   22.8733 H   0  0  0  0  0  0  0  0  0  0  0  0
   18.9010   20.0977   23.6319 H   0  0  0  0  0  0  0  0  0  0  0  0
   19.2641   18.2137   22.5744 C   0  0  0  0  0  0  0  0  0  0  0  0
   18.8166   17.5121   23.2913 H   0  0  0  0  0  0  0  0  0  0  0  0
   19.0632   17.7971   21.5775 H   0  0  0  0  0  0  0  0  0  0  0  0
   20.7888   18.2493   22.8380 C   0  0  0  0  0  0  0  0  0  0  0  0
   21.1619   17.2160   22.8585 H   0  0  0  0  0  0  0  0  0  0  0  0
   20.9854   18.6680   23.8346 H   0  0  0  0  0  0  0  0  0  0  0  0
   21.5870   19.0361   21.7777 C   0  0  0  0  0  0  0  0  0  0  0  0
   22.6656   18.9099   21.9374 H   0  0  0  0  0  0  0  0  0  0  0  0
   21.3696   20.1099   21.8297 H   0  0  0  0  0  0  0  0  0  0  0  0
   21.3503   18.6845   20.7650 H   0  0  0  0  0  0  0  0  0  0  0  0
  1  2  1  0  0  0  0
  1  3  2  0  0  0  0
  1  4  1  0  0  0  0
  4  5  1  0  0  0  0
  4  6  1  0  0  0  0
  4  7  1  0  0  0  0
  7  8  1  0  0  0  0
  7  9  1  0  0  0  0
  7 10  1  0  0  0  0
 10 11  1  0  0  0  0
 10 12  1  0  0  0  0
 10 13  1  0  0  0  0
 13 14  1  0  0  0  0
 13 15  1  0  0  0  0
 13 16  1  0  0  0  0
M  END
> <VConfSearch Rank>
820

> <Conf_Id>
45

> <Delta U+W>
2.303

> <U+W>
-54.601

> <U>
11.258

> <W>
-65.860

> <W(PB)>
-67.709

> <W(SA)>
1.849

> <Valence>
8.169

> <Coulomb>
2.735

> <VdW>
0.355

> <VdW6>
-6.245

> <VdW12>
6.600

> <Bond>
0.149

> <Angle>
3.168

> <Pdih>
4.840

> <Idih>
0.011

> <Tether>
0.000

$$$$
VeraChem MOL file


 16 15  0  0  0  0  0  0  0  0999 V2000     
   17.2788   19.0590   22.3941 C   0  0  0  0  0  0  0  0  0  0  0  0
   17.2687   20.0888   23.0400 O   0  5  0  0  0  0  0  0  0  0  0  0
   16.2786   18.4067   22.1722 O   0  0  0  0  0  0  0  0  0  0  0  0
   18.5963   18.5339   21.8212 C   0  0  0  0  0  0  0  0  0  0  0  0
   18.4684   18.4437   20.7360 H   0  0  0  0  0  0  0  0  0  0  0  0
   18.7422   17.5200   22.2122 H   0  0  0  0  0  0  0  0  0  0  0  0
   19.8467   19.3994   22.1308 C   0  0  0  0  0  0  0  0  0  0  0  0
   19.6924   20.4153   21.7416 H   0  0  0  0  0  0  0  0  0  0  0  0
   19.9665   19.4906   23.2193 H   0  0  0  0  0  0  0  0  0  0  0  0
   21.1276   18.7971   21.5163 C   0  0  0  0  0  0  0  0  0  0  0  0
   21.0097   18.7070   20.4275 H   0  0  0  0  0  0  0  0  0  0  0  0
   21.2840   17.7817   21.9061 H   0  0  0  0  0  0  0  0  0  0  0  0
   22.3658   19.6611   21.8273 C   0  0  0  0  0  0  0  0  0  0  0  0
   22.2497   20.6744   21.4209 H   0  0  0  0  0  0  0  0  0  0  0  0
   23.2673   19.2190   21.3834 H   0  0  0  0  0  0  0  0  0  0  0  0
   22.5260   19.7423   22.9104 H   0  0  0  0  0  0  0  0  0  0  0  0
  1  2  1  0  0  0  0
  1  3  2  0  0  0  0
  1  4  1  0  0  0  0
  4  5  1  0  0  0  0
  4  6  1  0  0  0  0
  4  7  1  0  0  0  0
  7  8  1  0  0  0  0
  7  9  1  0  0  0  0
  7 10  1  0  0  0  0
 10 11  1  0  0  0  0
 10 12  1  0  0  0  0
 10 13  1  0  0  0  0
 13 14  1  0  0  0  0
 13 15  1  0  0  0  0
 13 16  1  0  0  0  0
M  END
> <VConfSearch Rank>
821

> <Conf_Id>
0

> <Delta U+W>
0.000

> <U+W>
-56.904

> <U>
7.329

> <W>
-64.233

> <W(PB)>
-66.148

> <W(SA)>
1.915

> <Valence>
6.755

> <Coulomb>
-0.421

> <VdW>
0.995

> <VdW6>
-4.495

> <VdW12>
5.490

> <Bond>
0.106

> <Angle>
2.715

> <Pdih>
3.934

> <Idih>
0.000

> <Tether>
0.000

$$$$
VeraChem MOL file


 16 15  0  0  0  0  0  0  0  0999 V2000     
   21.6153   21.2775   21.3653 C   0  0  0  0  0  0  0  0  0  0  0  0
   21.3022   22.3044   21.9339 O   0  5  0  0  0  0  0  0  0  0  0  0
   22.7569   21.0034   21.0531 O   0  0  0  0  0  0  0  0  0  0  0  0
   20.5180   20.2696   21.0419 C   0  0  0  0  0  0  0  0  0  0  0  0
   20.7928   19.7519   20.1149 H   0  0  0  0  0  0  0  0  0  0  0  0
   19.5935   20.8245   20.8412 H   0  0  0  0  0  0  0  0  0  0  0  0
   20.2884   19.2432   22.1785 C   0  0  0  0  0  0  0  0  0  0  0  0
   21.2256   18.7046   22.3761 H   0  0  0  0  0  0  0  0  0  0  0  0
   20.0263   19.7772   23.1024 H   0  0  0  0  0  0  0  0  0  0  0  0
   19.1740   18.2359   21.8261 C   0  0  0  0  0  0  0  0  0  0  0  0
   19.4360   17.7012   20.9025 H   0  0  0  0  0  0  0  0  0  0  0  0
   18.2364   18.7741   21.6290 H   0  0  0  0  0  0  0  0  0  0  0  0
   18.9510   17.2176   22.9616 C   0  0  0  0  0  0  0  0  0  0  0  0
   18.6569   17.7235   23.8906 H   0  0  0  0  0  0  0  0  0  0  0  0
   19.8653   16.6427   23.1588 H   0  0  0  0  0  0  0  0  0  0  0  0
   18.1559   16.5091   22.6951 H   0  0  0  0  0  0  0  0  0  0  0  0
  1  2  1  0  0  0  0
  1  3  2  0  0  0  0
  1  4  1  0  0  0  0
  4  5  1  0  0  0  0
  4  6  1  0  0  0  0
  4  7  1  0  0  0  0
  7  8  1  0  0  0  0
  7  9  1  0  0  0  0
  7 10  1  0  0  0  0
 10 11  1  0  0  0  0
 10 12  1  0  0  0  0
 10 13  1  0  0  0  0
 13 14  1  0  0  0  0
 13 15  1  0  0  0  0
 13 16  1  0  0  0  0
M  END
> <VConfSearch Rank>
822

> <Conf_Id>
22

> <Delta U+W>
-1.185

> <U+W>
-58.089

> <U>
6.298

> <W>
-64.387

> <W(PB)>
-66.329

> <W(SA)>
1.942

> <Valence>
6.246

> <Coulomb>
-0.408

> <VdW>
0.460

> <VdW6>
-4.207

> <VdW12>
4.667

> <Bond>
0.072

> <Angle>
2.246

> <Pdih>
3.928

> <Idih>
0.001

> <Tether>
0.000

$$$$
VeraChem MOL file


 16 15  0  0  0  0  0  0  0  0999 V2000     
   22.3015   18.0604   22.2335 C   0  0  0  0  0  0  0  0  0  0  0  0
   22.9607   17.7129   21.2740 O   0  5  0  0  0  0  0  0  0  0  0  0
   22.4693   17.6271   23.3560 O   0  0  0  0  0  0  0  0  0  0  0  0
   21.1902   19.0807   22.0127 C   0  0  0  0  0  0  0  0  0  0  0  0
   21.5009   19.7529   21.2039 H   0  0  0  0  0  0  0  0  0  0  0  0
   21.1053   19.6849   22.9231 H   0  0  0  0  0  0  0  0  0  0  0  0
   19.8295   18.4220   21.6669 C   0  0  0  0  0  0  0  0  0  0  0  0
   19.9685   17.7565   20.8036 H   0  0  0  0  0  0  0  0  0  0  0  0
   19.5081   17.7844   22.5021 H   0  0  0  0  0  0  0  0  0  0  0  0
   18.7185   19.4439   21.3325 C   0  0  0  0  0  0  0  0  0  0  0  0
   17.8267   18.8981   20.9948 H   0  0  0  0  0  0  0  0  0  0  0  0
   19.0349   20.0738   20.4896 H   0  0  0  0  0  0  0  0  0  0  0  0
   18.3316   20.3364   22.5311 C   0  0  0  0  0  0  0  0  0  0  0  0
   19.1630   20.9859   22.8321 H   0  0  0  0  0  0  0  0  0  0  0  0
   18.0390   19.7272   23.3962 H   0  0  0  0  0  0  0  0  0  0  0  0
   17.4832   20.9823   22.2702 H   0  0  0  0  0  0  0  0  0  0  0  0
  1  2  1  0  0  0  0
  1  3  2  0  0  0  0
  1  4  1  0  0  0  0
  4  5  1  0  0  0  0
  4  6  1  0  0  0  0
  4  7  1  0  0  0  0
  7  8  1  0  0  0  0
  7  9  1  0  0  0  0
  7 10  1  0  0  0  0
 10 11  1  0  0  0  0
 10 12  1  0  0  0  0
 10 13  1  0  0  0  0
 13 14  1  0  0  0  0
 13 15  1  0  0  0  0
 13 16  1  0  0  0  0
M  END
> <VConfSearch Rank>
823

> <Conf_Id>
36

> <Delta U+W>
-0.427

> <U+W>
-57.331

> <U>
7.263

> <W>
-64.594

> <W(PB)>
-66.513

> <W(SA)>
1.920

> <Valence>
6.734

> <Coulomb>
-0.068

> <VdW>
0.598

> <VdW6>
-4.819

> <VdW12>
5.417

> <Bond>
0.107

> <Angle>
2.469

> <Pdih>
4.157

> <Idih>
0.001

> <Tether>
0.000

$$$$
VeraChem MOL file


 16 15  0  0  0  0  0  0  0  0999 V2000     
   22.4398   19.7292   22.4650 C   0  0  0  0  0  0  0  0  0  0  0  0
   22.5859   20.9257   22.6164 O   0  5  0  0  0  0  0  0  0  0  0  0
   23.3506   18.9694   22.2023 O   0  0  0  0  0  0  0  0  0  0  0  0
   21.0341   19.1524   22.5917 C   0  0  0  0  0  0  0  0  0  0  0  0
   20.4945   19.7472   23.3375 H   0  0  0  0  0  0  0  0  0  0  0  0
   21.1187   18.1333   22.9876 H   0  0  0  0  0  0  0  0  0  0  0  0
   20.2657   19.1403   21.2447 C   0  0  0  0  0  0  0  0  0  0  0  0
   20.1500   20.1701   20.8794 H   0  0  0  0  0  0  0  0  0  0  0  0
   20.8727   18.6116   20.4966 H   0  0  0  0  0  0  0  0  0  0  0  0
   18.8808   18.4586   21.3324 C   0  0  0  0  0  0  0  0  0  0  0  0
   18.9975   17.4249   21.6865 H   0  0  0  0  0  0  0  0  0  0  0  0
   18.4541   18.3945   20.3219 H   0  0  0  0  0  0  0  0  0  0  0  0
   17.8887   19.2110   22.2448 C   0  0  0  0  0  0  0  0  0  0  0  0
   18.2200   19.2019   23.2907 H   0  0  0  0  0  0  0  0  0  0  0  0
   16.8983   18.7392   22.2060 H   0  0  0  0  0  0  0  0  0  0  0  0
   17.7778   20.2560   21.9271 H   0  0  0  0  0  0  0  0  0  0  0  0
  1  2  1  0  0  0  0
  1  3  2  0  0  0  0
  1  4  1  0  0  0  0
  4  5  1  0  0  0  0
  4  6  1  0  0  0  0
  4  7  1  0  0  0  0
  7  8  1  0  0  0  0
  7  9  1  0  0  0  0
  7 10  1  0  0  0  0
 10 11  1  0  0  0  0
 10 12  1  0  0  0  0
 10 13  1  0  0  0  0
 13 14  1  0  0  0  0
 13 15  1  0  0  0  0
 13 16  1  0  0  0  0
M  END
> <VConfSearch Rank>
824

> <Conf_Id>
17

> <Delta U+W>
-0.432

> <U+W>
-57.336

> <U>
7.263

> <W>
-64.599

> <W(PB)>
-66.503

> <W(SA)>
1.904

> <Valence>
6.734

> <Coulomb>
-0.068

> <VdW>
0.598

> <VdW6>
-4.819

> <VdW12>
5.417

> <Bond>
0.107

> <Angle>
2.469

> <Pdih>
4.157

> <Idih>
0.001

> <Tether>
0.000

$$$$
VeraChem MOL file


 16 15  0  0  0  0  0  0  0  0999 V2000     
   19.9041   17.2976   23.5650 C   0  0  0  0  0  0  0  0  0  0  0  0
   20.9613   16.8878   24.0017 O   0  5  0  0  0  0  0  0  0  0  0  0
   18.9373   17.5355   24.2614 O   0  0  0  0  0  0  0  0  0  0  0  0
   19.7783   17.5008   22.0575 C   0  0  0  0  0  0  0  0  0  0  0  0
   18.7137   17.5261   21.7948 H   0  0  0  0  0  0  0  0  0  0  0  0
   20.2040   16.6155   21.5704 H   0  0  0  0  0  0  0  0  0  0  0  0
   20.4898   18.7737   21.5298 C   0  0  0  0  0  0  0  0  0  0  0  0
   21.5481   18.7481   21.8248 H   0  0  0  0  0  0  0  0  0  0  0  0
   20.4674   18.7651   20.4316 H   0  0  0  0  0  0  0  0  0  0  0  0
   19.8355   20.0752   22.0417 C   0  0  0  0  0  0  0  0  0  0  0  0
   19.8706   20.1044   23.1397 H   0  0  0  0  0  0  0  0  0  0  0  0
   18.7745   20.0936   21.7568 H   0  0  0  0  0  0  0  0  0  0  0  0
   20.5403   21.3240   21.4758 C   0  0  0  0  0  0  0  0  0  0  0  0
   21.5972   21.3463   21.7724 H   0  0  0  0  0  0  0  0  0  0  0  0
   20.0639   22.2395   21.8498 H   0  0  0  0  0  0  0  0  0  0  0  0
   20.4912   21.3399   20.3791 H   0  0  0  0  0  0  0  0  0  0  0  0
  1  2  1  0  0  0  0
  1  3  2  0  0  0  0
  1  4  1  0  0  0  0
  4  5  1  0  0  0  0
  4  6  1  0  0  0  0
  4  7  1  0  0  0  0
  7  8  1  0  0  0  0
  7  9  1  0  0  0  0
  7 10  1  0  0  0  0
 10 11  1  0  0  0  0
 10 12  1  0  0  0  0
 10 13  1  0  0  0  0
 13 14  1  0  0  0  0
 13 15  1  0  0  0  0
 13 16  1  0  0  0  0
M  END
> <VConfSearch Rank>
825

> <Conf_Id>
19

> <Delta U+W>
0.048

> <U+W>
-56.856

> <U>
8.276

> <W>
-65.132

> <W(PB)>
-67.031

> <W(SA)>
1.899

> <Valence>
6.513

> <Coulomb>
1.428

> <VdW>
0.335

> <VdW6>
-5.021

> <VdW12>
5.356

> <Bond>
0.092

> <Angle>
2.417

> <Pdih>
4.003

> <Idih>
0.001

> <Tether>
0.000

$$$$
VeraChem MOL file


 16 15  0  0  0  0  0  0  0  0999 V2000     
   21.8988   20.3153   21.7203 C   0  0  0  0  0  0  0  0  0  0  0  0
   22.8139   19.5914   21.3814 O   0  5  0  0  0  0  0  0  0  0  0  0
   21.9902   21.1428   22.6053 O   0  0  0  0  0  0  0  0  0  0  0  0
   20.5712   20.1932   20.9774 C   0  0  0  0  0  0  0  0  0  0  0  0
   20.7976   20.1528   19.9053 H   0  0  0  0  0  0  0  0  0  0  0  0
   19.9905   21.1086   21.1445 H   0  0  0  0  0  0  0  0  0  0  0  0
   19.7355   18.9493   21.3766 C   0  0  0  0  0  0  0  0  0  0  0  0
   18.8737   18.8670   20.7006 H   0  0  0  0  0  0  0  0  0  0  0  0
   20.3394   18.0429   21.2311 H   0  0  0  0  0  0  0  0  0  0  0  0
   19.2333   19.0145   22.8353 C   0  0  0  0  0  0  0  0  0  0  0  0
   18.6400   19.9275   22.9826 H   0  0  0  0  0  0  0  0  0  0  0  0
   20.0886   19.0765   23.5226 H   0  0  0  0  0  0  0  0  0  0  0  0
   18.3782   17.7834   23.1953 C   0  0  0  0  0  0  0  0  0  0  0  0
   17.4956   17.7143   22.5460 H   0  0  0  0  0  0  0  0  0  0  0  0
   18.0304   17.8449   24.2347 H   0  0  0  0  0  0  0  0  0  0  0  0
   18.9579   16.8574   23.0861 H   0  0  0  0  0  0  0  0  0  0  0  0
  1  2  1  0  0  0  0
  1  3  2  0  0  0  0
  1  4  1  0  0  0  0
  4  5  1  0  0  0  0
  4  6  1  0  0  0  0
  4  7  1  0  0  0  0
  7  8  1  0  0  0  0
  7  9  1  0  0  0  0
  7 10  1  0  0  0  0
 10 11  1  0  0  0  0
 10 12  1  0  0  0  0
 10 13  1  0  0  0  0
 13 14  1  0  0  0  0
 13 15  1  0  0  0  0
 13 16  1  0  0  0  0
M  END
> <VConfSearch Rank>
826

> <Conf_Id>
20

> <Delta U+W>
-0.010

> <U+W>
-56.914

> <U>
8.277

> <W>
-65.191

> <W(PB)>
-67.081

> <W(SA)>
1.890

> <Valence>
6.513

> <Coulomb>
1.429

> <VdW>
0.335

> <VdW6>
-5.021

> <VdW12>
5.356

> <Bond>
0.092

> <Angle>
2.417

> <Pdih>
4.002

> <Idih>
0.001

> <Tether>
0.000

$$$$
VeraChem MOL file


 16 15  0  0  0  0  0  0  0  0999 V2000     
   21.2496   20.6419   21.4622 C   0  0  0  0  0  0  0  0  0  0  0  0
   21.3288   21.7592   21.9336 O   0  5  0  0  0  0  0  0  0  0  0  0
   21.2191   20.4189   20.2682 O   0  0  0  0  0  0  0  0  0  0  0  0
   21.2214   19.4559   22.4225 C   0  0  0  0  0  0  0  0  0  0  0  0
   22.0584   19.5813   23.1193 H   0  0  0  0  0  0  0  0  0  0  0  0
   21.4241   18.5397   21.8563 H   0  0  0  0  0  0  0  0  0  0  0  0
   19.9000   19.3208   23.2278 C   0  0  0  0  0  0  0  0  0  0  0  0
   19.9987   18.4957   23.9459 H   0  0  0  0  0  0  0  0  0  0  0  0
   19.7556   20.2324   23.8240 H   0  0  0  0  0  0  0  0  0  0  0  0
   18.6428   19.0893   22.3562 C   0  0  0  0  0  0  0  0  0  0  0  0
   18.5131   19.9264   21.6561 H   0  0  0  0  0  0  0  0  0  0  0  0
   17.7576   19.0908   23.0070 H   0  0  0  0  0  0  0  0  0  0  0  0
   18.6821   17.7605   21.5719 C   0  0  0  0  0  0  0  0  0  0  0  0
   19.4810   17.7659   20.8195 H   0  0  0  0  0  0  0  0  0  0  0  0
   17.7326   17.5972   21.0460 H   0  0  0  0  0  0  0  0  0  0  0  0
   18.8466   16.9098   22.2459 H   0  0  0  0  0  0  0  0  0  0  0  0
  1  2  1  0  0  0  0
  1  3  2  0  0  0  0
  1  4  1  0  0  0  0
  4  5  1  0  0  0  0
  4  6  1  0  0  0  0
  4  7  1  0  0  0  0
  7  8  1  0  0  0  0
  7  9  1  0  0  0  0
  7 10  1  0  0  0  0
 10 11  1  0  0  0  0
 10 12  1  0  0  0  0
 10 13  1  0  0  0  0
 13 14  1  0  0  0  0
 13 15  1  0  0  0  0
 13 16  1  0  0  0  0
M  END
> <VConfSearch Rank>
827

> <Conf_Id>
37

> <Delta U+W>
1.063

> <U+W>
-55.841

> <U>
9.719

> <W>
-65.560

> <W(PB)>
-67.414

> <W(SA)>
1.854

> <Valence>
7.002

> <Coulomb>
2.402

> <VdW>
0.314

> <VdW6>
-5.861

> <VdW12>
6.175

> <Bond>
0.134

> <Angle>
2.733

> <Pdih>
4.133

> <Idih>
0.002

> <Tether>
0.000

$$$$
VeraChem MOL file


 16 15  0  0  0  0  0  0  0  0999 V2000     
   20.7310   19.4596   20.1334 C   0  0  0  0  0  0  0  0  0  0  0  0
   21.7687   20.0102   19.8224 O   0  5  0  0  0  0  0  0  0  0  0  0
   20.3399   18.4289   19.6224 O   0  0  0  0  0  0  0  0  0  0  0  0
   19.8578   20.1182   21.1981 C   0  0  0  0  0  0  0  0  0  0  0  0
   18.8608   19.6642   21.1658 H   0  0  0  0  0  0  0  0  0  0  0  0
   19.7299   21.1682   20.9102 H   0  0  0  0  0  0  0  0  0  0  0  0
   20.4449   20.0484   22.6345 C   0  0  0  0  0  0  0  0  0  0  0  0
   21.4179   20.5588   22.6431 H   0  0  0  0  0  0  0  0  0  0  0  0
   19.7952   20.6128   23.3169 H   0  0  0  0  0  0  0  0  0  0  0  0
   20.6292   18.6119   23.1790 C   0  0  0  0  0  0  0  0  0  0  0  0
   21.1231   18.6671   24.1589 H   0  0  0  0  0  0  0  0  0  0  0  0
   21.3060   18.0467   22.5231 H   0  0  0  0  0  0  0  0  0  0  0  0
   19.2990   17.8445   23.3345 C   0  0  0  0  0  0  0  0  0  0  0  0
   18.5907   18.4057   23.9577 H   0  0  0  0  0  0  0  0  0  0  0  0
   19.4715   16.8706   23.8107 H   0  0  0  0  0  0  0  0  0  0  0  0
   18.8307   17.6584   22.3595 H   0  0  0  0  0  0  0  0  0  0  0  0
  1  2  1  0  0  0  0
  1  3  2  0  0  0  0
  1  4  1  0  0  0  0
  4  5  1  0  0  0  0
  4  6  1  0  0  0  0
  4  7  1  0  0  0  0
  7  8  1  0  0  0  0
  7  9  1  0  0  0  0
  7 10  1  0  0  0  0
 10 11  1  0  0  0  0
 10 12  1  0  0  0  0
 10 13  1  0  0  0  0
 13 14  1  0  0  0  0
 13 15  1  0  0  0  0
 13 16  1  0  0  0  0
M  END
> <VConfSearch Rank>
828

> <Conf_Id>
39

> <Delta U+W>
1.129

> <U+W>
-55.775

> <U>
9.718

> <W>
-65.493

> <W(PB)>
-67.361

> <W(SA)>
1.869

> <Valence>
7.002

> <Coulomb>
2.402

> <VdW>
0.314

> <VdW6>
-5.861

> <VdW12>
6.175

> <Bond>
0.134

> <Angle>
2.734

> <Pdih>
4.133

> <Idih>
0.002

> <Tether>
0.000

$$$$
VeraChem MOL file


 16 15  0  0  0  0  0  0  0  0999 V2000     
   17.9822   19.6123   22.4276 C   0  0  0  0  0  0  0  0  0  0  0  0
   17.2450   18.6729   22.2022 O   0  5  0  0  0  0  0  0  0  0  0  0
   17.8406   20.7093   21.9240 O   0  0  0  0  0  0  0  0  0  0  0  0
   19.0879   19.4281   23.4655 C   0  0  0  0  0  0  0  0  0  0  0  0
   19.0264   18.4129   23.8761 H   0  0  0  0  0  0  0  0  0  0  0  0
   18.8558   20.1135   24.2889 H   0  0  0  0  0  0  0  0  0  0  0  0
   20.5292   19.7170   22.9593 C   0  0  0  0  0  0  0  0  0  0  0  0
   20.5400   20.6438   22.3689 H   0  0  0  0  0  0  0  0  0  0  0  0
   21.1639   19.9087   23.8349 H   0  0  0  0  0  0  0  0  0  0  0  0
   21.1745   18.5650   22.1518 C   0  0  0  0  0  0  0  0  0  0  0  0
   21.1600   17.6401   22.7446 H   0  0  0  0  0  0  0  0  0  0  0  0
   22.2330   18.8081   21.9854 H   0  0  0  0  0  0  0  0  0  0  0  0
   20.5095   18.3143   20.7824 C   0  0  0  0  0  0  0  0  0  0  0  0
   19.4971   17.9086   20.8982 H   0  0  0  0  0  0  0  0  0  0  0  0
   21.0913   17.5879   20.2004 H   0  0  0  0  0  0  0  0  0  0  0  0
   20.4450   19.2425   20.1996 H   0  0  0  0  0  0  0  0  0  0  0  0
  1  2  1  0  0  0  0
  1  3  2  0  0  0  0
  1  4  1  0  0  0  0
  4  5  1  0  0  0  0
  4  6  1  0  0  0  0
  4  7  1  0  0  0  0
  7  8  1  0  0  0  0
  7  9  1  0  0  0  0
  7 10  1  0  0  0  0
 10 11  1  0  0  0  0
 10 12  1  0  0  0  0
 10 13  1  0  0  0  0
 13 14  1  0  0  0  0
 13 15  1  0  0  0  0
 13 16  1  0  0  0  0
M  END
> <VConfSearch Rank>
829

> <Conf_Id>
47

> <Delta U+W>
2.301

> <U+W>
-54.603

> <U>
11.258

> <W>
-65.861

> <W(PB)>
-67.702

> <W(SA)>
1.841

> <Valence>
8.169

> <Coulomb>
2.735

> <VdW>
0.355

> <VdW6>
-6.245

> <VdW12>
6.600

> <Bond>
0.149

> <Angle>
3.168

> <Pdih>
4.840

> <Idih>
0.011

> <Tether>
0.000

$$$$
VeraChem MOL file


 16 15  0  0  0  0  0  0  0  0999 V2000     
   20.1526   20.4541   23.7167 C   0  0  0  0  0  0  0  0  0  0  0  0
   21.1630   20.1637   24.3266 O   0  5  0  0  0  0  0  0  0  0  0  0
   19.1028   20.7381   24.2590 O   0  0  0  0  0  0  0  0  0  0  0  0
   20.2282   20.5552   22.1943 C   0  0  0  0  0  0  0  0  0  0  0  0
   20.9550   21.3455   21.9731 H   0  0  0  0  0  0  0  0  0  0  0  0
   19.2611   20.9028   21.8113 H   0  0  0  0  0  0  0  0  0  0  0  0
   20.6601   19.2533   21.4626 C   0  0  0  0  0  0  0  0  0  0  0  0
   21.0250   19.5306   20.4644 H   0  0  0  0  0  0  0  0  0  0  0  0
   21.5149   18.7979   21.9817 H   0  0  0  0  0  0  0  0  0  0  0  0
   19.5322   18.2094   21.2795 C   0  0  0  0  0  0  0  0  0  0  0  0
   19.9005   17.4123   20.6190 H   0  0  0  0  0  0  0  0  0  0  0  0
   18.6789   18.6690   20.7619 H   0  0  0  0  0  0  0  0  0  0  0  0
   19.0548   17.5687   22.5994 C   0  0  0  0  0  0  0  0  0  0  0  0
   18.3603   16.7434   22.3963 H   0  0  0  0  0  0  0  0  0  0  0  0
   18.5274   18.2960   23.2286 H   0  0  0  0  0  0  0  0  0  0  0  0
   19.9014   17.1671   23.1714 H   0  0  0  0  0  0  0  0  0  0  0  0
  1  2  1  0  0  0  0
  1  3  2  0  0  0  0
  1  4  1  0  0  0  0
  4  5  1  0  0  0  0
  4  6  1  0  0  0  0
  4  7  1  0  0  0  0
  7  8  1  0  0  0  0
  7  9  1  0  0  0  0
  7 10  1  0  0  0  0
 10 11  1  0  0  0  0
 10 12  1  0  0  0  0
 10 13  1  0  0  0  0
 13 14  1  0  0  0  0
 13 15  1  0  0  0  0
 13 16  1  0  0  0  0
M  END
> <VConfSearch Rank>
830

> <Conf_Id>
45

> <Delta U+W>
2.303

> <U+W>
-54.601

> <U>
11.258

> <W>
-65.860

> <W(PB)>
-67.709

> <W(SA)>
1.849

> <Valence>
8.169

> <Coulomb>
2.735

> <VdW>
0.355

> <VdW6>
-6.245

> <VdW12>
6.600

> <Bond>
0.149

> <Angle>
3.168

> <Pdih>
4.840

> <Idih>
0.011

> <Tether>
0.000

$$$$
VeraChem MOL file


 16 15  0  0  0  0  0  0  0  0999 V2000     
   22.5814   19.6203   22.7605 C   0  0  0  0  0  0  0  0  0  0  0  0
   23.0965   19.0078   21.8455 O   0  5  0  0  0  0  0  0  0  0  0  0
   23.2230   20.1789   23.6275 O   0  0  0  0  0  0  0  0  0  0  0  0
   21.0572   19.7099   22.8524 C   0  0  0  0  0  0  0  0  0  0  0  0
   20.7916   20.7737   22.8568 H   0  0  0  0  0  0  0  0  0  0  0  0
   20.7635   19.3021   23.8268 H   0  0  0  0  0  0  0  0  0  0  0  0
   20.2801   18.9810   21.7240 C   0  0  0  0  0  0  0  0  0  0  0  0
   20.5825   19.3900   20.7500 H   0  0  0  0  0  0  0  0  0  0  0  0
   20.5544   17.9169   21.7211 H   0  0  0  0  0  0  0  0  0  0  0  0
   18.7531   19.1229   21.8951 C   0  0  0  0  0  0  0  0  0  0  0  0
   18.4773   20.1866   21.8965 H   0  0  0  0  0  0  0  0  0  0  0  0
   18.4492   18.7125   22.8682 H   0  0  0  0  0  0  0  0  0  0  0  0
   17.9870   18.3969   20.7717 C   0  0  0  0  0  0  0  0  0  0  0  0
   18.2486   18.8090   19.7882 H   0  0  0  0  0  0  0  0  0  0  0  0
   16.9034   18.5076   20.9083 H   0  0  0  0  0  0  0  0  0  0  0  0
   18.2203   17.3240   20.7670 H   0  0  0  0  0  0  0  0  0  0  0  0
  1  2  1  0  0  0  0
  1  3  2  0  0  0  0
  1  4  1  0  0  0  0
  4  5  1  0  0  0  0
  4  6  1  0  0  0  0
  4  7  1  0  0  0  0
  7  8  1  0  0  0  0
  7  9  1  0  0  0  0
  7 10  1  0  0  0  0
 10 11  1  0  0  0  0
 10 12  1  0  0  0  0
 10 13  1  0  0  0  0
 13 14  1  0  0  0  0
 13 15  1  0  0  0  0
 13 16  1  0  0  0  0
M  END
> <VConfSearch Rank>
831

> <Conf_Id>
0

> <Delta U+W>
0.000

> <U+W>
-56.904

> <U>
7.329

> <W>
-64.233

> <W(PB)>
-66.148

> <W(SA)>
1.915

> <Valence>
6.755

> <Coulomb>
-0.421

> <VdW>
0.995

> <VdW6>
-4.495

> <VdW12>
5.490

> <Bond>
0.106

> <Angle>
2.715

> <Pdih>
3.934

> <Idih>
0.000

> <Tether>
0.000

$$$$
VeraChem MOL file


 16 15  0  0  0  0  0  0  0  0999 V2000     
   19.9040   16.8652   20.4077 C   0  0  0  0  0  0  0  0  0  0  0  0
   19.1292   16.9292   19.4742 O   0  5  0  0  0  0  0  0  0  0  0  0
   20.9195   16.1987   20.3936 O   0  0  0  0  0  0  0  0  0  0  0  0
   19.5942   17.6802   21.6585 C   0  0  0  0  0  0  0  0  0  0  0  0
   19.9804   17.1325   22.5267 H   0  0  0  0  0  0  0  0  0  0  0  0
   18.5043   17.7349   21.7687 H   0  0  0  0  0  0  0  0  0  0  0  0
   20.1984   19.1053   21.6143 C   0  0  0  0  0  0  0  0  0  0  0  0
   21.2881   19.0340   21.4914 H   0  0  0  0  0  0  0  0  0  0  0  0
   19.8120   19.6363   20.7333 H   0  0  0  0  0  0  0  0  0  0  0  0
   19.8704   19.9079   22.8906 C   0  0  0  0  0  0  0  0  0  0  0  0
   20.2573   19.3775   23.7719 H   0  0  0  0  0  0  0  0  0  0  0  0
   18.7808   19.9800   23.0136 H   0  0  0  0  0  0  0  0  0  0  0  0
   20.4748   21.3250   22.8396 C   0  0  0  0  0  0  0  0  0  0  0  0
   20.0808   21.8895   21.9844 H   0  0  0  0  0  0  0  0  0  0  0  0
   21.5682   21.2826   22.7483 H   0  0  0  0  0  0  0  0  0  0  0  0
   20.2325   21.8819   23.7541 H   0  0  0  0  0  0  0  0  0  0  0  0
  1  2  1  0  0  0  0
  1  3  2  0  0  0  0
  1  4  1  0  0  0  0
  4  5  1  0  0  0  0
  4  6  1  0  0  0  0
  4  7  1  0  0  0  0
  7  8  1  0  0  0  0
  7  9  1  0  0  0  0
  7 10  1  0  0  0  0
 10 11  1  0  0  0  0
 10 12  1  0  0  0  0
 10 13  1  0  0  0  0
 13 14  1  0  0  0  0
 13 15  1  0  0  0  0
 13 16  1  0  0  0  0
M  END
> <VConfSearch Rank>
832

> <Conf_Id>
22

> <Delta U+W>
-1.185

> <U+W>
-58.089

> <U>
6.298

> <W>
-64.387

> <W(PB)>
-66.329

> <W(SA)>
1.942

> <Valence>
6.246

> <Coulomb>
-0.408

> <VdW>
0.460

> <VdW6>
-4.207

> <VdW12>
4.667

> <Bond>
0.072

> <Angle>
2.246

> <Pdih>
3.928

> <Idih>
0.001

> <Tether>
0.000

$$$$
VeraChem MOL file


 16 15  0  0  0  0  0  0  0  0999 V2000     
   20.5627   16.9523   20.7517 C   0  0  0  0  0  0  0  0  0  0  0  0
   21.6960   16.6928   20.3993 O   0  5  0  0  0  0  0  0  0  0  0  0
   19.5745   16.4373   20.2677 O   0  0  0  0  0  0  0  0  0  0  0  0
   20.3696   17.9954   21.8467 C   0  0  0  0  0  0  0  0  0  0  0  0
   21.2273   17.9370   22.5276 H   0  0  0  0  0  0  0  0  0  0  0  0
   19.4789   17.7164   22.4211 H   0  0  0  0  0  0  0  0  0  0  0  0
   20.2286   19.4350   21.2875 C   0  0  0  0  0  0  0  0  0  0  0  0
   21.0947   19.6515   20.6469 H   0  0  0  0  0  0  0  0  0  0  0  0
   19.3420   19.4918   20.6409 H   0  0  0  0  0  0  0  0  0  0  0  0
   20.1422   20.5171   22.3884 C   0  0  0  0  0  0  0  0  0  0  0  0
   20.1553   21.5072   21.9121 H   0  0  0  0  0  0  0  0  0  0  0  0
   21.0343   20.4682   23.0280 H   0  0  0  0  0  0  0  0  0  0  0  0
   18.8725   20.4002   23.2585 C   0  0  0  0  0  0  0  0  0  0  0  0
   18.8714   19.4718   23.8433 H   0  0  0  0  0  0  0  0  0  0  0  0
   17.9675   20.4176   22.6373 H   0  0  0  0  0  0  0  0  0  0  0  0
   18.8133   21.2380   23.9653 H   0  0  0  0  0  0  0  0  0  0  0  0
  1  2  1  0  0  0  0
  1  3  2  0  0  0  0
  1  4  1  0  0  0  0
  4  5  1  0  0  0  0
  4  6  1  0  0  0  0
  4  7  1  0  0  0  0
  7  8  1  0  0  0  0
  7  9  1  0  0  0  0
  7 10  1  0  0  0  0
 10 11  1  0  0  0  0
 10 12  1  0  0  0  0
 10 13  1  0  0  0  0
 13 14  1  0  0  0  0
 13 15  1  0  0  0  0
 13 16  1  0  0  0  0
M  END
> <VConfSearch Rank>
833

> <Conf_Id>
36

> <Delta U+W>
-0.427

> <U+W>
-57.331

> <U>
7.263

> <W>
-64.594

> <W(PB)>
-66.513

> <W(SA)>
1.920

> <Valence>
6.734

> <Coulomb>
-0.068

> <VdW>
0.598

> <VdW6>
-4.819

> <VdW12>
5.417

> <Bond>
0.107

> <Angle>
2.469

> <Pdih>
4.157

> <Idih>
0.001

> <Tether>
0.000

$$$$
VeraChem MOL file


 16 15  0  0  0  0  0  0  0  0999 V2000     
   18.1825   17.5192   21.0447 C   0  0  0  0  0  0  0  0  0  0  0  0
   18.6976   16.6296   20.3973 O   0  5  0  0  0  0  0  0  0  0  0  0
   17.0095   17.8224   20.9549 O   0  0  0  0  0  0  0  0  0  0  0  0
   19.0597   18.3117   22.0075 C   0  0  0  0  0  0  0  0  0  0  0  0
   19.8254   17.6321   22.3987 H   0  0  0  0  0  0  0  0  0  0  0  0
   18.4385   18.6244   22.8554 H   0  0  0  0  0  0  0  0  0  0  0  0
   19.7174   19.5486   21.3422 C   0  0  0  0  0  0  0  0  0  0  0  0
   20.3704   19.2197   20.5219 H   0  0  0  0  0  0  0  0  0  0  0  0
   18.9302   20.1640   20.8851 H   0  0  0  0  0  0  0  0  0  0  0  0
   20.5214   20.4243   22.3307 C   0  0  0  0  0  0  0  0  0  0  0  0
   19.8657   20.7629   23.1448 H   0  0  0  0  0  0  0  0  0  0  0  0
   20.8589   21.3293   21.8068 H   0  0  0  0  0  0  0  0  0  0  0  0
   21.7518   19.7029   22.9210 C   0  0  0  0  0  0  0  0  0  0  0  0
   21.4554   18.8537   23.5494 H   0  0  0  0  0  0  0  0  0  0  0  0
   22.3363   20.3905   23.5460 H   0  0  0  0  0  0  0  0  0  0  0  0
   22.4083   19.3297   22.1241 H   0  0  0  0  0  0  0  0  0  0  0  0
  1  2  1  0  0  0  0
  1  3  2  0  0  0  0
  1  4  1  0  0  0  0
  4  5  1  0  0  0  0
  4  6  1  0  0  0  0
  4  7  1  0  0  0  0
  7  8  1  0  0  0  0
  7  9  1  0  0  0  0
  7 10  1  0  0  0  0
 10 11  1  0  0  0  0
 10 12  1  0  0  0  0
 10 13  1  0  0  0  0
 13 14  1  0  0  0  0
 13 15  1  0  0  0  0
 13 16  1  0  0  0  0
M  END
> <VConfSearch Rank>
834

> <Conf_Id>
17

> <Delta U+W>
-0.432

> <U+W>
-57.336

> <U>
7.263

> <W>
-64.599

> <W(PB)>
-66.503

> <W(SA)>
1.904

> <Valence>
6.734

> <Coulomb>
-0.068

> <VdW>
0.598

> <VdW6>
-4.819

> <VdW12>
5.417

> <Bond>
0.107

> <Angle>
2.469

> <Pdih>
4.157

> <Idih>
0.001

> <Tether>
0.000

$$$$
VeraChem MOL file


 16 15  0  0  0  0  0  0  0  0999 V2000     
   19.1246   17.6408   20.5584 C   0  0  0  0  0  0  0  0  0  0  0  0
   18.0316   17.2461   20.9134 O   0  5  0  0  0  0  0  0  0  0  0  0
   19.3514   18.0805   19.4487 O   0  0  0  0  0  0  0  0  0  0  0  0
   20.2785   17.5566   21.5539 C   0  0  0  0  0  0  0  0  0  0  0  0
   21.2238   17.6096   21.0001 H   0  0  0  0  0  0  0  0  0  0  0  0
   20.2388   16.5645   22.0191 H   0  0  0  0  0  0  0  0  0  0  0  0
   20.2428   18.6465   22.6566 C   0  0  0  0  0  0  0  0  0  0  0  0
   19.2795   18.6000   23.1835 H   0  0  0  0  0  0  0  0  0  0  0  0
   21.0208   18.4268   23.4002 H   0  0  0  0  0  0  0  0  0  0  0  0
   20.4633   20.0676   22.0944 C   0  0  0  0  0  0  0  0  0  0  0  0
   19.6780   20.3065   21.3636 H   0  0  0  0  0  0  0  0  0  0  0  0
   21.4209   20.1092   21.5572 H   0  0  0  0  0  0  0  0  0  0  0  0
   20.4568   21.1269   23.2142 C   0  0  0  0  0  0  0  0  0  0  0  0
   19.4975   21.1277   23.7482 H   0  0  0  0  0  0  0  0  0  0  0  0
   20.6138   22.1305   22.7979 H   0  0  0  0  0  0  0  0  0  0  0  0
   21.2550   20.9335   23.9429 H   0  0  0  0  0  0  0  0  0  0  0  0
  1  2  1  0  0  0  0
  1  3  2  0  0  0  0
  1  4  1  0  0  0  0
  4  5  1  0  0  0  0
  4  6  1  0  0  0  0
  4  7  1  0  0  0  0
  7  8  1  0  0  0  0
  7  9  1  0  0  0  0
  7 10  1  0  0  0  0
 10 11  1  0  0  0  0
 10 12  1  0  0  0  0
 10 13  1  0  0  0  0
 13 14  1  0  0  0  0
 13 15  1  0  0  0  0
 13 16  1  0  0  0  0
M  END
> <VConfSearch Rank>
835

> <Conf_Id>
19

> <Delta U+W>
0.048

> <U+W>
-56.856

> <U>
8.276

> <W>
-65.132

> <W(PB)>
-67.031

> <W(SA)>
1.899

> <Valence>
6.513

> <Coulomb>
1.428

> <VdW>
0.335

> <VdW6>
-5.021

> <VdW12>
5.356

> <Bond>
0.092

> <Angle>
2.417

> <Pdih>
4.003

> <Idih>
0.001

> <Tether>
0.000

$$$$
VeraChem MOL file


 16 15  0  0  0  0  0  0  0  0999 V2000     
   19.1322   17.3141   20.8029 C   0  0  0  0  0  0  0  0  0  0  0  0
   20.0405   16.6618   20.3278 O   0  5  0  0  0  0  0  0  0  0  0  0
   18.1761   17.7007   20.1604 O   0  0  0  0  0  0  0  0  0  0  0  0
   19.1855   17.6446   22.2920 C   0  0  0  0  0  0  0  0  0  0  0  0
   19.4636   16.7260   22.8222 H   0  0  0  0  0  0  0  0  0  0  0  0
   18.1762   17.9116   22.6282 H   0  0  0  0  0  0  0  0  0  0  0  0
   20.1858   18.7732   22.6536 C   0  0  0  0  0  0  0  0  0  0  0  0
   20.2602   18.8467   23.7470 H   0  0  0  0  0  0  0  0  0  0  0  0
   21.1860   18.5050   22.2858 H   0  0  0  0  0  0  0  0  0  0  0  0
   19.7675   20.1440   22.0790 C   0  0  0  0  0  0  0  0  0  0  0  0
   18.7622   20.4051   22.4377 H   0  0  0  0  0  0  0  0  0  0  0  0
   19.7096   20.0880   20.9830 H   0  0  0  0  0  0  0  0  0  0  0  0
   20.7597   21.2532   22.4810 C   0  0  0  0  0  0  0  0  0  0  0  0
   20.8130   21.3561   23.5728 H   0  0  0  0  0  0  0  0  0  0  0  0
   20.4486   22.2199   22.0641 H   0  0  0  0  0  0  0  0  0  0  0  0
   21.7682   21.0317   22.1076 H   0  0  0  0  0  0  0  0  0  0  0  0
  1  2  1  0  0  0  0
  1  3  2  0  0  0  0
  1  4  1  0  0  0  0
  4  5  1  0  0  0  0
  4  6  1  0  0  0  0
  4  7  1  0  0  0  0
  7  8  1  0  0  0  0
  7  9  1  0  0  0  0
  7 10  1  0  0  0  0
 10 11  1  0  0  0  0
 10 12  1  0  0  0  0
 10 13  1  0  0  0  0
 13 14  1  0  0  0  0
 13 15  1  0  0  0  0
 13 16  1  0  0  0  0
M  END
> <VConfSearch Rank>
836

> <Conf_Id>
20

> <Delta U+W>
-0.010

> <U+W>
-56.914

> <U>
8.277

> <W>
-65.191

> <W(PB)>
-67.081

> <W(SA)>
1.890

> <Valence>
6.513

> <Coulomb>
1.429

> <VdW>
0.335

> <VdW6>
-5.021

> <VdW12>
5.356

> <Bond>
0.092

> <Angle>
2.417

> <Pdih>
4.002

> <Idih>
0.001

> <Tether>
0.000

$$$$
VeraChem MOL file


 16 15  0  0  0  0  0  0  0  0999 V2000     
   18.2066   20.2897   22.9480 C   0  0  0  0  0  0  0  0  0  0  0  0
   17.0466   20.0140   22.7134 O   0  5  0  0  0  0  0  0  0  0  0  0
   18.6548   21.4170   22.8792 O   0  0  0  0  0  0  0  0  0  0  0  0
   19.1397   19.1637   23.3852 C   0  0  0  0  0  0  0  0  0  0  0  0
   18.6415   18.6260   24.2004 H   0  0  0  0  0  0  0  0  0  0  0  0
   20.0470   19.6047   23.8137 H   0  0  0  0  0  0  0  0  0  0  0  0
   19.4997   18.1610   22.2548 C   0  0  0  0  0  0  0  0  0  0  0  0
   20.1045   17.3462   22.6752 H   0  0  0  0  0  0  0  0  0  0  0  0
   18.5739   17.6985   21.8855 H   0  0  0  0  0  0  0  0  0  0  0  0
   20.2547   18.7910   21.0601 C   0  0  0  0  0  0  0  0  0  0  0  0
   19.6445   19.5854   20.6083 H   0  0  0  0  0  0  0  0  0  0  0  0
   20.3884   18.0248   20.2841 H   0  0  0  0  0  0  0  0  0  0  0  0
   21.6383   19.3569   21.4446 C   0  0  0  0  0  0  0  0  0  0  0  0
   21.5433   20.2107   22.1276 H   0  0  0  0  0  0  0  0  0  0  0  0
   22.1721   19.7051   20.5509 H   0  0  0  0  0  0  0  0  0  0  0  0
   22.2561   18.5910   21.9312 H   0  0  0  0  0  0  0  0  0  0  0  0
  1  2  1  0  0  0  0
  1  3  2  0  0  0  0
  1  4  1  0  0  0  0
  4  5  1  0  0  0  0
  4  6  1  0  0  0  0
  4  7  1  0  0  0  0
  7  8  1  0  0  0  0
  7  9  1  0  0  0  0
  7 10  1  0  0  0  0
 10 11  1  0  0  0  0
 10 12  1  0  0  0  0
 10 13  1  0  0  0  0
 13 14  1  0  0  0  0
 13 15  1  0  0  0  0
 13 16  1  0  0  0  0
M  END
> <VConfSearch Rank>
837

> <Conf_Id>
37

> <Delta U+W>
1.063

> <U+W>
-55.841

> <U>
9.719

> <W>
-65.560

> <W(PB)>
-67.414

> <W(SA)>
1.854

> <Valence>
7.002

> <Coulomb>
2.402

> <VdW>
0.314

> <VdW6>
-5.861

> <VdW12>
6.175

> <Bond>
0.134

> <Angle>
2.733

> <Pdih>
4.133

> <Idih>
0.002

> <Tether>
0.000

$$$$
VeraChem MOL file


 16 15  0  0  0  0  0  0  0  0999 V2000     
   20.1051   21.1552   22.9074 C   0  0  0  0  0  0  0  0  0  0  0  0
   20.2499   22.1257   22.1905 O   0  5  0  0  0  0  0  0  0  0  0  0
   19.2364   21.0699   23.7527 O   0  0  0  0  0  0  0  0  0  0  0  0
   21.0894   19.9980   22.7596 C   0  0  0  0  0  0  0  0  0  0  0  0
   20.9988   19.3449   23.6351 H   0  0  0  0  0  0  0  0  0  0  0  0
   22.0992   20.4234   22.7932 H   0  0  0  0  0  0  0  0  0  0  0  0
   20.9200   19.1826   21.4484 C   0  0  0  0  0  0  0  0  0  0  0  0
   21.0701   19.8554   20.5928 H   0  0  0  0  0  0  0  0  0  0  0  0
   21.7150   18.4270   21.3891 H   0  0  0  0  0  0  0  0  0  0  0  0
   19.5454   18.4876   21.3027 C   0  0  0  0  0  0  0  0  0  0  0  0
   19.4947   18.0105   20.3142 H   0  0  0  0  0  0  0  0  0  0  0  0
   18.7424   19.2374   21.3255 H   0  0  0  0  0  0  0  0  0  0  0  0
   19.2859   17.4186   22.3854 C   0  0  0  0  0  0  0  0  0  0  0  0
   20.0937   16.6756   22.4074 H   0  0  0  0  0  0  0  0  0  0  0  0
   18.3450   16.8901   22.1849 H   0  0  0  0  0  0  0  0  0  0  0  0
   19.2054   17.8724   23.3815 H   0  0  0  0  0  0  0  0  0  0  0  0
  1  2  1  0  0  0  0
  1  3  2  0  0  0  0
  1  4  1  0  0  0  0
  4  5  1  0  0  0  0
  4  6  1  0  0  0  0
  4  7  1  0  0  0  0
  7  8  1  0  0  0  0
  7  9  1  0  0  0  0
  7 10  1  0  0  0  0
 10 11  1  0  0  0  0
 10 12  1  0  0  0  0
 10 13  1  0  0  0  0
 13 14  1  0  0  0  0
 13 15  1  0  0  0  0
 13 16  1  0  0  0  0
M  END
> <VConfSearch Rank>
838

> <Conf_Id>
39

> <Delta U+W>
1.129

> <U+W>
-55.775

> <U>
9.718

> <W>
-65.493

> <W(PB)>
-67.361

> <W(SA)>
1.869

> <Valence>
7.002

> <Coulomb>
2.402

> <VdW>
0.314

> <VdW6>
-5.861

> <VdW12>
6.175

> <Bond>
0.134

> <Angle>
2.734

> <Pdih>
4.133

> <Idih>
0.002

> <Tether>
0.000

$$$$
VeraChem MOL file


 16 15  0  0  0  0  0  0  0  0999 V2000     
   21.3260   18.2175   23.3649 C   0  0  0  0  0  0  0  0  0  0  0  0
   21.4822   18.7990   24.4205 O   0  5  0  0  0  0  0  0  0  0  0  0
   22.2434   17.9051   22.6315 O   0  0  0  0  0  0  0  0  0  0  0  0
   19.9128   17.7782   22.9860 C   0  0  0  0  0  0  0  0  0  0  0  0
   19.2222   18.0675   23.7875 H   0  0  0  0  0  0  0  0  0  0  0  0
   19.9255   16.6822   22.9640 H   0  0  0  0  0  0  0  0  0  0  0  0
   19.3982   18.3044   21.6166 C   0  0  0  0  0  0  0  0  0  0  0  0
   20.1824   18.1951   20.8547 H   0  0  0  0  0  0  0  0  0  0  0  0
   18.5708   17.6579   21.2943 H   0  0  0  0  0  0  0  0  0  0  0  0
   18.8774   19.7618   21.6378 C   0  0  0  0  0  0  0  0  0  0  0  0
   18.0951   19.8674   22.4020 H   0  0  0  0  0  0  0  0  0  0  0  0
   18.3963   19.9727   20.6727 H   0  0  0  0  0  0  0  0  0  0  0  0
   19.9799   20.8148   21.8747 C   0  0  0  0  0  0  0  0  0  0  0  0
   20.3805   20.7513   22.8937 H   0  0  0  0  0  0  0  0  0  0  0  0
   19.5786   21.8276   21.7406 H   0  0  0  0  0  0  0  0  0  0  0  0
   20.8099   20.6822   21.1684 H   0  0  0  0  0  0  0  0  0  0  0  0
  1  2  1  0  0  0  0
  1  3  2  0  0  0  0
  1  4  1  0  0  0  0
  4  5  1  0  0  0  0
  4  6  1  0  0  0  0
  4  7  1  0  0  0  0
  7  8  1  0  0  0  0
  7  9  1  0  0  0  0
  7 10  1  0  0  0  0
 10 11  1  0  0  0  0
 10 12  1  0  0  0  0
 10 13  1  0  0  0  0
 13 14  1  0  0  0  0
 13 15  1  0  0  0  0
 13 16  1  0  0  0  0
M  END
> <VConfSearch Rank>
839

> <Conf_Id>
47

> <Delta U+W>
2.301

> <U+W>
-54.603

> <U>
11.258

> <W>
-65.861

> <W(PB)>
-67.702

> <W(SA)>
1.841

> <Valence>
8.169

> <Coulomb>
2.735

> <VdW>
0.355

> <VdW6>
-6.245

> <VdW12>
6.600

> <Bond>
0.149

> <Angle>
3.168

> <Pdih>
4.840

> <Idih>
0.011

> <Tether>
0.000

$$$$
VeraChem MOL file


 16 15  0  0  0  0  0  0  0  0999 V2000     
   18.0610   18.2856   22.3149 C   0  0  0  0  0  0  0  0  0  0  0  0
   17.3548   18.8497   21.5024 O   0  5  0  0  0  0  0  0  0  0  0  0
   17.7139   18.0546   23.4563 O   0  0  0  0  0  0  0  0  0  0  0  0
   19.4192   17.7598   21.8539 C   0  0  0  0  0  0  0  0  0  0  0  0
   19.2148   17.0252   21.0662 H   0  0  0  0  0  0  0  0  0  0  0  0
   19.8886   17.2113   22.6797 H   0  0  0  0  0  0  0  0  0  0  0  0
   20.3950   18.8357   21.2996 C   0  0  0  0  0  0  0  0  0  0  0  0
   21.1486   18.3253   20.6847 H   0  0  0  0  0  0  0  0  0  0  0  0
   19.8588   19.5134   20.6208 H   0  0  0  0  0  0  0  0  0  0  0  0
   21.1426   19.6505   22.3825 C   0  0  0  0  0  0  0  0  0  0  0  0
   21.9125   20.2597   21.8890 H   0  0  0  0  0  0  0  0  0  0  0  0
   21.6758   18.9694   23.0601 H   0  0  0  0  0  0  0  0  0  0  0  0
   20.2290   20.5865   23.2007 C   0  0  0  0  0  0  0  0  0  0  0  0
   20.8287   21.2359   23.8514 H   0  0  0  0  0  0  0  0  0  0  0  0
   19.5459   20.0170   23.8426 H   0  0  0  0  0  0  0  0  0  0  0  0
   19.6293   21.2274   22.5411 H   0  0  0  0  0  0  0  0  0  0  0  0
  1  2  1  0  0  0  0
  1  3  2  0  0  0  0
  1  4  1  0  0  0  0
  4  5  1  0  0  0  0
  4  6  1  0  0  0  0
  4  7  1  0  0  0  0
  7  8  1  0  0  0  0
  7  9  1  0  0  0  0
  7 10  1  0  0  0  0
 10 11  1  0  0  0  0
 10 12  1  0  0  0  0
 10 13  1  0  0  0  0
 13 14  1  0  0  0  0
 13 15  1  0  0  0  0
 13 16  1  0  0  0  0
M  END
> <VConfSearch Rank>
840

> <Conf_Id>
45

> <Delta U+W>
2.303

> <U+W>
-54.601

> <U>
11.258

> <W>
-65.860

> <W(PB)>
-67.709

> <W(SA)>
1.849

> <Valence>
8.169

> <Coulomb>
2.735

> <VdW>
0.355

> <VdW6>
-6.245

> <VdW12>
6.600

> <Bond>
0.149

> <Angle>
3.168

> <Pdih>
4.840

> <Idih>
0.011

> <Tether>
0.000

$$$$
VeraChem MOL file


 16 15  0  0  0  0  0  0  0  0999 V2000     
   21.4156   17.5588   23.7074 C   0  0  0  0  0  0  0  0  0  0  0  0
   20.5122   16.7633   23.8770 O   0  5  0  0  0  0  0  0  0  0  0  0
   22.4920   17.4666   24.2625 O   0  0  0  0  0  0  0  0  0  0  0  0
   21.2188   18.7415   22.7576 C   0  0  0  0  0  0  0  0  0  0  0  0
   22.0043   18.6829   21.9949 H   0  0  0  0  0  0  0  0  0  0  0  0
   21.3985   19.6571   23.3334 H   0  0  0  0  0  0  0  0  0  0  0  0
   19.8285   18.8184   22.0724 C   0  0  0  0  0  0  0  0  0  0  0  0
   19.6518   17.8962   21.5016 H   0  0  0  0  0  0  0  0  0  0  0  0
   19.0454   18.8714   22.8414 H   0  0  0  0  0  0  0  0  0  0  0  0
   19.7181   20.0386   21.1343 C   0  0  0  0  0  0  0  0  0  0  0  0
   20.4996   19.9859   20.3636 H   0  0  0  0  0  0  0  0  0  0  0  0
   19.8929   20.9617   21.7043 H   0  0  0  0  0  0  0  0  0  0  0  0
   18.3352   20.1095   20.4569 C   0  0  0  0  0  0  0  0  0  0  0  0
   18.1469   19.2115   19.8539 H   0  0  0  0  0  0  0  0  0  0  0  0
   18.2736   20.9822   19.7938 H   0  0  0  0  0  0  0  0  0  0  0  0
   17.5356   20.1945   21.2044 H   0  0  0  0  0  0  0  0  0  0  0  0
  1  2  1  0  0  0  0
  1  3  2  0  0  0  0
  1  4  1  0  0  0  0
  4  5  1  0  0  0  0
  4  6  1  0  0  0  0
  4  7  1  0  0  0  0
  7  8  1  0  0  0  0
  7  9  1  0  0  0  0
  7 10  1  0  0  0  0
 10 11  1  0  0  0  0
 10 12  1  0  0  0  0
 10 13  1  0  0  0  0
 13 14  1  0  0  0  0
 13 15  1  0  0  0  0
 13 16  1  0  0  0  0
M  END
> <VConfSearch Rank>
841

> <Conf_Id>
0

> <Delta U+W>
0.000

> <U+W>
-56.904

> <U>
7.329

> <W>
-64.233

> <W(PB)>
-66.148

> <W(SA)>
1.915

> <Valence>
6.755

> <Coulomb>
-0.421

> <VdW>
0.995

> <VdW6>
-4.495

> <VdW12>
5.490

> <Bond>
0.106

> <Angle>
2.715

> <Pdih>
3.934

> <Idih>
0.000

> <Tether>
0.000

$$$$
VeraChem MOL file


 16 15  0  0  0  0  0  0  0  0999 V2000     
   18.0416   19.3881   20.0942 C   0  0  0  0  0  0  0  0  0  0  0  0
   17.6230   20.5201   19.9561 O   0  5  0  0  0  0  0  0  0  0  0  0
   18.0631   18.5659   19.2001 O   0  0  0  0  0  0  0  0  0  0  0  0
   18.5865   18.9827   21.4592 C   0  0  0  0  0  0  0  0  0  0  0  0
   18.3846   17.9144   21.6035 H   0  0  0  0  0  0  0  0  0  0  0  0
   18.0218   19.5256   22.2268 H   0  0  0  0  0  0  0  0  0  0  0  0
   20.1015   19.2648   21.6115 C   0  0  0  0  0  0  0  0  0  0  0  0
   20.6519   18.7245   20.8287 H   0  0  0  0  0  0  0  0  0  0  0  0
   20.2892   20.3358   21.4520 H   0  0  0  0  0  0  0  0  0  0  0  0
   20.6269   18.8459   23.0003 C   0  0  0  0  0  0  0  0  0  0  0  0
   20.4400   17.7748   23.1599 H   0  0  0  0  0  0  0  0  0  0  0  0
   20.0772   19.3865   23.7833 H   0  0  0  0  0  0  0  0  0  0  0  0
   22.1351   19.1296   23.1447 C   0  0  0  0  0  0  0  0  0  0  0  0
   22.3471   20.1997   23.0207 H   0  0  0  0  0  0  0  0  0  0  0  0
   22.7127   18.5761   22.3926 H   0  0  0  0  0  0  0  0  0  0  0  0
   22.4925   18.8261   24.1373 H   0  0  0  0  0  0  0  0  0  0  0  0
  1  2  1  0  0  0  0
  1  3  2  0  0  0  0
  1  4  1  0  0  0  0
  4  5  1  0  0  0  0
  4  6  1  0  0  0  0
  4  7  1  0  0  0  0
  7  8  1  0  0  0  0
  7  9  1  0  0  0  0
  7 10  1  0  0  0  0
 10 11  1  0  0  0  0
 10 12  1  0  0  0  0
 10 13  1  0  0  0  0
 13 14  1  0  0  0  0
 13 15  1  0  0  0  0
 13 16  1  0  0  0  0
M  END
> <VConfSearch Rank>
842

> <Conf_Id>
22

> <Delta U+W>
-1.185

> <U+W>
-58.089

> <U>
6.298

> <W>
-64.387

> <W(PB)>
-66.329

> <W(SA)>
1.942

> <Valence>
6.246

> <Coulomb>
-0.408

> <VdW>
0.460

> <VdW6>
-4.207

> <VdW12>
4.667

> <Bond>
0.072

> <Angle>
2.246

> <Pdih>
3.928

> <Idih>
0.001

> <Tether>
0.000

$$$$
VeraChem MOL file


 16 15  0  0  0  0  0  0  0  0999 V2000     
   20.6294   18.0265   24.2260 C   0  0  0  0  0  0  0  0  0  0  0  0
   21.5276   18.4525   24.9245 O   0  5  0  0  0  0  0  0  0  0  0  0
   20.2140   16.8865   24.2875 O   0  0  0  0  0  0  0  0  0  0  0  0
   20.0037   18.9681   23.2031 C   0  0  0  0  0  0  0  0  0  0  0  0
   20.0350   19.9850   23.6125 H   0  0  0  0  0  0  0  0  0  0  0  0
   18.9482   18.6927   23.0968 H   0  0  0  0  0  0  0  0  0  0  0  0
   20.7196   18.9236   21.8282 C   0  0  0  0  0  0  0  0  0  0  0  0
   21.7902   19.1183   21.9810 H   0  0  0  0  0  0  0  0  0  0  0  0
   20.6448   17.9108   21.4086 H   0  0  0  0  0  0  0  0  0  0  0  0
   20.1678   19.9513   20.8134 C   0  0  0  0  0  0  0  0  0  0  0  0
   20.7960   19.9301   19.9122 H   0  0  0  0  0  0  0  0  0  0  0  0
   20.2533   20.9653   21.2281 H   0  0  0  0  0  0  0  0  0  0  0  0
   18.7039   19.6788   20.4062 C   0  0  0  0  0  0  0  0  0  0  0  0
   18.0217   19.8013   21.2567 H   0  0  0  0  0  0  0  0  0  0  0  0
   18.5882   18.6595   20.0151 H   0  0  0  0  0  0  0  0  0  0  0  0
   18.3870   20.3793   19.6227 H   0  0  0  0  0  0  0  0  0  0  0  0
  1  2  1  0  0  0  0
  1  3  2  0  0  0  0
  1  4  1  0  0  0  0
  4  5  1  0  0  0  0
  4  6  1  0  0  0  0
  4  7  1  0  0  0  0
  7  8  1  0  0  0  0
  7  9  1  0  0  0  0
  7 10  1  0  0  0  0
 10 11  1  0  0  0  0
 10 12  1  0  0  0  0
 10 13  1  0  0  0  0
 13 14  1  0  0  0  0
 13 15  1  0  0  0  0
 13 16  1  0  0  0  0
M  END
> <VConfSearch Rank>
843

> <Conf_Id>
36

> <Delta U+W>
-0.427

> <U+W>
-57.331

> <U>
7.263

> <W>
-64.594

> <W(PB)>
-66.513

> <W(SA)>
1.920

> <Valence>
6.734

> <Coulomb>
-0.068

> <VdW>
0.598

> <VdW6>
-4.819

> <VdW12>
5.417

> <Bond>
0.107

> <Angle>
2.469

> <Pdih>
4.157

> <Idih>
0.001

> <Tether>
0.000

$$$$
VeraChem MOL file


 16 15  0  0  0  0  0  0  0  0999 V2000     
   17.4016   18.7816   22.0348 C   0  0  0  0  0  0  0  0  0  0  0  0
   16.9423   19.0312   23.1315 O   0  5  0  0  0  0  0  0  0  0  0  0
   16.8240   18.1125   21.2013 O   0  0  0  0  0  0  0  0  0  0  0  0
   18.7864   19.3202   21.6930 C   0  0  0  0  0  0  0  0  0  0  0  0
   18.9067   20.2820   22.2044 H   0  0  0  0  0  0  0  0  0  0  0  0
   18.8180   19.5187   20.6150 H   0  0  0  0  0  0  0  0  0  0  0  0
   19.9253   18.3455   22.0902 C   0  0  0  0  0  0  0  0  0  0  0  0
   19.9102   18.1877   23.1775 H   0  0  0  0  0  0  0  0  0  0  0  0
   19.7285   17.3666   21.6315 H   0  0  0  0  0  0  0  0  0  0  0  0
   21.3278   18.8265   21.6518 C   0  0  0  0  0  0  0  0  0  0  0  0
   21.3465   18.9730   20.5630 H   0  0  0  0  0  0  0  0  0  0  0  0
   22.0573   18.0347   21.8713 H   0  0  0  0  0  0  0  0  0  0  0  0
   21.7744   20.1244   22.3581 C   0  0  0  0  0  0  0  0  0  0  0  0
   21.1382   20.9730   22.0771 H   0  0  0  0  0  0  0  0  0  0  0  0
   22.8061   20.3766   22.0806 H   0  0  0  0  0  0  0  0  0  0  0  0
   21.7361   20.0110   23.4494 H   0  0  0  0  0  0  0  0  0  0  0  0
  1  2  1  0  0  0  0
  1  3  2  0  0  0  0
  1  4  1  0  0  0  0
  4  5  1  0  0  0  0
  4  6  1  0  0  0  0
  4  7  1  0  0  0  0
  7  8  1  0  0  0  0
  7  9  1  0  0  0  0
  7 10  1  0  0  0  0
 10 11  1  0  0  0  0
 10 12  1  0  0  0  0
 10 13  1  0  0  0  0
 13 14  1  0  0  0  0
 13 15  1  0  0  0  0
 13 16  1  0  0  0  0
M  END
> <VConfSearch Rank>
844

> <Conf_Id>
17

> <Delta U+W>
-0.432

> <U+W>
-57.336

> <U>
7.263

> <W>
-64.599

> <W(PB)>
-66.503

> <W(SA)>
1.904

> <Valence>
6.734

> <Coulomb>
-0.068

> <VdW>
0.598

> <VdW6>
-4.819

> <VdW12>
5.417

> <Bond>
0.107

> <Angle>
2.469

> <Pdih>
4.157

> <Idih>
0.001

> <Tether>
0.000

$$$$
VeraChem MOL file


 16 15  0  0  0  0  0  0  0  0999 V2000     
   18.1287   20.3800   22.2611 C   0  0  0  0  0  0  0  0  0  0  0  0
   18.2412   21.5360   21.9042 O   0  5  0  0  0  0  0  0  0  0  0  0
   17.2364   19.6456   21.8859 O   0  0  0  0  0  0  0  0  0  0  0  0
   19.1506   19.8300   23.2524 C   0  0  0  0  0  0  0  0  0  0  0  0
   18.7303   18.9364   23.7297 H   0  0  0  0  0  0  0  0  0  0  0  0
   19.2789   20.5803   24.0417 H   0  0  0  0  0  0  0  0  0  0  0  0
   20.5292   19.5016   22.6224 C   0  0  0  0  0  0  0  0  0  0  0  0
   20.9245   20.3976   22.1239 H   0  0  0  0  0  0  0  0  0  0  0  0
   21.2360   19.2480   23.4240 H   0  0  0  0  0  0  0  0  0  0  0  0
   20.4591   18.3318   21.6171 C   0  0  0  0  0  0  0  0  0  0  0  0
   19.7697   18.5828   20.7989 H   0  0  0  0  0  0  0  0  0  0  0  0
   20.0521   17.4402   22.1137 H   0  0  0  0  0  0  0  0  0  0  0  0
   21.8471   18.0043   21.0317 C   0  0  0  0  0  0  0  0  0  0  0  0
   22.2641   18.8710   20.5021 H   0  0  0  0  0  0  0  0  0  0  0  0
   21.7795   17.1720   20.3191 H   0  0  0  0  0  0  0  0  0  0  0  0
   22.5498   17.7157   21.8243 H   0  0  0  0  0  0  0  0  0  0  0  0
  1  2  1  0  0  0  0
  1  3  2  0  0  0  0
  1  4  1  0  0  0  0
  4  5  1  0  0  0  0
  4  6  1  0  0  0  0
  4  7  1  0  0  0  0
  7  8  1  0  0  0  0
  7  9  1  0  0  0  0
  7 10  1  0  0  0  0
 10 11  1  0  0  0  0
 10 12  1  0  0  0  0
 10 13  1  0  0  0  0
 13 14  1  0  0  0  0
 13 15  1  0  0  0  0
 13 16  1  0  0  0  0
M  END
> <VConfSearch Rank>
845

> <Conf_Id>
19

> <Delta U+W>
0.048

> <U+W>
-56.856

> <U>
8.276

> <W>
-65.132

> <W(PB)>
-67.031

> <W(SA)>
1.899

> <Valence>
6.513

> <Coulomb>
1.428

> <VdW>
0.335

> <VdW6>
-5.021

> <VdW12>
5.356

> <Bond>
0.092

> <Angle>
2.417

> <Pdih>
4.003

> <Idih>
0.001

> <Tether>
0.000

$$$$
VeraChem MOL file


 16 15  0  0  0  0  0  0  0  0999 V2000     
   17.6131   19.8890   22.1742 C   0  0  0  0  0  0  0  0  0  0  0  0
   17.3970   20.7015   23.0514 O   0  5  0  0  0  0  0  0  0  0  0  0
   16.9265   18.9040   21.9880 O   0  0  0  0  0  0  0  0  0  0  0  0
   18.7972   20.1332   21.2427 C   0  0  0  0  0  0  0  0  0  0  0  0
   18.7667   21.1873   20.9426 H   0  0  0  0  0  0  0  0  0  0  0  0
   18.6544   19.5398   20.3313 H   0  0  0  0  0  0  0  0  0  0  0  0
   20.1763   19.8158   21.8769 C   0  0  0  0  0  0  0  0  0  0  0  0
   20.9684   20.1496   21.1930 H   0  0  0  0  0  0  0  0  0  0  0  0
   20.2932   20.3954   22.8032 H   0  0  0  0  0  0  0  0  0  0  0  0
   20.3614   18.3120   22.1742 C   0  0  0  0  0  0  0  0  0  0  0  0
   20.2320   17.7327   21.2494 H   0  0  0  0  0  0  0  0  0  0  0  0
   19.5858   17.9711   22.8742 H   0  0  0  0  0  0  0  0  0  0  0  0
   21.7519   18.0198   22.7721 C   0  0  0  0  0  0  0  0  0  0  0  0
   22.5487   18.3189   22.0786 H   0  0  0  0  0  0  0  0  0  0  0  0
   21.8666   16.9477   22.9782 H   0  0  0  0  0  0  0  0  0  0  0  0
   21.8956   18.5636   23.7151 H   0  0  0  0  0  0  0  0  0  0  0  0
  1  2  1  0  0  0  0
  1  3  2  0  0  0  0
  1  4  1  0  0  0  0
  4  5  1  0  0  0  0
  4  6  1  0  0  0  0
  4  7  1  0  0  0  0
  7  8  1  0  0  0  0
  7  9  1  0  0  0  0
  7 10  1  0  0  0  0
 10 11  1  0  0  0  0
 10 12  1  0  0  0  0
 10 13  1  0  0  0  0
 13 14  1  0  0  0  0
 13 15  1  0  0  0  0
 13 16  1  0  0  0  0
M  END
> <VConfSearch Rank>
846

> <Conf_Id>
20

> <Delta U+W>
-0.010

> <U+W>
-56.914

> <U>
8.277

> <W>
-65.191

> <W(PB)>
-67.081

> <W(SA)>
1.890

> <Valence>
6.513

> <Coulomb>
1.429

> <VdW>
0.335

> <VdW6>
-5.021

> <VdW12>
5.356

> <Bond>
0.092

> <Angle>
2.417

> <Pdih>
4.002

> <Idih>
0.001

> <Tether>
0.000

$$$$
VeraChem MOL file


 16 15  0  0  0  0  0  0  0  0999 V2000     
   21.9151   19.7710   21.9815 C   0  0  0  0  0  0  0  0  0  0  0  0
   22.3322   20.4159   21.0397 O   0  5  0  0  0  0  0  0  0  0  0  0
   22.4795   18.7907   22.4251 O   0  0  0  0  0  0  0  0  0  0  0  0
   20.6322   20.2396   22.6629 C   0  0  0  0  0  0  0  0  0  0  0  0
   20.7497   21.3081   22.8785 H   0  0  0  0  0  0  0  0  0  0  0  0
   20.5441   19.7356   23.6321 H   0  0  0  0  0  0  0  0  0  0  0  0
   19.3477   20.0259   21.8160 C   0  0  0  0  0  0  0  0  0  0  0  0
   18.4902   20.4621   22.3460 H   0  0  0  0  0  0  0  0  0  0  0  0
   19.4471   20.5872   20.8766 H   0  0  0  0  0  0  0  0  0  0  0  0
   19.0416   18.5461   21.4839 C   0  0  0  0  0  0  0  0  0  0  0  0
   19.8783   18.1075   20.9224 H   0  0  0  0  0  0  0  0  0  0  0  0
   18.1686   18.5076   20.8179 H   0  0  0  0  0  0  0  0  0  0  0  0
   18.7521   17.6889   22.7344 C   0  0  0  0  0  0  0  0  0  0  0  0
   19.6423   17.5986   23.3699 H   0  0  0  0  0  0  0  0  0  0  0  0
   18.4488   16.6751   22.4427 H   0  0  0  0  0  0  0  0  0  0  0  0
   17.9421   18.1258   23.3328 H   0  0  0  0  0  0  0  0  0  0  0  0
  1  2  1  0  0  0  0
  1  3  2  0  0  0  0
  1  4  1  0  0  0  0
  4  5  1  0  0  0  0
  4  6  1  0  0  0  0
  4  7  1  0  0  0  0
  7  8  1  0  0  0  0
  7  9  1  0  0  0  0
  7 10  1  0  0  0  0
 10 11  1  0  0  0  0
 10 12  1  0  0  0  0
 10 13  1  0  0  0  0
 13 14  1  0  0  0  0
 13 15  1  0  0  0  0
 13 16  1  0  0  0  0
M  END
> <VConfSearch Rank>
847

> <Conf_Id>
37

> <Delta U+W>
1.063

> <U+W>
-55.841

> <U>
9.719

> <W>
-65.560

> <W(PB)>
-67.414

> <W(SA)>
1.854

> <Valence>
7.002

> <Coulomb>
2.402

> <VdW>
0.314

> <VdW6>
-5.861

> <VdW12>
6.175

> <Bond>
0.134

> <Angle>
2.733

> <Pdih>
4.133

> <Idih>
0.002

> <Tether>
0.000

$$$$
VeraChem MOL file


 16 15  0  0  0  0  0  0  0  0999 V2000     
   18.1087   18.9542   21.4879 C   0  0  0  0  0  0  0  0  0  0  0  0
   17.8153   18.7399   20.3283 O   0  5  0  0  0  0  0  0  0  0  0  0
   17.6099   18.3639   22.4255 O   0  0  0  0  0  0  0  0  0  0  0  0
   19.1328   20.0474   21.7809 C   0  0  0  0  0  0  0  0  0  0  0  0
   19.0821   20.3008   22.8460 H   0  0  0  0  0  0  0  0  0  0  0  0
   18.8179   20.9436   21.2336 H   0  0  0  0  0  0  0  0  0  0  0  0
   20.5866   19.6826   21.3736 C   0  0  0  0  0  0  0  0  0  0  0  0
   20.6117   19.4875   20.2925 H   0  0  0  0  0  0  0  0  0  0  0  0
   21.2373   20.5507   21.5449 H   0  0  0  0  0  0  0  0  0  0  0  0
   21.1684   18.4562   22.1163 C   0  0  0  0  0  0  0  0  0  0  0  0
   22.1605   18.2310   21.7015 H   0  0  0  0  0  0  0  0  0  0  0  0
   20.5450   17.5718   21.9243 H   0  0  0  0  0  0  0  0  0  0  0  0
   21.3028   18.6738   23.6384 C   0  0  0  0  0  0  0  0  0  0  0  0
   21.8927   19.5733   23.8574 H   0  0  0  0  0  0  0  0  0  0  0  0
   21.8055   17.8170   24.1054 H   0  0  0  0  0  0  0  0  0  0  0  0
   20.3192   18.7803   24.1136 H   0  0  0  0  0  0  0  0  0  0  0  0
  1  2  1  0  0  0  0
  1  3  2  0  0  0  0
  1  4  1  0  0  0  0
  4  5  1  0  0  0  0
  4  6  1  0  0  0  0
  4  7  1  0  0  0  0
  7  8  1  0  0  0  0
  7  9  1  0  0  0  0
  7 10  1  0  0  0  0
 10 11  1  0  0  0  0
 10 12  1  0  0  0  0
 10 13  1  0  0  0  0
 13 14  1  0  0  0  0
 13 15  1  0  0  0  0
 13 16  1  0  0  0  0
M  END
> <VConfSearch Rank>
848

> <Conf_Id>
39

> <Delta U+W>
1.129

> <U+W>
-55.775

> <U>
9.718

> <W>
-65.493

> <W(PB)>
-67.361

> <W(SA)>
1.869

> <Valence>
7.002

> <Coulomb>
2.402

> <VdW>
0.314

> <VdW6>
-5.861

> <VdW12>
6.175

> <Bond>
0.134

> <Angle>
2.734

> <Pdih>
4.133

> <Idih>
0.002

> <Tether>
0.000

$$$$
VeraChem MOL file


 16 15  0  0  0  0  0  0  0  0999 V2000     
   20.0106   17.2772   21.4222 C   0  0  0  0  0  0  0  0  0  0  0  0
   20.7173   17.2986   20.4338 O   0  5  0  0  0  0  0  0  0  0  0  0
   18.9071   16.7684   21.4443 O   0  0  0  0  0  0  0  0  0  0  0  0
   20.5766   17.8385   22.7254 C   0  0  0  0  0  0  0  0  0  0  0  0
   21.6030   18.1828   22.5497 H   0  0  0  0  0  0  0  0  0  0  0  0
   20.6442   16.9945   23.4216 H   0  0  0  0  0  0  0  0  0  0  0  0
   19.7353   18.9687   23.3827 C   0  0  0  0  0  0  0  0  0  0  0  0
   18.6702   18.6987   23.3695 H   0  0  0  0  0  0  0  0  0  0  0  0
   20.0189   19.0299   24.4421 H   0  0  0  0  0  0  0  0  0  0  0  0
   19.9359   20.3709   22.7588 C   0  0  0  0  0  0  0  0  0  0  0  0
   21.0020   20.6362   22.7722 H   0  0  0  0  0  0  0  0  0  0  0  0
   19.4264   21.1093   23.3932 H   0  0  0  0  0  0  0  0  0  0  0  0
   19.3871   20.4990   21.3226 C   0  0  0  0  0  0  0  0  0  0  0  0
   19.9749   19.9010   20.6156 H   0  0  0  0  0  0  0  0  0  0  0  0
   19.4301   21.5431   20.9869 H   0  0  0  0  0  0  0  0  0  0  0  0
   18.3417   20.1680   21.2691 H   0  0  0  0  0  0  0  0  0  0  0  0
  1  2  1  0  0  0  0
  1  3  2  0  0  0  0
  1  4  1  0  0  0  0
  4  5  1  0  0  0  0
  4  6  1  0  0  0  0
  4  7  1  0  0  0  0
  7  8  1  0  0  0  0
  7  9  1  0  0  0  0
  7 10  1  0  0  0  0
 10 11  1  0  0  0  0
 10 12  1  0  0  0  0
 10 13  1  0  0  0  0
 13 14  1  0  0  0  0
 13 15  1  0  0  0  0
 13 16  1  0  0  0  0
M  END
> <VConfSearch Rank>
849

> <Conf_Id>
47

> <Delta U+W>
2.301

> <U+W>
-54.603

> <U>
11.258

> <W>
-65.861

> <W(PB)>
-67.702

> <W(SA)>
1.841

> <Valence>
8.169

> <Coulomb>
2.735

> <VdW>
0.355

> <VdW6>
-6.245

> <VdW12>
6.600

> <Bond>
0.149

> <Angle>
3.168

> <Pdih>
4.840

> <Idih>
0.011

> <Tether>
0.000

$$$$
VeraChem MOL file


 16 15  0  0  0  0  0  0  0  0999 V2000     
   18.5879   20.6352   22.3324 C   0  0  0  0  0  0  0  0  0  0  0  0
   17.8460   20.4747   23.2817 O   0  5  0  0  0  0  0  0  0  0  0  0
   18.1964   20.9296   21.2203 O   0  0  0  0  0  0  0  0  0  0  0  0
   20.0950   20.5516   22.5677 C   0  0  0  0  0  0  0  0  0  0  0  0
   20.3403   21.3450   23.2833 H   0  0  0  0  0  0  0  0  0  0  0  0
   20.6160   20.7990   21.6348 H   0  0  0  0  0  0  0  0  0  0  0  0
   20.6061   19.1934   23.1253 C   0  0  0  0  0  0  0  0  0  0  0  0
   21.5891   19.3639   23.5846 H   0  0  0  0  0  0  0  0  0  0  0  0
   19.9485   18.8501   23.9360 H   0  0  0  0  0  0  0  0  0  0  0  0
   20.7681   18.0782   22.0643 C   0  0  0  0  0  0  0  0  0  0  0  0
   21.2800   17.2258   22.5319 H   0  0  0  0  0  0  0  0  0  0  0  0
   21.4246   18.4259   21.2548 H   0  0  0  0  0  0  0  0  0  0  0  0
   19.4327   17.5815   21.4725 C   0  0  0  0  0  0  0  0  0  0  0  0
   19.5982   16.7027   20.8359 H   0  0  0  0  0  0  0  0  0  0  0  0
   18.9589   18.3526   20.8530 H   0  0  0  0  0  0  0  0  0  0  0  0
   18.7306   17.2976   22.2673 H   0  0  0  0  0  0  0  0  0  0  0  0
  1  2  1  0  0  0  0
  1  3  2  0  0  0  0
  1  4  1  0  0  0  0
  4  5  1  0  0  0  0
  4  6  1  0  0  0  0
  4  7  1  0  0  0  0
  7  8  1  0  0  0  0
  7  9  1  0  0  0  0
  7 10  1  0  0  0  0
 10 11  1  0  0  0  0
 10 12  1  0  0  0  0
 10 13  1  0  0  0  0
 13 14  1  0  0  0  0
 13 15  1  0  0  0  0
 13 16  1  0  0  0  0
M  END
> <VConfSearch Rank>
850

> <Conf_Id>
45

> <Delta U+W>
2.303

> <U+W>
-54.601

> <U>
11.258

> <W>
-65.860

> <W(PB)>
-67.709

> <W(SA)>
1.849

> <Valence>
8.169

> <Coulomb>
2.735

> <VdW>
0.355

> <VdW6>
-6.245

> <VdW12>
6.600

> <Bond>
0.149

> <Angle>
3.168

> <Pdih>
4.840

> <Idih>
0.011

> <Tether>
0.000

$$$$
VeraChem MOL file


 16 15  0  0  0  0  0  0  0  0999 V2000     
   20.5339   21.5072   20.6502 C   0  0  0  0  0  0  0  0  0  0  0  0
   19.9439   22.1878   21.4666 O   0  5  0  0  0  0  0  0  0  0  0  0
   21.0923   21.9746   19.6781 O   0  0  0  0  0  0  0  0  0  0  0  0
   20.5937   19.9890   20.8271 C   0  0  0  0  0  0  0  0  0  0  0  0
   21.6521   19.7046   20.8585 H   0  0  0  0  0  0  0  0  0  0  0  0
   20.1669   19.5373   19.9237 H   0  0  0  0  0  0  0  0  0  0  0  0
   19.8659   19.4378   22.0820 C   0  0  0  0  0  0  0  0  0  0  0  0
   20.2940   19.8980   22.9833 H   0  0  0  0  0  0  0  0  0  0  0  0
   18.8073   19.7304   22.0476 H   0  0  0  0  0  0  0  0  0  0  0  0
   19.9768   17.9018   22.1808 C   0  0  0  0  0  0  0  0  0  0  0  0
   21.0350   17.6079   22.2171 H   0  0  0  0  0  0  0  0  0  0  0  0
   19.5474   17.4402   21.2808 H   0  0  0  0  0  0  0  0  0  0  0  0
   19.2522   17.3604   23.4290 C   0  0  0  0  0  0  0  0  0  0  0  0
   19.6827   17.7821   24.3468 H   0  0  0  0  0  0  0  0  0  0  0  0
   19.3407   16.2676   23.4841 H   0  0  0  0  0  0  0  0  0  0  0  0
   18.1841   17.6133   23.4037 H   0  0  0  0  0  0  0  0  0  0  0  0
  1  2  1  0  0  0  0
  1  3  2  0  0  0  0
  1  4  1  0  0  0  0
  4  5  1  0  0  0  0
  4  6  1  0  0  0  0
  4  7  1  0  0  0  0
  7  8  1  0  0  0  0
  7  9  1  0  0  0  0
  7 10  1  0  0  0  0
 10 11  1  0  0  0  0
 10 12  1  0  0  0  0
 10 13  1  0  0  0  0
 13 14  1  0  0  0  0
 13 15  1  0  0  0  0
 13 16  1  0  0  0  0
M  END
> <VConfSearch Rank>
851

> <Conf_Id>
0

> <Delta U+W>
0.000

> <U+W>
-56.904

> <U>
7.329

> <W>
-64.233

> <W(PB)>
-66.148

> <W(SA)>
1.915

> <Valence>
6.755

> <Coulomb>
-0.421

> <VdW>
0.995

> <VdW6>
-4.495

> <VdW12>
5.490

> <Bond>
0.106

> <Angle>
2.715

> <Pdih>
3.934

> <Idih>
0.000

> <Tether>
0.000

$$$$
VeraChem MOL file


 16 15  0  0  0  0  0  0  0  0999 V2000     
   19.2433   16.7845   23.1126 C   0  0  0  0  0  0  0  0  0  0  0  0
   18.3764   16.9057   23.9550 O   0  5  0  0  0  0  0  0  0  0  0  0
   19.3695   15.7977   22.4154 O   0  0  0  0  0  0  0  0  0  0  0  0
   20.2147   17.9414   22.9065 C   0  0  0  0  0  0  0  0  0  0  0  0
   21.1828   17.5242   22.6038 H   0  0  0  0  0  0  0  0  0  0  0  0
   20.3640   18.4377   23.8731 H   0  0  0  0  0  0  0  0  0  0  0  0
   19.7207   18.9629   21.8527 C   0  0  0  0  0  0  0  0  0  0  0  0
   19.5642   18.4487   20.8942 H   0  0  0  0  0  0  0  0  0  0  0  0
   18.7453   19.3622   22.1635 H   0  0  0  0  0  0  0  0  0  0  0  0
   20.7211   20.1222   21.6636 C   0  0  0  0  0  0  0  0  0  0  0  0
   21.6965   19.7233   21.3521 H   0  0  0  0  0  0  0  0  0  0  0  0
   20.8774   20.6371   22.6218 H   0  0  0  0  0  0  0  0  0  0  0  0
   20.2229   21.1347   20.6136 C   0  0  0  0  0  0  0  0  0  0  0  0
   19.2627   21.5733   20.9154 H   0  0  0  0  0  0  0  0  0  0  0  0
   20.0878   20.6528   19.6363 H   0  0  0  0  0  0  0  0  0  0  0  0
   20.9454   21.9522   20.4913 H   0  0  0  0  0  0  0  0  0  0  0  0
  1  2  1  0  0  0  0
  1  3  2  0  0  0  0
  1  4  1  0  0  0  0
  4  5  1  0  0  0  0
  4  6  1  0  0  0  0
  4  7  1  0  0  0  0
  7  8  1  0  0  0  0
  7  9  1  0  0  0  0
  7 10  1  0  0  0  0
 10 11  1  0  0  0  0
 10 12  1  0  0  0  0
 10 13  1  0  0  0  0
 13 14  1  0  0  0  0
 13 15  1  0  0  0  0
 13 16  1  0  0  0  0
M  END
> <VConfSearch Rank>
852

> <Conf_Id>
22

> <Delta U+W>
-1.185

> <U+W>
-58.089

> <U>
6.298

> <W>
-64.387

> <W(PB)>
-66.329

> <W(SA)>
1.942

> <Valence>
6.246

> <Coulomb>
-0.408

> <VdW>
0.460

> <VdW6>
-4.207

> <VdW12>
4.667

> <Bond>
0.072

> <Angle>
2.246

> <Pdih>
3.928

> <Idih>
0.001

> <Tether>
0.000

$$$$
VeraChem MOL file


 16 15  0  0  0  0  0  0  0  0999 V2000     
   19.7660   17.1944   20.2999 C   0  0  0  0  0  0  0  0  0  0  0  0
   20.3788   16.1539   20.4335 O   0  5  0  0  0  0  0  0  0  0  0  0
   19.3142   17.5761   19.2387 O   0  0  0  0  0  0  0  0  0  0  0  0
   19.5711   18.0783   21.5268 C   0  0  0  0  0  0  0  0  0  0  0  0
   19.4944   17.4279   22.4064 H   0  0  0  0  0  0  0  0  0  0  0  0
   18.6098   18.5934   21.4185 H   0  0  0  0  0  0  0  0  0  0  0  0
   20.7197   19.1026   21.7183 C   0  0  0  0  0  0  0  0  0  0  0  0
   21.6760   18.5616   21.7360 H   0  0  0  0  0  0  0  0  0  0  0  0
   20.7593   19.7754   20.8505 H   0  0  0  0  0  0  0  0  0  0  0  0
   20.5942   19.9321   23.0170 C   0  0  0  0  0  0  0  0  0  0  0  0
   21.4963   20.5492   23.1303 H   0  0  0  0  0  0  0  0  0  0  0  0
   20.5664   19.2600   23.8857 H   0  0  0  0  0  0  0  0  0  0  0  0
   19.3557   20.8534   23.0335 C   0  0  0  0  0  0  0  0  0  0  0  0
   18.4245   20.2731   23.0365 H   0  0  0  0  0  0  0  0  0  0  0  0
   19.3468   21.5155   22.1578 H   0  0  0  0  0  0  0  0  0  0  0  0
   19.3577   21.4827   23.9329 H   0  0  0  0  0  0  0  0  0  0  0  0
  1  2  1  0  0  0  0
  1  3  2  0  0  0  0
  1  4  1  0  0  0  0
  4  5  1  0  0  0  0
  4  6  1  0  0  0  0
  4  7  1  0  0  0  0
  7  8  1  0  0  0  0
  7  9  1  0  0  0  0
  7 10  1  0  0  0  0
 10 11  1  0  0  0  0
 10 12  1  0  0  0  0
 10 13  1  0  0  0  0
 13 14  1  0  0  0  0
 13 15  1  0  0  0  0
 13 16  1  0  0  0  0
M  END
> <VConfSearch Rank>
853

> <Conf_Id>
36

> <Delta U+W>
-0.427

> <U+W>
-57.331

> <U>
7.263

> <W>
-64.594

> <W(PB)>
-66.513

> <W(SA)>
1.920

> <Valence>
6.734

> <Coulomb>
-0.068

> <VdW>
0.598

> <VdW6>
-4.819

> <VdW12>
5.417

> <Bond>
0.107

> <Angle>
2.469

> <Pdih>
4.157

> <Idih>
0.001

> <Tether>
0.000

$$$$
VeraChem MOL file


 16 15  0  0  0  0  0  0  0  0999 V2000     
   21.0688   16.9134   21.2721 C   0  0  0  0  0  0  0  0  0  0  0  0
   20.3323   16.2700   20.5513 O   0  5  0  0  0  0  0  0  0  0  0  0
   22.0117   16.4331   21.8691 O   0  0  0  0  0  0  0  0  0  0  0  0
   20.7829   18.4000   21.4534 C   0  0  0  0  0  0  0  0  0  0  0  0
   20.3605   18.7761   20.5147 H   0  0  0  0  0  0  0  0  0  0  0  0
   21.7389   18.9141   21.6091 H   0  0  0  0  0  0  0  0  0  0  0  0
   19.8228   18.6874   22.6369 C   0  0  0  0  0  0  0  0  0  0  0  0
   18.8546   18.2028   22.4495 H   0  0  0  0  0  0  0  0  0  0  0  0
   20.2322   18.2230   23.5447 H   0  0  0  0  0  0  0  0  0  0  0  0
   19.6090   20.1953   22.9035 C   0  0  0  0  0  0  0  0  0  0  0  0
   20.5759   20.6779   23.1025 H   0  0  0  0  0  0  0  0  0  0  0  0
   19.0102   20.3109   23.8175 H   0  0  0  0  0  0  0  0  0  0  0  0
   18.8943   20.9230   21.7448 C   0  0  0  0  0  0  0  0  0  0  0  0
   19.5097   20.9316   20.8365 H   0  0  0  0  0  0  0  0  0  0  0  0
   18.6883   21.9665   22.0163 H   0  0  0  0  0  0  0  0  0  0  0  0
   17.9372   20.4400   21.5085 H   0  0  0  0  0  0  0  0  0  0  0  0
  1  2  1  0  0  0  0
  1  3  2  0  0  0  0
  1  4  1  0  0  0  0
  4  5  1  0  0  0  0
  4  6  1  0  0  0  0
  4  7  1  0  0  0  0
  7  8  1  0  0  0  0
  7  9  1  0  0  0  0
  7 10  1  0  0  0  0
 10 11  1  0  0  0  0
 10 12  1  0  0  0  0
 10 13  1  0  0  0  0
 13 14  1  0  0  0  0
 13 15  1  0  0  0  0
 13 16  1  0  0  0  0
M  END
> <VConfSearch Rank>
854

> <Conf_Id>
17

> <Delta U+W>
-0.432

> <U+W>
-57.336

> <U>
7.263

> <W>
-64.599

> <W(PB)>
-66.503

> <W(SA)>
1.904

> <Valence>
6.734

> <Coulomb>
-0.068

> <VdW>
0.598

> <VdW6>
-4.819

> <VdW12>
5.417

> <Bond>
0.107

> <Angle>
2.469

> <Pdih>
4.157

> <Idih>
0.001

> <Tether>
0.000

$$$$
VeraChem MOL file


 16 15  0  0  0  0  0  0  0  0999 V2000     
   22.1409   18.4202   23.1274 C   0  0  0  0  0  0  0  0  0  0  0  0
   22.3605   18.9660   24.1905 O   0  5  0  0  0  0  0  0  0  0  0  0
   22.2013   17.2175   22.9654 O   0  0  0  0  0  0  0  0  0  0  0  0
   21.7943   19.2962   21.9266 C   0  0  0  0  0  0  0  0  0  0  0  0
   21.9693   18.7198   21.0100 H   0  0  0  0  0  0  0  0  0  0  0  0
   22.5031   20.1327   21.9151 H   0  0  0  0  0  0  0  0  0  0  0  0
   20.3447   19.8470   21.9435 C   0  0  0  0  0  0  0  0  0  0  0  0
   20.1751   20.3973   22.8794 H   0  0  0  0  0  0  0  0  0  0  0  0
   20.2290   20.5710   21.1256 H   0  0  0  0  0  0  0  0  0  0  0  0
   19.2849   18.7344   21.7916 C   0  0  0  0  0  0  0  0  0  0  0  0
   19.3778   18.0145   22.6167 H   0  0  0  0  0  0  0  0  0  0  0  0
   19.4632   18.1771   20.8615 H   0  0  0  0  0  0  0  0  0  0  0  0
   17.8556   19.3119   21.7775 C   0  0  0  0  0  0  0  0  0  0  0  0
   17.6401   19.8488   22.7107 H   0  0  0  0  0  0  0  0  0  0  0  0
   17.1152   18.5086   21.6699 H   0  0  0  0  0  0  0  0  0  0  0  0
   17.7221   20.0103   20.9410 H   0  0  0  0  0  0  0  0  0  0  0  0
  1  2  1  0  0  0  0
  1  3  2  0  0  0  0
  1  4  1  0  0  0  0
  4  5  1  0  0  0  0
  4  6  1  0  0  0  0
  4  7  1  0  0  0  0
  7  8  1  0  0  0  0
  7  9  1  0  0  0  0
  7 10  1  0  0  0  0
 10 11  1  0  0  0  0
 10 12  1  0  0  0  0
 10 13  1  0  0  0  0
 13 14  1  0  0  0  0
 13 15  1  0  0  0  0
 13 16  1  0  0  0  0
M  END
> <VConfSearch Rank>
855

> <Conf_Id>
19

> <Delta U+W>
0.048

> <U+W>
-56.856

> <U>
8.276

> <W>
-65.132

> <W(PB)>
-67.031

> <W(SA)>
1.899

> <Valence>
6.513

> <Coulomb>
1.428

> <VdW>
0.335

> <VdW6>
-5.021

> <VdW12>
5.356

> <Bond>
0.092

> <Angle>
2.417

> <Pdih>
4.003

> <Idih>
0.001

> <Tether>
0.000

$$$$
VeraChem MOL file


 16 15  0  0  0  0  0  0  0  0999 V2000     
   17.6365   18.9924   22.8732 C   0  0  0  0  0  0  0  0  0  0  0  0
   17.0198   18.0646   22.3882 O   0  5  0  0  0  0  0  0  0  0  0  0
   17.2058   20.1270   22.9314 O   0  0  0  0  0  0  0  0  0  0  0  0
   19.0164   18.7104   23.4613 C   0  0  0  0  0  0  0  0  0  0  0  0
   18.9348   17.8008   24.0681 H   0  0  0  0  0  0  0  0  0  0  0  0
   19.2789   19.5259   24.1461 H   0  0  0  0  0  0  0  0  0  0  0  0
   20.1305   18.5247   22.3986 C   0  0  0  0  0  0  0  0  0  0  0  0
   21.0491   18.1908   22.8999 H   0  0  0  0  0  0  0  0  0  0  0  0
   19.8408   17.7246   21.7033 H   0  0  0  0  0  0  0  0  0  0  0  0
   20.4227   19.8208   21.6118 C   0  0  0  0  0  0  0  0  0  0  0  0
   20.7001   20.6232   22.3093 H   0  0  0  0  0  0  0  0  0  0  0  0
   19.5151   20.1534   21.0891 H   0  0  0  0  0  0  0  0  0  0  0  0
   21.5559   19.6176   20.5867 C   0  0  0  0  0  0  0  0  0  0  0  0
   22.4873   19.3176   21.0846 H   0  0  0  0  0  0  0  0  0  0  0  0
   21.7502   20.5472   20.0360 H   0  0  0  0  0  0  0  0  0  0  0  0
   21.2909   18.8407   19.8576 H   0  0  0  0  0  0  0  0  0  0  0  0
  1  2  1  0  0  0  0
  1  3  2  0  0  0  0
  1  4  1  0  0  0  0
  4  5  1  0  0  0  0
  4  6  1  0  0  0  0
  4  7  1  0  0  0  0
  7  8  1  0  0  0  0
  7  9  1  0  0  0  0
  7 10  1  0  0  0  0
 10 11  1  0  0  0  0
 10 12  1  0  0  0  0
 10 13  1  0  0  0  0
 13 14  1  0  0  0  0
 13 15  1  0  0  0  0
 13 16  1  0  0  0  0
M  END
> <VConfSearch Rank>
856

> <Conf_Id>
20

> <Delta U+W>
-0.010

> <U+W>
-56.914

> <U>
8.277

> <W>
-65.191

> <W(PB)>
-67.081

> <W(SA)>
1.890

> <Valence>
6.513

> <Coulomb>
1.429

> <VdW>
0.335

> <VdW6>
-5.021

> <VdW12>
5.356

> <Bond>
0.092

> <Angle>
2.417

> <Pdih>
4.002

> <Idih>
0.001

> <Tether>
0.000

$$$$
VeraChem MOL file


 16 15  0  0  0  0  0  0  0  0999 V2000     
   20.2436   17.1042   22.6628 C   0  0  0  0  0  0  0  0  0  0  0  0
   19.4829   16.2008   22.3763 O   0  5  0  0  0  0  0  0  0  0  0  0
   20.7544   17.2282   23.7583 O   0  0  0  0  0  0  0  0  0  0  0  0
   20.6013   18.1156   21.5770 C   0  0  0  0  0  0  0  0  0  0  0  0
   20.9068   17.5472   20.6907 H   0  0  0  0  0  0  0  0  0  0  0  0
   21.4817   18.6825   21.9004 H   0  0  0  0  0  0  0  0  0  0  0  0
   19.4415   19.0758   21.1955 C   0  0  0  0  0  0  0  0  0  0  0  0
   19.7602   19.7103   20.3575 H   0  0  0  0  0  0  0  0  0  0  0  0
   18.5964   18.4788   20.8257 H   0  0  0  0  0  0  0  0  0  0  0  0
   18.9493   19.9739   22.3553 C   0  0  0  0  0  0  0  0  0  0  0  0
   18.5948   19.3499   23.1875 H   0  0  0  0  0  0  0  0  0  0  0  0
   18.0807   20.5511   22.0099 H   0  0  0  0  0  0  0  0  0  0  0  0
   20.0271   20.9536   22.8661 C   0  0  0  0  0  0  0  0  0  0  0  0
   20.8627   20.4176   23.3341 H   0  0  0  0  0  0  0  0  0  0  0  0
   19.6040   21.6306   23.6195 H   0  0  0  0  0  0  0  0  0  0  0  0
   20.4241   21.5656   22.0457 H   0  0  0  0  0  0  0  0  0  0  0  0
  1  2  1  0  0  0  0
  1  3  2  0  0  0  0
  1  4  1  0  0  0  0
  4  5  1  0  0  0  0
  4  6  1  0  0  0  0
  4  7  1  0  0  0  0
  7  8  1  0  0  0  0
  7  9  1  0  0  0  0
  7 10  1  0  0  0  0
 10 11  1  0  0  0  0
 10 12  1  0  0  0  0
 10 13  1  0  0  0  0
 13 14  1  0  0  0  0
 13 15  1  0  0  0  0
 13 16  1  0  0  0  0
M  END
> <VConfSearch Rank>
857

> <Conf_Id>
37

> <Delta U+W>
1.063

> <U+W>
-55.841

> <U>
9.719

> <W>
-65.560

> <W(PB)>
-67.414

> <W(SA)>
1.854

> <Valence>
7.002

> <Coulomb>
2.402

> <VdW>
0.314

> <VdW6>
-5.861

> <VdW12>
6.175

> <Bond>
0.134

> <Angle>
2.733

> <Pdih>
4.133

> <Idih>
0.002

> <Tether>
0.000

$$$$
VeraChem MOL file


 16 15  0  0  0  0  0  0  0  0999 V2000     
   18.5334   17.7447   21.8416 C   0  0  0  0  0  0  0  0  0  0  0  0
   18.2561   16.8522   22.6183 O   0  5  0  0  0  0  0  0  0  0  0  0
   17.7046   18.4775   21.3392 O   0  0  0  0  0  0  0  0  0  0  0  0
   19.9973   17.9304   21.4515 C   0  0  0  0  0  0  0  0  0  0  0  0
   20.0463   18.5695   20.5625 H   0  0  0  0  0  0  0  0  0  0  0  0
   20.3806   16.9488   21.1491 H   0  0  0  0  0  0  0  0  0  0  0  0
   20.8904   18.5019   22.5866 C   0  0  0  0  0  0  0  0  0  0  0  0
   20.8610   17.8108   23.4403 H   0  0  0  0  0  0  0  0  0  0  0  0
   21.9343   18.5261   22.2459 H   0  0  0  0  0  0  0  0  0  0  0  0
   20.4805   19.9129   23.0714 C   0  0  0  0  0  0  0  0  0  0  0  0
   21.1153   20.1908   23.9240 H   0  0  0  0  0  0  0  0  0  0  0  0
   19.4482   19.8943   23.4477 H   0  0  0  0  0  0  0  0  0  0  0  0
   20.6132   20.9945   21.9783 C   0  0  0  0  0  0  0  0  0  0  0  0
   21.6281   21.0097   21.5601 H   0  0  0  0  0  0  0  0  0  0  0  0
   20.4035   21.9883   22.3946 H   0  0  0  0  0  0  0  0  0  0  0  0
   19.9035   20.8218   21.1592 H   0  0  0  0  0  0  0  0  0  0  0  0
  1  2  1  0  0  0  0
  1  3  2  0  0  0  0
  1  4  1  0  0  0  0
  4  5  1  0  0  0  0
  4  6  1  0  0  0  0
  4  7  1  0  0  0  0
  7  8  1  0  0  0  0
  7  9  1  0  0  0  0
  7 10  1  0  0  0  0
 10 11  1  0  0  0  0
 10 12  1  0  0  0  0
 10 13  1  0  0  0  0
 13 14  1  0  0  0  0
 13 15  1  0  0  0  0
 13 16  1  0  0  0  0
M  END
> <VConfSearch Rank>
858

> <Conf_Id>
39

> <Delta U+W>
1.129

> <U+W>
-55.775

> <U>
9.718

> <W>
-65.493

> <W(PB)>
-67.361

> <W(SA)>
1.869

> <Valence>
7.002

> <Coulomb>
2.402

> <VdW>
0.314

> <VdW6>
-5.861

> <VdW12>
6.175

> <Bond>
0.134

> <Angle>
2.734

> <Pdih>
4.133

> <Idih>
0.002

> <Tether>
0.000

$$$$
VeraChem MOL file


 16 15  0  0  0  0  0  0  0  0999 V2000     
   19.1921   20.2203   23.7467 C   0  0  0  0  0  0  0  0  0  0  0  0
   18.3577   19.6258   24.4003 O   0  5  0  0  0  0  0  0  0  0  0  0
   19.0311   21.3483   23.3240 O   0  0  0  0  0  0  0  0  0  0  0  0
   20.5457   19.5483   23.5231 C   0  0  0  0  0  0  0  0  0  0  0  0
   20.5506   18.5773   24.0330 H   0  0  0  0  0  0  0  0  0  0  0  0
   21.2886   20.1733   24.0323 H   0  0  0  0  0  0  0  0  0  0  0  0
   20.9648   19.3769   22.0358 C   0  0  0  0  0  0  0  0  0  0  0  0
   20.7631   20.3036   21.4807 H   0  0  0  0  0  0  0  0  0  0  0  0
   22.0537   19.2363   22.0045 H   0  0  0  0  0  0  0  0  0  0  0  0
   20.3126   18.1728   21.3144 C   0  0  0  0  0  0  0  0  0  0  0  0
   20.5149   17.2488   21.8735 H   0  0  0  0  0  0  0  0  0  0  0  0
   20.7949   18.0522   20.3346 H   0  0  0  0  0  0  0  0  0  0  0  0
   18.7930   18.3250   21.0957 C   0  0  0  0  0  0  0  0  0  0  0  0
   18.2466   18.2839   22.0459 H   0  0  0  0  0  0  0  0  0  0  0  0
   18.4132   17.5136   20.4615 H   0  0  0  0  0  0  0  0  0  0  0  0
   18.5590   19.2782   20.6038 H   0  0  0  0  0  0  0  0  0  0  0  0
  1  2  1  0  0  0  0
  1  3  2  0  0  0  0
  1  4  1  0  0  0  0
  4  5  1  0  0  0  0
  4  6  1  0  0  0  0
  4  7  1  0  0  0  0
  7  8  1  0  0  0  0
  7  9  1  0  0  0  0
  7 10  1  0  0  0  0
 10 11  1  0  0  0  0
 10 12  1  0  0  0  0
 10 13  1  0  0  0  0
 13 14  1  0  0  0  0
 13 15  1  0  0  0  0
 13 16  1  0  0  0  0
M  END
> <VConfSearch Rank>
859

> <Conf_Id>
47

> <Delta U+W>
2.301

> <U+W>
-54.603

> <U>
11.258

> <W>
-65.861

> <W(PB)>
-67.702

> <W(SA)>
1.841

> <Valence>
8.169

> <Coulomb>
2.735

> <VdW>
0.355

> <VdW6>
-6.245

> <VdW12>
6.600

> <Bond>
0.149

> <Angle>
3.168

> <Pdih>
4.840

> <Idih>
0.011

> <Tether>
0.000

$$$$
VeraChem MOL file


 16 15  0  0  0  0  0  0  0  0999 V2000     
   21.2947   18.3588   23.4487 C   0  0  0  0  0  0  0  0  0  0  0  0
   20.8109   17.4635   24.1132 O   0  5  0  0  0  0  0  0  0  0  0  0
   21.9902   19.2383   23.9173 O   0  0  0  0  0  0  0  0  0  0  0  0
   21.0941   18.3278   21.9346 C   0  0  0  0  0  0  0  0  0  0  0  0
   21.5589   17.4004   21.5804 H   0  0  0  0  0  0  0  0  0  0  0  0
   21.6578   19.1532   21.4830 H   0  0  0  0  0  0  0  0  0  0  0  0
   19.6142   18.3640   21.4597 C   0  0  0  0  0  0  0  0  0  0  0  0
   19.5786   17.9784   20.4318 H   0  0  0  0  0  0  0  0  0  0  0  0
   19.0101   17.6726   22.0635 H   0  0  0  0  0  0  0  0  0  0  0  0
   18.9692   19.7709   21.4584 C   0  0  0  0  0  0  0  0  0  0  0  0
   17.9923   19.7047   20.9599 H   0  0  0  0  0  0  0  0  0  0  0  0
   19.5770   20.4594   20.8553 H   0  0  0  0  0  0  0  0  0  0  0  0
   18.7596   20.3624   22.8678 C   0  0  0  0  0  0  0  0  0  0  0  0
   18.1764   21.2905   22.8119 H   0  0  0  0  0  0  0  0  0  0  0  0
   19.7167   20.6029   23.3465 H   0  0  0  0  0  0  0  0  0  0  0  0
   18.2175   19.6593   23.5138 H   0  0  0  0  0  0  0  0  0  0  0  0
  1  2  1  0  0  0  0
  1  3  2  0  0  0  0
  1  4  1  0  0  0  0
  4  5  1  0  0  0  0
  4  6  1  0  0  0  0
  4  7  1  0  0  0  0
  7  8  1  0  0  0  0
  7  9  1  0  0  0  0
  7 10  1  0  0  0  0
 10 11  1  0  0  0  0
 10 12  1  0  0  0  0
 10 13  1  0  0  0  0
 13 14  1  0  0  0  0
 13 15  1  0  0  0  0
 13 16  1  0  0  0  0
M  END
> <VConfSearch Rank>
860

> <Conf_Id>
45

> <Delta U+W>
2.303

> <U+W>
-54.601

> <U>
11.258

> <W>
-65.860

> <W(PB)>
-67.709

> <W(SA)>
1.849

> <Valence>
8.169

> <Coulomb>
2.735

> <VdW>
0.355

> <VdW6>
-6.245

> <VdW12>
6.600

> <Bond>
0.149

> <Angle>
3.168

> <Pdih>
4.840

> <Idih>
0.011

> <Tether>
0.000

$$$$
VeraChem MOL file


 16 15  0  0  0  0  0  0  0  0999 V2000     
   22.1223   19.9927   23.4594 C   0  0  0  0  0  0  0  0  0  0  0  0
   21.5922   21.0415   23.7704 O   0  5  0  0  0  0  0  0  0  0  0  0
   23.2325   19.6747   23.8357 O   0  0  0  0  0  0  0  0  0  0  0  0
   21.3830   19.0066   22.5533 C   0  0  0  0  0  0  0  0  0  0  0  0
   21.3125   18.0552   23.0937 H   0  0  0  0  0  0  0  0  0  0  0  0
   22.0162   18.8307   21.6756 H   0  0  0  0  0  0  0  0  0  0  0  0
   19.9693   19.4557   22.0974 C   0  0  0  0  0  0  0  0  0  0  0  0
   19.3412   19.6356   22.9809 H   0  0  0  0  0  0  0  0  0  0  0  0
   20.0456   20.4119   21.5614 H   0  0  0  0  0  0  0  0  0  0  0  0
   19.2984   18.4038   21.1892 C   0  0  0  0  0  0  0  0  0  0  0  0
   19.2199   17.4475   21.7247 H   0  0  0  0  0  0  0  0  0  0  0  0
   19.9247   18.2242   20.3043 H   0  0  0  0  0  0  0  0  0  0  0  0
   17.8948   18.8556   20.7397 C   0  0  0  0  0  0  0  0  0  0  0  0
   17.2371   19.0125   21.6047 H   0  0  0  0  0  0  0  0  0  0  0  0
   17.4322   18.0968   20.0952 H   0  0  0  0  0  0  0  0  0  0  0  0
   17.9471   19.7950   20.1738 H   0  0  0  0  0  0  0  0  0  0  0  0
  1  2  1  0  0  0  0
  1  3  2  0  0  0  0
  1  4  1  0  0  0  0
  4  5  1  0  0  0  0
  4  6  1  0  0  0  0
  4  7  1  0  0  0  0
  7  8  1  0  0  0  0
  7  9  1  0  0  0  0
  7 10  1  0  0  0  0
 10 11  1  0  0  0  0
 10 12  1  0  0  0  0
 10 13  1  0  0  0  0
 13 14  1  0  0  0  0
 13 15  1  0  0  0  0
 13 16  1  0  0  0  0
M  END
> <VConfSearch Rank>
861

> <Conf_Id>
0

> <Delta U+W>
0.000

> <U+W>
-56.904

> <U>
7.329

> <W>
-64.233

> <W(PB)>
-66.148

> <W(SA)>
1.915

> <Valence>
6.755

> <Coulomb>
-0.421

> <VdW>
0.995

> <VdW6>
-4.495

> <VdW12>
5.490

> <Bond>
0.106

> <Angle>
2.715

> <Pdih>
3.934

> <Idih>
0.000

> <Tether>
0.000

$$$$
VeraChem MOL file


 16 15  0  0  0  0  0  0  0  0999 V2000     
   22.2548   17.7103   22.6868 C   0  0  0  0  0  0  0  0  0  0  0  0
   22.7370   18.0438   23.7508 O   0  5  0  0  0  0  0  0  0  0  0  0
   22.3071   16.5776   22.2509 O   0  0  0  0  0  0  0  0  0  0  0  0
   21.5286   18.7671   21.8619 C   0  0  0  0  0  0  0  0  0  0  0  0
   21.6636   18.5239   20.8010 H   0  0  0  0  0  0  0  0  0  0  0  0
   22.0180   19.7327   22.0377 H   0  0  0  0  0  0  0  0  0  0  0  0
   20.0204   18.8638   22.1996 C   0  0  0  0  0  0  0  0  0  0  0  0
   19.5471   17.8866   22.0304 H   0  0  0  0  0  0  0  0  0  0  0  0
   19.9015   19.0954   23.2672 H   0  0  0  0  0  0  0  0  0  0  0  0
   19.3100   19.9395   21.3518 C   0  0  0  0  0  0  0  0  0  0  0  0
   19.4280   19.7079   20.2841 H   0  0  0  0  0  0  0  0  0  0  0  0
   19.7826   20.9170   21.5212 H   0  0  0  0  0  0  0  0  0  0  0  0
   17.8095   20.0302   21.6932 C   0  0  0  0  0  0  0  0  0  0  0  0
   17.6621   20.2918   22.7493 H   0  0  0  0  0  0  0  0  0  0  0  0
   17.3050   19.0738   21.5031 H   0  0  0  0  0  0  0  0  0  0  0  0
   17.3196   20.7992   21.0819 H   0  0  0  0  0  0  0  0  0  0  0  0
  1  2  1  0  0  0  0
  1  3  2  0  0  0  0
  1  4  1  0  0  0  0
  4  5  1  0  0  0  0
  4  6  1  0  0  0  0
  4  7  1  0  0  0  0
  7  8  1  0  0  0  0
  7  9  1  0  0  0  0
  7 10  1  0  0  0  0
 10 11  1  0  0  0  0
 10 12  1  0  0  0  0
 10 13  1  0  0  0  0
 13 14  1  0  0  0  0
 13 15  1  0  0  0  0
 13 16  1  0  0  0  0
M  END
> <VConfSearch Rank>
862

> <Conf_Id>
22

> <Delta U+W>
-1.185

> <U+W>
-58.089

> <U>
6.298

> <W>
-64.387

> <W(PB)>
-66.329

> <W(SA)>
1.942

> <Valence>
6.246

> <Coulomb>
-0.408

> <VdW>
0.460

> <VdW6>
-4.207

> <VdW12>
4.667

> <Bond>
0.072

> <Angle>
2.246

> <Pdih>
3.928

> <Idih>
0.001

> <Tether>
0.000

$$$$
VeraChem MOL file


 16 15  0  0  0  0  0  0  0  0999 V2000     
   21.4615   21.2569   21.9650 C   0  0  0  0  0  0  0  0  0  0  0  0
   22.6661   21.1982   21.8189 O   0  5  0  0  0  0  0  0  0  0  0  0
   20.8913   22.2054   22.4661 O   0  0  0  0  0  0  0  0  0  0  0  0
   20.6221   20.0669   21.5135 C   0  0  0  0  0  0  0  0  0  0  0  0
   21.1150   19.6123   20.6457 H   0  0  0  0  0  0  0  0  0  0  0  0
   19.6536   20.4507   21.1732 H   0  0  0  0  0  0  0  0  0  0  0  0
   20.4272   19.0100   22.6315 C   0  0  0  0  0  0  0  0  0  0  0  0
   21.4142   18.7103   23.0102 H   0  0  0  0  0  0  0  0  0  0  0  0
   19.8949   19.4657   23.4779 H   0  0  0  0  0  0  0  0  0  0  0  0
   19.6719   17.7464   22.1589 C   0  0  0  0  0  0  0  0  0  0  0  0
   19.6732   17.0089   22.9734 H   0  0  0  0  0  0  0  0  0  0  0  0
   20.2104   17.2839   21.3201 H   0  0  0  0  0  0  0  0  0  0  0  0
   18.2116   18.0290   21.7458 C   0  0  0  0  0  0  0  0  0  0  0  0
   18.1634   18.6746   20.8599 H   0  0  0  0  0  0  0  0  0  0  0  0
   17.6607   18.5183   22.5596 H   0  0  0  0  0  0  0  0  0  0  0  0
   17.6937   17.0922   21.5026 H   0  0  0  0  0  0  0  0  0  0  0  0
  1  2  1  0  0  0  0
  1  3  2  0  0  0  0
  1  4  1  0  0  0  0
  4  5  1  0  0  0  0
  4  6  1  0  0  0  0
  4  7  1  0  0  0  0
  7  8  1  0  0  0  0
  7  9  1  0  0  0  0
  7 10  1  0  0  0  0
 10 11  1  0  0  0  0
 10 12  1  0  0  0  0
 10 13  1  0  0  0  0
 13 14  1  0  0  0  0
 13 15  1  0  0  0  0
 13 16  1  0  0  0  0
M  END
> <VConfSearch Rank>
863

> <Conf_Id>
36

> <Delta U+W>
-0.427

> <U+W>
-57.331

> <U>
7.263

> <W>
-64.594

> <W(PB)>
-66.513

> <W(SA)>
1.920

> <Valence>
6.734

> <Coulomb>
-0.068

> <VdW>
0.598

> <VdW6>
-4.819

> <VdW12>
5.417

> <Bond>
0.107

> <Angle>
2.469

> <Pdih>
4.157

> <Idih>
0.001

> <Tether>
0.000

$$$$
VeraChem MOL file


 16 15  0  0  0  0  0  0  0  0999 V2000     
   22.1263   19.5908   20.6390 C   0  0  0  0  0  0  0  0  0  0  0  0
   22.1874   18.8773   19.6576 O   0  5  0  0  0  0  0  0  0  0  0  0
   23.0890   20.1537   21.1211 O   0  0  0  0  0  0  0  0  0  0  0  0
   20.7717   19.7740   21.3145 C   0  0  0  0  0  0  0  0  0  0  0  0
   20.0016   19.7339   20.5358 H   0  0  0  0  0  0  0  0  0  0  0  0
   20.7418   20.7798   21.7503 H   0  0  0  0  0  0  0  0  0  0  0  0
   20.4966   18.7095   22.4082 C   0  0  0  0  0  0  0  0  0  0  0  0
   20.4867   17.7097   21.9525 H   0  0  0  0  0  0  0  0  0  0  0  0
   21.3296   18.7160   23.1249 H   0  0  0  0  0  0  0  0  0  0  0  0
   19.1769   18.9454   23.1784 C   0  0  0  0  0  0  0  0  0  0  0  0
   19.1916   19.9405   23.6440 H   0  0  0  0  0  0  0  0  0  0  0  0
   19.1129   18.2188   24.0002 H   0  0  0  0  0  0  0  0  0  0  0  0
   17.9213   18.8056   22.2915 C   0  0  0  0  0  0  0  0  0  0  0  0
   17.8851   19.5867   21.5218 H   0  0  0  0  0  0  0  0  0  0  0  0
   17.0110   18.8951   22.8985 H   0  0  0  0  0  0  0  0  0  0  0  0
   17.8997   17.8281   21.7922 H   0  0  0  0  0  0  0  0  0  0  0  0
  1  2  1  0  0  0  0
  1  3  2  0  0  0  0
  1  4  1  0  0  0  0
  4  5  1  0  0  0  0
  4  6  1  0  0  0  0
  4  7  1  0  0  0  0
  7  8  1  0  0  0  0
  7  9  1  0  0  0  0
  7 10  1  0  0  0  0
 10 11  1  0  0  0  0
 10 12  1  0  0  0  0
 10 13  1  0  0  0  0
 13 14  1  0  0  0  0
 13 15  1  0  0  0  0
 13 16  1  0  0  0  0
M  END
> <VConfSearch Rank>
864

> <Conf_Id>
17

> <Delta U+W>
-0.432

> <U+W>
-57.336

> <U>
7.263

> <W>
-64.599

> <W(PB)>
-66.503

> <W(SA)>
1.904

> <Valence>
6.734

> <Coulomb>
-0.068

> <VdW>
0.598

> <VdW6>
-4.819

> <VdW12>
5.417

> <Bond>
0.107

> <Angle>
2.469

> <Pdih>
4.157

> <Idih>
0.001

> <Tether>
0.000

$$$$
VeraChem MOL file


 16 15  0  0  0  0  0  0  0  0999 V2000     
   21.2491   20.4366   23.7264 C   0  0  0  0  0  0  0  0  0  0  0  0
   20.8667   21.5889   23.7745 O   0  5  0  0  0  0  0  0  0  0  0  0
   21.3690   19.7278   24.7060 O   0  0  0  0  0  0  0  0  0  0  0  0
   21.6214   19.8580   22.3640 C   0  0  0  0  0  0  0  0  0  0  0  0
   22.2558   18.9767   22.5189 H   0  0  0  0  0  0  0  0  0  0  0  0
   22.2364   20.6044   21.8474 H   0  0  0  0  0  0  0  0  0  0  0  0
   20.4022   19.4904   21.4789 C   0  0  0  0  0  0  0  0  0  0  0  0
   19.7614   20.3747   21.3562 H   0  0  0  0  0  0  0  0  0  0  0  0
   20.7589   19.2169   20.4766 H   0  0  0  0  0  0  0  0  0  0  0  0
   19.5763   18.3229   22.0609 C   0  0  0  0  0  0  0  0  0  0  0  0
   19.1966   18.5932   23.0561 H   0  0  0  0  0  0  0  0  0  0  0  0
   20.2211   17.4432   22.1946 H   0  0  0  0  0  0  0  0  0  0  0  0
   18.3914   17.9559   21.1457 C   0  0  0  0  0  0  0  0  0  0  0  0
   17.7133   18.8102   21.0200 H   0  0  0  0  0  0  0  0  0  0  0  0
   17.8147   17.1257   21.5739 H   0  0  0  0  0  0  0  0  0  0  0  0
   18.7428   17.6476   20.1522 H   0  0  0  0  0  0  0  0  0  0  0  0
  1  2  1  0  0  0  0
  1  3  2  0  0  0  0
  1  4  1  0  0  0  0
  4  5  1  0  0  0  0
  4  6  1  0  0  0  0
  4  7  1  0  0  0  0
  7  8  1  0  0  0  0
  7  9  1  0  0  0  0
  7 10  1  0  0  0  0
 10 11  1  0  0  0  0
 10 12  1  0  0  0  0
 10 13  1  0  0  0  0
 13 14  1  0  0  0  0
 13 15  1  0  0  0  0
 13 16  1  0  0  0  0
M  END
> <VConfSearch Rank>
865

> <Conf_Id>
19

> <Delta U+W>
0.048

> <U+W>
-56.856

> <U>
8.276

> <W>
-65.132

> <W(PB)>
-67.031

> <W(SA)>
1.899

> <Valence>
6.513

> <Coulomb>
1.428

> <VdW>
0.335

> <VdW6>
-5.021

> <VdW12>
5.356

> <Bond>
0.092

> <Angle>
2.417

> <Pdih>
4.003

> <Idih>
0.001

> <Tether>
0.000

$$$$
VeraChem MOL file


 16 15  0  0  0  0  0  0  0  0999 V2000     
   17.7820   18.4836   22.9900 C   0  0  0  0  0  0  0  0  0  0  0  0
   17.5428   17.3036   22.8269 O   0  5  0  0  0  0  0  0  0  0  0  0
   16.9920   19.3703   22.7332 O   0  0  0  0  0  0  0  0  0  0  0  0
   19.1398   18.8692   23.5708 C   0  0  0  0  0  0  0  0  0  0  0  0
   19.3342   18.2040   24.4204 H   0  0  0  0  0  0  0  0  0  0  0  0
   19.0724   19.8871   23.9739 H   0  0  0  0  0  0  0  0  0  0  0  0
   20.3109   18.7712   22.5589 C   0  0  0  0  0  0  0  0  0  0  0  0
   21.2577   18.9289   23.0932 H   0  0  0  0  0  0  0  0  0  0  0  0
   20.3483   17.7549   22.1425 H   0  0  0  0  0  0  0  0  0  0  0  0
   20.1949   19.8013   21.4145 C   0  0  0  0  0  0  0  0  0  0  0  0
   20.1452   20.8161   21.8330 H   0  0  0  0  0  0  0  0  0  0  0  0
   19.2601   19.6398   20.8596 H   0  0  0  0  0  0  0  0  0  0  0  0
   21.3877   19.7049   20.4428 C   0  0  0  0  0  0  0  0  0  0  0  0
   22.3352   19.8964   20.9633 H   0  0  0  0  0  0  0  0  0  0  0  0
   21.2893   20.4425   19.6357 H   0  0  0  0  0  0  0  0  0  0  0  0
   21.4423   18.7080   19.9862 H   0  0  0  0  0  0  0  0  0  0  0  0
  1  2  1  0  0  0  0
  1  3  2  0  0  0  0
  1  4  1  0  0  0  0
  4  5  1  0  0  0  0
  4  6  1  0  0  0  0
  4  7  1  0  0  0  0
  7  8  1  0  0  0  0
  7  9  1  0  0  0  0
  7 10  1  0  0  0  0
 10 11  1  0  0  0  0
 10 12  1  0  0  0  0
 10 13  1  0  0  0  0
 13 14  1  0  0  0  0
 13 15  1  0  0  0  0
 13 16  1  0  0  0  0
M  END
> <VConfSearch Rank>
866

> <Conf_Id>
20

> <Delta U+W>
-0.010

> <U+W>
-56.914

> <U>
8.277

> <W>
-65.191

> <W(PB)>
-67.081

> <W(SA)>
1.890

> <Valence>
6.513

> <Coulomb>
1.429

> <VdW>
0.335

> <VdW6>
-5.021

> <VdW12>
5.356

> <Bond>
0.092

> <Angle>
2.417

> <Pdih>
4.002

> <Idih>
0.001

> <Tether>
0.000

$$$$
VeraChem MOL file


 16 15  0  0  0  0  0  0  0  0999 V2000     
   21.3809   17.6404   22.1509 C   0  0  0  0  0  0  0  0  0  0  0  0
   21.4456   16.7539   22.9797 O   0  5  0  0  0  0  0  0  0  0  0  0
   22.3412   18.2907   21.7888 O   0  0  0  0  0  0  0  0  0  0  0  0
   20.0267   17.9268   21.5077 C   0  0  0  0  0  0  0  0  0  0  0  0
   19.6223   16.9689   21.1602 H   0  0  0  0  0  0  0  0  0  0  0  0
   20.1846   18.5396   20.6129 H   0  0  0  0  0  0  0  0  0  0  0  0
   19.0007   18.6013   22.4591 C   0  0  0  0  0  0  0  0  0  0  0  0
   18.0369   18.6956   21.9408 H   0  0  0  0  0  0  0  0  0  0  0  0
   18.8254   17.9372   23.3168 H   0  0  0  0  0  0  0  0  0  0  0  0
   19.4347   19.9908   22.9833 C   0  0  0  0  0  0  0  0  0  0  0  0
   20.3814   19.9040   23.5345 H   0  0  0  0  0  0  0  0  0  0  0  0
   18.6871   20.3438   23.7069 H   0  0  0  0  0  0  0  0  0  0  0  0
   19.5818   21.0445   21.8651 C   0  0  0  0  0  0  0  0  0  0  0  0
   20.4059   20.7916   21.1858 H   0  0  0  0  0  0  0  0  0  0  0  0
   19.7970   22.0316   22.2942 H   0  0  0  0  0  0  0  0  0  0  0  0
   18.6593   21.1252   21.2757 H   0  0  0  0  0  0  0  0  0  0  0  0
  1  2  1  0  0  0  0
  1  3  2  0  0  0  0
  1  4  1  0  0  0  0
  4  5  1  0  0  0  0
  4  6  1  0  0  0  0
  4  7  1  0  0  0  0
  7  8  1  0  0  0  0
  7  9  1  0  0  0  0
  7 10  1  0  0  0  0
 10 11  1  0  0  0  0
 10 12  1  0  0  0  0
 10 13  1  0  0  0  0
 13 14  1  0  0  0  0
 13 15  1  0  0  0  0
 13 16  1  0  0  0  0
M  END
> <VConfSearch Rank>
867

> <Conf_Id>
37

> <Delta U+W>
1.063

> <U+W>
-55.841

> <U>
9.719

> <W>
-65.560

> <W(PB)>
-67.414

> <W(SA)>
1.854

> <Valence>
7.002

> <Coulomb>
2.402

> <VdW>
0.314

> <VdW6>
-5.861

> <VdW12>
6.175

> <Bond>
0.134

> <Angle>
2.733

> <Pdih>
4.133

> <Idih>
0.002

> <Tether>
0.000

$$$$
VeraChem MOL file


 16 15  0  0  0  0  0  0  0  0999 V2000     
   20.4739   17.0148   22.2462 C   0  0  0  0  0  0  0  0  0  0  0  0
   19.9847   16.2362   21.4517 O   0  5  0  0  0  0  0  0  0  0  0  0
   21.6421   16.9871   22.5791 O   0  0  0  0  0  0  0  0  0  0  0  0
   19.5625   18.0598   22.8841 C   0  0  0  0  0  0  0  0  0  0  0  0
   20.0732   18.4881   23.7542 H   0  0  0  0  0  0  0  0  0  0  0  0
   18.6824   17.5322   23.2699 H   0  0  0  0  0  0  0  0  0  0  0  0
   19.1028   19.1810   21.9123 C   0  0  0  0  0  0  0  0  0  0  0  0
   18.5489   18.7225   21.0815 H   0  0  0  0  0  0  0  0  0  0  0  0
   18.3917   19.8379   22.4311 H   0  0  0  0  0  0  0  0  0  0  0  0
   20.2556   20.0353   21.3332 C   0  0  0  0  0  0  0  0  0  0  0  0
   19.8385   20.7394   20.6002 H   0  0  0  0  0  0  0  0  0  0  0  0
   20.9565   19.3936   20.7814 H   0  0  0  0  0  0  0  0  0  0  0  0
   21.0222   20.8329   22.4096 C   0  0  0  0  0  0  0  0  0  0  0  0
   20.3382   21.4567   22.9997 H   0  0  0  0  0  0  0  0  0  0  0  0
   21.7642   21.4929   21.9420 H   0  0  0  0  0  0  0  0  0  0  0  0
   21.5586   20.1637   23.0943 H   0  0  0  0  0  0  0  0  0  0  0  0
  1  2  1  0  0  0  0
  1  3  2  0  0  0  0
  1  4  1  0  0  0  0
  4  5  1  0  0  0  0
  4  6  1  0  0  0  0
  4  7  1  0  0  0  0
  7  8  1  0  0  0  0
  7  9  1  0  0  0  0
  7 10  1  0  0  0  0
 10 11  1  0  0  0  0
 10 12  1  0  0  0  0
 10 13  1  0  0  0  0
 13 14  1  0  0  0  0
 13 15  1  0  0  0  0
 13 16  1  0  0  0  0
M  END
> <VConfSearch Rank>
868

> <Conf_Id>
39

> <Delta U+W>
1.129

> <U+W>
-55.775

> <U>
9.718

> <W>
-65.493

> <W(PB)>
-67.361

> <W(SA)>
1.869

> <Valence>
7.002

> <Coulomb>
2.402

> <VdW>
0.314

> <VdW6>
-5.861

> <VdW12>
6.175

> <Bond>
0.134

> <Angle>
2.734

> <Pdih>
4.133

> <Idih>
0.002

> <Tether>
0.000

$$$$
VeraChem MOL file


 16 15  0  0  0  0  0  0  0  0999 V2000     
   20.3662   18.2263   20.5276 C   0  0  0  0  0  0  0  0  0  0  0  0
   19.9203   17.0980   20.4573 O   0  5  0  0  0  0  0  0  0  0  0  0
   21.5156   18.5094   20.2521 O   0  0  0  0  0  0  0  0  0  0  0  0
   19.4083   19.3585   20.8941 C   0  0  0  0  0  0  0  0  0  0  0  0
   18.4023   18.9440   21.0324 H   0  0  0  0  0  0  0  0  0  0  0  0
   19.3584   20.0163   20.0186 H   0  0  0  0  0  0  0  0  0  0  0  0
   19.8185   20.2002   22.1351 C   0  0  0  0  0  0  0  0  0  0  0  0
   20.8897   20.4406   22.0872 H   0  0  0  0  0  0  0  0  0  0  0  0
   19.2900   21.1617   22.0823 H   0  0  0  0  0  0  0  0  0  0  0  0
   19.4803   19.5502   23.4984 C   0  0  0  0  0  0  0  0  0  0  0  0
   18.4091   19.3097   23.5416 H   0  0  0  0  0  0  0  0  0  0  0  0
   19.6625   20.2896   24.2905 H   0  0  0  0  0  0  0  0  0  0  0  0
   20.3088   18.2865   23.8097 C   0  0  0  0  0  0  0  0  0  0  0  0
   20.0398   17.4582   23.1429 H   0  0  0  0  0  0  0  0  0  0  0  0
   20.1280   17.9529   24.8396 H   0  0  0  0  0  0  0  0  0  0  0  0
   21.3835   18.4828   23.7002 H   0  0  0  0  0  0  0  0  0  0  0  0
  1  2  1  0  0  0  0
  1  3  2  0  0  0  0
  1  4  1  0  0  0  0
  4  5  1  0  0  0  0
  4  6  1  0  0  0  0
  4  7  1  0  0  0  0
  7  8  1  0  0  0  0
  7  9  1  0  0  0  0
  7 10  1  0  0  0  0
 10 11  1  0  0  0  0
 10 12  1  0  0  0  0
 10 13  1  0  0  0  0
 13 14  1  0  0  0  0
 13 15  1  0  0  0  0
 13 16  1  0  0  0  0
M  END
> <VConfSearch Rank>
869

> <Conf_Id>
47

> <Delta U+W>
2.301

> <U+W>
-54.603

> <U>
11.258

> <W>
-65.861

> <W(PB)>
-67.702

> <W(SA)>
1.841

> <Valence>
8.169

> <Coulomb>
2.735

> <VdW>
0.355

> <VdW6>
-6.245

> <VdW12>
6.600

> <Bond>
0.149

> <Angle>
3.168

> <Pdih>
4.840

> <Idih>
0.011

> <Tether>
0.000

$$$$
VeraChem MOL file


 16 15  0  0  0  0  0  0  0  0999 V2000     
   19.2368   19.1930   20.3769 C   0  0  0  0  0  0  0  0  0  0  0  0
   19.6355   18.2064   19.7897 O   0  5  0  0  0  0  0  0  0  0  0  0
   19.3267   20.3193   19.9294 O   0  0  0  0  0  0  0  0  0  0  0  0
   18.5046   19.0006   21.7038 C   0  0  0  0  0  0  0  0  0  0  0  0
   17.6157   18.3987   21.4816 H   0  0  0  0  0  0  0  0  0  0  0  0
   18.1434   19.9744   22.0565 H   0  0  0  0  0  0  0  0  0  0  0  0
   19.3257   18.2952   22.8196 C   0  0  0  0  0  0  0  0  0  0  0  0
   18.6189   17.8946   23.5587 H   0  0  0  0  0  0  0  0  0  0  0  0
   19.8536   17.4260   22.4033 H   0  0  0  0  0  0  0  0  0  0  0  0
   20.3218   19.2132   23.5685 C   0  0  0  0  0  0  0  0  0  0  0  0
   20.7243   18.6604   24.4285 H   0  0  0  0  0  0  0  0  0  0  0  0
   19.7905   20.0818   23.9814 H   0  0  0  0  0  0  0  0  0  0  0  0
   21.5030   19.6924   22.6993 C   0  0  0  0  0  0  0  0  0  0  0  0
   22.2435   20.2192   23.3148 H   0  0  0  0  0  0  0  0  0  0  0  0
   21.1688   20.3870   21.9191 H   0  0  0  0  0  0  0  0  0  0  0  0
   22.0053   18.8448   22.2150 H   0  0  0  0  0  0  0  0  0  0  0  0
  1  2  1  0  0  0  0
  1  3  2  0  0  0  0
  1  4  1  0  0  0  0
  4  5  1  0  0  0  0
  4  6  1  0  0  0  0
  4  7  1  0  0  0  0
  7  8  1  0  0  0  0
  7  9  1  0  0  0  0
  7 10  1  0  0  0  0
 10 11  1  0  0  0  0
 10 12  1  0  0  0  0
 10 13  1  0  0  0  0
 13 14  1  0  0  0  0
 13 15  1  0  0  0  0
 13 16  1  0  0  0  0
M  END
> <VConfSearch Rank>
870

> <Conf_Id>
45

> <Delta U+W>
2.303

> <U+W>
-54.601

> <U>
11.258

> <W>
-65.860

> <W(PB)>
-67.709

> <W(SA)>
1.849

> <Valence>
8.169

> <Coulomb>
2.735

> <VdW>
0.355

> <VdW6>
-6.245

> <VdW12>
6.600

> <Bond>
0.149

> <Angle>
3.168

> <Pdih>
4.840

> <Idih>
0.011

> <Tether>
0.000

$$$$
VeraChem MOL file


 16 15  0  0  0  0  0  0  0  0999 V2000     
   19.7781   19.3271   19.1857 C   0  0  0  0  0  0  0  0  0  0  0  0
   19.2935   18.2211   19.0454 O   0  5  0  0  0  0  0  0  0  0  0  0
   19.9931   20.0788   18.2562 O   0  0  0  0  0  0  0  0  0  0  0  0
   20.1453   19.8242   20.5850 C   0  0  0  0  0  0  0  0  0  0  0  0
   19.5980   20.7590   20.7543 H   0  0  0  0  0  0  0  0  0  0  0  0
   21.2126   20.0751   20.5735 H   0  0  0  0  0  0  0  0  0  0  0  0
   19.8536   18.8300   21.7404 C   0  0  0  0  0  0  0  0  0  0  0  0
   18.7840   18.5782   21.7434 H   0  0  0  0  0  0  0  0  0  0  0  0
   20.4003   17.8936   21.5625 H   0  0  0  0  0  0  0  0  0  0  0  0
   20.2537   19.4119   23.1124 C   0  0  0  0  0  0  0  0  0  0  0  0
   19.7064   20.3476   23.2924 H   0  0  0  0  0  0  0  0  0  0  0  0
   21.3236   19.6626   23.1113 H   0  0  0  0  0  0  0  0  0  0  0  0
   19.9616   18.4201   24.2557 C   0  0  0  0  0  0  0  0  0  0  0  0
   18.8921   18.1758   24.3000 H   0  0  0  0  0  0  0  0  0  0  0  0
   20.2517   18.8491   25.2236 H   0  0  0  0  0  0  0  0  0  0  0  0
   20.5213   17.4857   24.1176 H   0  0  0  0  0  0  0  0  0  0  0  0
  1  2  1  0  0  0  0
  1  3  2  0  0  0  0
  1  4  1  0  0  0  0
  4  5  1  0  0  0  0
  4  6  1  0  0  0  0
  4  7  1  0  0  0  0
  7  8  1  0  0  0  0
  7  9  1  0  0  0  0
  7 10  1  0  0  0  0
 10 11  1  0  0  0  0
 10 12  1  0  0  0  0
 10 13  1  0  0  0  0
 13 14  1  0  0  0  0
 13 15  1  0  0  0  0
 13 16  1  0  0  0  0
M  END
> <VConfSearch Rank>
871

> <Conf_Id>
0

> <Delta U+W>
0.000

> <U+W>
-56.904

> <U>
7.329

> <W>
-64.233

> <W(PB)>
-66.148

> <W(SA)>
1.915

> <Valence>
6.755

> <Coulomb>
-0.421

> <VdW>
0.995

> <VdW6>
-4.495

> <VdW12>
5.490

> <Bond>
0.106

> <Angle>
2.715

> <Pdih>
3.934

> <Idih>
0.000

> <Tether>
0.000

$$$$
VeraChem MOL file


 16 15  0  0  0  0  0  0  0  0999 V2000     
   18.2102   20.4619   23.4702 C   0  0  0  0  0  0  0  0  0  0  0  0
   17.0528   20.1544   23.2661 O   0  5  0  0  0  0  0  0  0  0  0  0
   18.6258   20.8371   24.5483 O   0  0  0  0  0  0  0  0  0  0  0  0
   19.1990   20.3536   22.3147 C   0  0  0  0  0  0  0  0  0  0  0  0
   19.9582   21.1350   22.4411 H   0  0  0  0  0  0  0  0  0  0  0  0
   18.6614   20.5721   21.3841 H   0  0  0  0  0  0  0  0  0  0  0  0
   19.8740   18.9627   22.2273 C   0  0  0  0  0  0  0  0  0  0  0  0
   20.3976   18.7533   23.1705 H   0  0  0  0  0  0  0  0  0  0  0  0
   19.1006   18.1903   22.1134 H   0  0  0  0  0  0  0  0  0  0  0  0
   20.8688   18.8800   21.0508 C   0  0  0  0  0  0  0  0  0  0  0  0
   21.6427   19.6518   21.1647 H   0  0  0  0  0  0  0  0  0  0  0  0
   20.3455   19.0887   20.1073 H   0  0  0  0  0  0  0  0  0  0  0  0
   21.5366   17.4931   20.9700 C   0  0  0  0  0  0  0  0  0  0  0  0
   20.7871   16.7041   20.8244 H   0  0  0  0  0  0  0  0  0  0  0  0
   22.0939   17.2713   21.8896 H   0  0  0  0  0  0  0  0  0  0  0  0
   22.2405   17.4512   20.1286 H   0  0  0  0  0  0  0  0  0  0  0  0
  1  2  1  0  0  0  0
  1  3  2  0  0  0  0
  1  4  1  0  0  0  0
  4  5  1  0  0  0  0
  4  6  1  0  0  0  0
  4  7  1  0  0  0  0
  7  8  1  0  0  0  0
  7  9  1  0  0  0  0
  7 10  1  0  0  0  0
 10 11  1  0  0  0  0
 10 12  1  0  0  0  0
 10 13  1  0  0  0  0
 13 14  1  0  0  0  0
 13 15  1  0  0  0  0
 13 16  1  0  0  0  0
M  END
> <VConfSearch Rank>
872

> <Conf_Id>
22

> <Delta U+W>
-1.185

> <U+W>
-58.089

> <U>
6.298

> <W>
-64.387

> <W(PB)>
-66.329

> <W(SA)>
1.942

> <Valence>
6.246

> <Coulomb>
-0.408

> <VdW>
0.460

> <VdW6>
-4.207

> <VdW12>
4.667

> <Bond>
0.072

> <Angle>
2.246

> <Pdih>
3.928

> <Idih>
0.001

> <Tether>
0.000

$$$$
VeraChem MOL file


 16 15  0  0  0  0  0  0  0  0999 V2000     
   19.5083   18.7949   24.5124 C   0  0  0  0  0  0  0  0  0  0  0  0
   20.3556   18.3725   25.2738 O   0  5  0  0  0  0  0  0  0  0  0  0
   18.3161   18.7465   24.7408 O   0  0  0  0  0  0  0  0  0  0  0  0
   19.9655   19.4003   23.1899 C   0  0  0  0  0  0  0  0  0  0  0  0
   20.9393   19.8776   23.3525 H   0  0  0  0  0  0  0  0  0  0  0  0
   19.2564   20.1916   22.9215 H   0  0  0  0  0  0  0  0  0  0  0  0
   20.0680   18.3514   22.0522 C   0  0  0  0  0  0  0  0  0  0  0  0
   20.7167   17.5299   22.3866 H   0  0  0  0  0  0  0  0  0  0  0  0
   19.0781   17.9109   21.8696 H   0  0  0  0  0  0  0  0  0  0  0  0
   20.6348   18.9268   20.7339 C   0  0  0  0  0  0  0  0  0  0  0  0
   20.7768   18.1028   20.0211 H   0  0  0  0  0  0  0  0  0  0  0  0
   21.6298   19.3569   20.9139 H   0  0  0  0  0  0  0  0  0  0  0  0
   19.7187   19.9895   20.0900 C   0  0  0  0  0  0  0  0  0  0  0  0
   19.6385   20.8843   20.7198 H   0  0  0  0  0  0  0  0  0  0  0  0
   18.7089   19.5908   19.9270 H   0  0  0  0  0  0  0  0  0  0  0  0
   20.1194   20.3027   19.1173 H   0  0  0  0  0  0  0  0  0  0  0  0
  1  2  1  0  0  0  0
  1  3  2  0  0  0  0
  1  4  1  0  0  0  0
  4  5  1  0  0  0  0
  4  6  1  0  0  0  0
  4  7  1  0  0  0  0
  7  8  1  0  0  0  0
  7  9  1  0  0  0  0
  7 10  1  0  0  0  0
 10 11  1  0  0  0  0
 10 12  1  0  0  0  0
 10 13  1  0  0  0  0
 13 14  1  0  0  0  0
 13 15  1  0  0  0  0
 13 16  1  0  0  0  0
M  END
> <VConfSearch Rank>
873

> <Conf_Id>
36

> <Delta U+W>
-0.427

> <U+W>
-57.331

> <U>
7.263

> <W>
-64.594

> <W(PB)>
-66.513

> <W(SA)>
1.920

> <Valence>
6.734

> <Coulomb>
-0.068

> <VdW>
0.598

> <VdW6>
-4.819

> <VdW12>
5.417

> <Bond>
0.107

> <Angle>
2.469

> <Pdih>
4.157

> <Idih>
0.001

> <Tether>
0.000

$$$$
VeraChem MOL file


 16 15  0  0  0  0  0  0  0  0999 V2000     
   18.4201   17.7617   23.5420 C   0  0  0  0  0  0  0  0  0  0  0  0
   17.6620   18.4820   24.1605 O   0  5  0  0  0  0  0  0  0  0  0  0
   18.6783   16.6204   23.8687 O   0  0  0  0  0  0  0  0  0  0  0  0
   19.0999   18.3269   22.2998 C   0  0  0  0  0  0  0  0  0  0  0  0
   18.4059   19.0341   21.8314 H   0  0  0  0  0  0  0  0  0  0  0  0
   19.2533   17.5041   21.5914 H   0  0  0  0  0  0  0  0  0  0  0  0
   20.4514   19.0184   22.6163 C   0  0  0  0  0  0  0  0  0  0  0  0
   20.2795   19.8670   23.2928 H   0  0  0  0  0  0  0  0  0  0  0  0
   21.0910   18.3107   23.1619 H   0  0  0  0  0  0  0  0  0  0  0  0
   21.2063   19.5000   21.3559 C   0  0  0  0  0  0  0  0  0  0  0  0
   21.3886   18.6494   20.6846 H   0  0  0  0  0  0  0  0  0  0  0  0
   22.1940   19.8751   21.6575 H   0  0  0  0  0  0  0  0  0  0  0  0
   20.4628   20.6154   20.5903 C   0  0  0  0  0  0  0  0  0  0  0  0
   19.5166   20.2516   20.1708 H   0  0  0  0  0  0  0  0  0  0  0  0
   21.0759   20.9829   19.7571 H   0  0  0  0  0  0  0  0  0  0  0  0
   20.2438   21.4656   21.2494 H   0  0  0  0  0  0  0  0  0  0  0  0
  1  2  1  0  0  0  0
  1  3  2  0  0  0  0
  1  4  1  0  0  0  0
  4  5  1  0  0  0  0
  4  6  1  0  0  0  0
  4  7  1  0  0  0  0
  7  8  1  0  0  0  0
  7  9  1  0  0  0  0
  7 10  1  0  0  0  0
 10 11  1  0  0  0  0
 10 12  1  0  0  0  0
 10 13  1  0  0  0  0
 13 14  1  0  0  0  0
 13 15  1  0  0  0  0
 13 16  1  0  0  0  0
M  END
> <VConfSearch Rank>
874

> <Conf_Id>
17

> <Delta U+W>
-0.432

> <U+W>
-57.336

> <U>
7.263

> <W>
-64.599

> <W(PB)>
-66.503

> <W(SA)>
1.904

> <Valence>
6.734

> <Coulomb>
-0.068

> <VdW>
0.598

> <VdW6>
-4.819

> <VdW12>
5.417

> <Bond>
0.107

> <Angle>
2.469

> <Pdih>
4.157

> <Idih>
0.001

> <Tether>
0.000

$$$$
VeraChem MOL file


 16 15  0  0  0  0  0  0  0  0999 V2000     
   18.1703   18.8903   20.7939 C   0  0  0  0  0  0  0  0  0  0  0  0
   17.2820   19.6578   21.1071 O   0  5  0  0  0  0  0  0  0  0  0  0
   18.5342   18.7168   19.6478 O   0  0  0  0  0  0  0  0  0  0  0  0
   18.8478   18.0842   21.8988 C   0  0  0  0  0  0  0  0  0  0  0  0
   19.3499   17.2208   21.4453 H   0  0  0  0  0  0  0  0  0  0  0  0
   18.0576   17.6869   22.5468 H   0  0  0  0  0  0  0  0  0  0  0  0
   19.8536   18.9009   22.7511 C   0  0  0  0  0  0  0  0  0  0  0  0
   19.3441   19.7772   23.1753 H   0  0  0  0  0  0  0  0  0  0  0  0
   20.1838   18.2859   23.5992 H   0  0  0  0  0  0  0  0  0  0  0  0
   21.0873   19.3546   21.9410 C   0  0  0  0  0  0  0  0  0  0  0  0
   20.7705   19.9881   21.1008 H   0  0  0  0  0  0  0  0  0  0  0  0
   21.5886   18.4783   21.5072 H   0  0  0  0  0  0  0  0  0  0  0  0
   22.0860   20.1343   22.8191 C   0  0  0  0  0  0  0  0  0  0  0  0
   21.6184   21.0336   23.2411 H   0  0  0  0  0  0  0  0  0  0  0  0
   22.9557   20.4499   22.2284 H   0  0  0  0  0  0  0  0  0  0  0  0
   22.4473   19.5135   23.6495 H   0  0  0  0  0  0  0  0  0  0  0  0
  1  2  1  0  0  0  0
  1  3  2  0  0  0  0
  1  4  1  0  0  0  0
  4  5  1  0  0  0  0
  4  6  1  0  0  0  0
  4  7  1  0  0  0  0
  7  8  1  0  0  0  0
  7  9  1  0  0  0  0
  7 10  1  0  0  0  0
 10 11  1  0  0  0  0
 10 12  1  0  0  0  0
 10 13  1  0  0  0  0
 13 14  1  0  0  0  0
 13 15  1  0  0  0  0
 13 16  1  0  0  0  0
M  END
> <VConfSearch Rank>
875

> <Conf_Id>
19

> <Delta U+W>
0.048

> <U+W>
-56.856

> <U>
8.276

> <W>
-65.132

> <W(PB)>
-67.031

> <W(SA)>
1.899

> <Valence>
6.513

> <Coulomb>
1.428

> <VdW>
0.335

> <VdW6>
-5.021

> <VdW12>
5.356

> <Bond>
0.092

> <Angle>
2.417

> <Pdih>
4.003

> <Idih>
0.001

> <Tether>
0.000

$$$$
VeraChem MOL file


 16 15  0  0  0  0  0  0  0  0999 V2000     
   18.6337   17.4899   23.2292 C   0  0  0  0  0  0  0  0  0  0  0  0
   17.4546   17.4701   22.9367 O   0  5  0  0  0  0  0  0  0  0  0  0
   19.0414   17.4829   24.3738 O   0  0  0  0  0  0  0  0  0  0  0  0
   19.6564   17.5003   22.0963 C   0  0  0  0  0  0  0  0  0  0  0  0
   19.3421   16.7476   21.3636 H   0  0  0  0  0  0  0  0  0  0  0  0
   20.6239   17.1707   22.4943 H   0  0  0  0  0  0  0  0  0  0  0  0
   19.8072   18.8745   21.3936 C   0  0  0  0  0  0  0  0  0  0  0  0
   20.4518   18.7553   20.5122 H   0  0  0  0  0  0  0  0  0  0  0  0
   18.8260   19.2049   21.0254 H   0  0  0  0  0  0  0  0  0  0  0  0
   20.4081   19.9530   22.3210 C   0  0  0  0  0  0  0  0  0  0  0  0
   21.3836   19.6159   22.6981 H   0  0  0  0  0  0  0  0  0  0  0  0
   19.7603   20.0956   23.1972 H   0  0  0  0  0  0  0  0  0  0  0  0
   20.5785   21.2987   21.5885 C   0  0  0  0  0  0  0  0  0  0  0  0
   21.2500   21.1946   20.7262 H   0  0  0  0  0  0  0  0  0  0  0  0
   21.0054   22.0537   22.2614 H   0  0  0  0  0  0  0  0  0  0  0  0
   19.6119   21.6740   21.2275 H   0  0  0  0  0  0  0  0  0  0  0  0
  1  2  1  0  0  0  0
  1  3  2  0  0  0  0
  1  4  1  0  0  0  0
  4  5  1  0  0  0  0
  4  6  1  0  0  0  0
  4  7  1  0  0  0  0
  7  8  1  0  0  0  0
  7  9  1  0  0  0  0
  7 10  1  0  0  0  0
 10 11  1  0  0  0  0
 10 12  1  0  0  0  0
 10 13  1  0  0  0  0
 13 14  1  0  0  0  0
 13 15  1  0  0  0  0
 13 16  1  0  0  0  0
M  END
> <VConfSearch Rank>
876

> <Conf_Id>
20

> <Delta U+W>
-0.010

> <U+W>
-56.914

> <U>
8.277

> <W>
-65.191

> <W(PB)>
-67.081

> <W(SA)>
1.890

> <Valence>
6.513

> <Coulomb>
1.429

> <VdW>
0.335

> <VdW6>
-5.021

> <VdW12>
5.356

> <Bond>
0.092

> <Angle>
2.417

> <Pdih>
4.002

> <Idih>
0.001

> <Tether>
0.000

$$$$
VeraChem MOL file


 16 15  0  0  0  0  0  0  0  0999 V2000     
   19.0375   17.1813   22.0513 C   0  0  0  0  0  0  0  0  0  0  0  0
   19.5370   16.2180   22.5985 O   0  5  0  0  0  0  0  0  0  0  0  0
   18.6518   17.1724   20.8992 O   0  0  0  0  0  0  0  0  0  0  0  0
   18.8551   18.4582   22.8674 C   0  0  0  0  0  0  0  0  0  0  0  0
   18.3592   18.1778   23.8041 H   0  0  0  0  0  0  0  0  0  0  0  0
   18.1618   19.1198   22.3355 H   0  0  0  0  0  0  0  0  0  0  0  0
   20.1804   19.2007   23.1914 C   0  0  0  0  0  0  0  0  0  0  0  0
   19.9633   20.0566   23.8446 H   0  0  0  0  0  0  0  0  0  0  0  0
   20.8290   18.5284   23.7701 H   0  0  0  0  0  0  0  0  0  0  0  0
   20.9558   19.6941   21.9467 C   0  0  0  0  0  0  0  0  0  0  0  0
   21.2097   18.8417   21.3014 H   0  0  0  0  0  0  0  0  0  0  0  0
   21.9101   20.1282   22.2752 H   0  0  0  0  0  0  0  0  0  0  0  0
   20.1838   20.7507   21.1280 C   0  0  0  0  0  0  0  0  0  0  0  0
   19.2802   20.3218   20.6762 H   0  0  0  0  0  0  0  0  0  0  0  0
   20.8099   21.1376   20.3137 H   0  0  0  0  0  0  0  0  0  0  0  0
   19.8868   21.5984   21.7591 H   0  0  0  0  0  0  0  0  0  0  0  0
  1  2  1  0  0  0  0
  1  3  2  0  0  0  0
  1  4  1  0  0  0  0
  4  5  1  0  0  0  0
  4  6  1  0  0  0  0
  4  7  1  0  0  0  0
  7  8  1  0  0  0  0
  7  9  1  0  0  0  0
  7 10  1  0  0  0  0
 10 11  1  0  0  0  0
 10 12  1  0  0  0  0
 10 13  1  0  0  0  0
 13 14  1  0  0  0  0
 13 15  1  0  0  0  0
 13 16  1  0  0  0  0
M  END
> <VConfSearch Rank>
877

> <Conf_Id>
37

> <Delta U+W>
1.063

> <U+W>
-55.841

> <U>
9.719

> <W>
-65.560

> <W(PB)>
-67.414

> <W(SA)>
1.854

> <Valence>
7.002

> <Coulomb>
2.402

> <VdW>
0.314

> <VdW6>
-5.861

> <VdW12>
6.175

> <Bond>
0.134

> <Angle>
2.733

> <Pdih>
4.133

> <Idih>
0.002

> <Tether>
0.000

$$$$
VeraChem MOL file


 16 15  0  0  0  0  0  0  0  0999 V2000     
   19.7393   17.0280   22.3007 C   0  0  0  0  0  0  0  0  0  0  0  0
   19.3625   16.3641   21.3551 O   0  5  0  0  0  0  0  0  0  0  0  0
   20.6280   16.6797   23.0525 O   0  0  0  0  0  0  0  0  0  0  0  0
   19.0336   18.3530   22.5765 C   0  0  0  0  0  0  0  0  0  0  0  0
   19.2912   18.6849   23.5888 H   0  0  0  0  0  0  0  0  0  0  0  0
   17.9557   18.1530   22.5807 H   0  0  0  0  0  0  0  0  0  0  0  0
   19.3442   19.4669   21.5395 C   0  0  0  0  0  0  0  0  0  0  0  0
   19.0248   19.1230   20.5460 H   0  0  0  0  0  0  0  0  0  0  0  0
   18.7361   20.3523   21.7690 H   0  0  0  0  0  0  0  0  0  0  0  0
   20.8345   19.8770   21.4711 C   0  0  0  0  0  0  0  0  0  0  0  0
   20.9630   20.6041   20.6574 H   0  0  0  0  0  0  0  0  0  0  0  0
   21.4508   19.0062   21.2076 H   0  0  0  0  0  0  0  0  0  0  0  0
   21.3550   20.5011   22.7833 C   0  0  0  0  0  0  0  0  0  0  0  0
   20.7337   21.3533   23.0881 H   0  0  0  0  0  0  0  0  0  0  0  0
   22.3841   20.8608   22.6552 H   0  0  0  0  0  0  0  0  0  0  0  0
   21.3598   19.7666   23.5988 H   0  0  0  0  0  0  0  0  0  0  0  0
  1  2  1  0  0  0  0
  1  3  2  0  0  0  0
  1  4  1  0  0  0  0
  4  5  1  0  0  0  0
  4  6  1  0  0  0  0
  4  7  1  0  0  0  0
  7  8  1  0  0  0  0
  7  9  1  0  0  0  0
  7 10  1  0  0  0  0
 10 11  1  0  0  0  0
 10 12  1  0  0  0  0
 10 13  1  0  0  0  0
 13 14  1  0  0  0  0
 13 15  1  0  0  0  0
 13 16  1  0  0  0  0
M  END
> <VConfSearch Rank>
878

> <Conf_Id>
39

> <Delta U+W>
1.129

> <U+W>
-55.775

> <U>
9.718

> <W>
-65.493

> <W(PB)>
-67.361

> <W(SA)>
1.869

> <Valence>
7.002

> <Coulomb>
2.402

> <VdW>
0.314

> <VdW6>
-5.861

> <VdW12>
6.175

> <Bond>
0.134

> <Angle>
2.734

> <Pdih>
4.133

> <Idih>
0.002

> <Tether>
0.000

$$$$
VeraChem MOL file


 16 15  0  0  0  0  0  0  0  0999 V2000     
   19.9887   18.0577   23.9804 C   0  0  0  0  0  0  0  0  0  0  0  0
   19.8341   16.8674   23.7900 O   0  5  0  0  0  0  0  0  0  0  0  0
   19.3930   18.6807   24.8372 O   0  0  0  0  0  0  0  0  0  0  0  0
   21.0517   18.7868   23.1605 C   0  0  0  0  0  0  0  0  0  0  0  0
   21.5453   18.0674   22.4959 H   0  0  0  0  0  0  0  0  0  0  0  0
   21.8117   19.1273   23.8733 H   0  0  0  0  0  0  0  0  0  0  0  0
   20.5404   20.0084   22.3460 C   0  0  0  0  0  0  0  0  0  0  0  0
   19.8743   20.6215   22.9689 H   0  0  0  0  0  0  0  0  0  0  0  0
   21.4044   20.6442   22.1102 H   0  0  0  0  0  0  0  0  0  0  0  0
   19.8403   19.6500   21.0129 C   0  0  0  0  0  0  0  0  0  0  0  0
   20.5086   19.0355   20.3941 H   0  0  0  0  0  0  0  0  0  0  0  0
   19.6669   20.5783   20.4513 H   0  0  0  0  0  0  0  0  0  0  0  0
   18.4889   18.9277   21.1924 C   0  0  0  0  0  0  0  0  0  0  0  0
   18.6263   17.9191   21.6011 H   0  0  0  0  0  0  0  0  0  0  0  0
   17.9771   18.8253   20.2269 H   0  0  0  0  0  0  0  0  0  0  0  0
   17.8295   19.4874   21.8686 H   0  0  0  0  0  0  0  0  0  0  0  0
  1  2  1  0  0  0  0
  1  3  2  0  0  0  0
  1  4  1  0  0  0  0
  4  5  1  0  0  0  0
  4  6  1  0  0  0  0
  4  7  1  0  0  0  0
  7  8  1  0  0  0  0
  7  9  1  0  0  0  0
  7 10  1  0  0  0  0
 10 11  1  0  0  0  0
 10 12  1  0  0  0  0
 10 13  1  0  0  0  0
 13 14  1  0  0  0  0
 13 15  1  0  0  0  0
 13 16  1  0  0  0  0
M  END
> <VConfSearch Rank>
879

> <Conf_Id>
47

> <Delta U+W>
2.301

> <U+W>
-54.603

> <U>
11.258

> <W>
-65.861

> <W(PB)>
-67.702

> <W(SA)>
1.841

> <Valence>
8.169

> <Coulomb>
2.735

> <VdW>
0.355

> <VdW6>
-6.245

> <VdW12>
6.600

> <Bond>
0.149

> <Angle>
3.168

> <Pdih>
4.840

> <Idih>
0.011

> <Tether>
0.000

$$$$
VeraChem MOL file


 16 15  0  0  0  0  0  0  0  0999 V2000     
   18.3694   20.2893   21.6932 C   0  0  0  0  0  0  0  0  0  0  0  0
   18.8241   21.3613   21.3452 O   0  5  0  0  0  0  0  0  0  0  0  0
   17.4165   20.1778   22.4391 O   0  0  0  0  0  0  0  0  0  0  0  0
   18.9677   19.0185   21.0928 C   0  0  0  0  0  0  0  0  0  0  0  0
   18.8042   19.0816   20.0106 H   0  0  0  0  0  0  0  0  0  0  0  0
   18.3946   18.1527   21.4462 H   0  0  0  0  0  0  0  0  0  0  0  0
   20.4840   18.8062   21.3625 C   0  0  0  0  0  0  0  0  0  0  0  0
   20.8664   18.1013   20.6120 H   0  0  0  0  0  0  0  0  0  0  0  0
   21.0286   19.7467   21.1997 H   0  0  0  0  0  0  0  0  0  0  0  0
   20.8185   18.2338   22.7611 C   0  0  0  0  0  0  0  0  0  0  0  0
   21.8863   17.9758   22.7844 H   0  0  0  0  0  0  0  0  0  0  0  0
   20.2708   17.2948   22.9206 H   0  0  0  0  0  0  0  0  0  0  0  0
   20.5259   19.2087   23.9205 C   0  0  0  0  0  0  0  0  0  0  0  0
   20.9101   18.8064   24.8667 H   0  0  0  0  0  0  0  0  0  0  0  0
   19.4481   19.3700   24.0444 H   0  0  0  0  0  0  0  0  0  0  0  0
   21.0029   20.1822   23.7469 H   0  0  0  0  0  0  0  0  0  0  0  0
  1  2  1  0  0  0  0
  1  3  2  0  0  0  0
  1  4  1  0  0  0  0
  4  5  1  0  0  0  0
  4  6  1  0  0  0  0
  4  7  1  0  0  0  0
  7  8  1  0  0  0  0
  7  9  1  0  0  0  0
  7 10  1  0  0  0  0
 10 11  1  0  0  0  0
 10 12  1  0  0  0  0
 10 13  1  0  0  0  0
 13 14  1  0  0  0  0
 13 15  1  0  0  0  0
 13 16  1  0  0  0  0
M  END
> <VConfSearch Rank>
880

> <Conf_Id>
45

> <Delta U+W>
2.303

> <U+W>
-54.601

> <U>
11.258

> <W>
-65.860

> <W(PB)>
-67.709

> <W(SA)>
1.849

> <Valence>
8.169

> <Coulomb>
2.735

> <VdW>
0.355

> <VdW6>
-6.245

> <VdW12>
6.600

> <Bond>
0.149

> <Angle>
3.168

> <Pdih>
4.840

> <Idih>
0.011

> <Tether>
0.000

$$$$
VeraChem MOL file


 16 15  0  0  0  0  0  0  0  0999 V2000     
   17.7996   20.5913   21.1411 C   0  0  0  0  0  0  0  0  0  0  0  0
   18.1697   20.7070   19.9889 O   0  5  0  0  0  0  0  0  0  0  0  0
   16.7600   21.0652   21.5535 O   0  0  0  0  0  0  0  0  0  0  0  0
   18.6608   19.8195   22.1423 C   0  0  0  0  0  0  0  0  0  0  0  0
   18.0429   19.0109   22.5505 H   0  0  0  0  0  0  0  0  0  0  0  0
   18.8875   20.4998   22.9718 H   0  0  0  0  0  0  0  0  0  0  0  0
   19.9791   19.2333   21.5706 C   0  0  0  0  0  0  0  0  0  0  0  0
   19.7460   18.5569   20.7366 H   0  0  0  0  0  0  0  0  0  0  0  0
   20.5915   20.0473   21.1584 H   0  0  0  0  0  0  0  0  0  0  0  0
   20.7827   18.4730   22.6465 C   0  0  0  0  0  0  0  0  0  0  0  0
   20.1720   17.6576   23.0584 H   0  0  0  0  0  0  0  0  0  0  0  0
   21.0181   19.1488   23.4803 H   0  0  0  0  0  0  0  0  0  0  0  0
   22.0907   17.8933   22.0727 C   0  0  0  0  0  0  0  0  0  0  0  0
   21.8833   17.1889   21.2564 H   0  0  0  0  0  0  0  0  0  0  0  0
   22.6496   17.3562   22.8501 H   0  0  0  0  0  0  0  0  0  0  0  0
   22.7355   18.6911   21.6815 H   0  0  0  0  0  0  0  0  0  0  0  0
  1  2  1  0  0  0  0
  1  3  2  0  0  0  0
  1  4  1  0  0  0  0
  4  5  1  0  0  0  0
  4  6  1  0  0  0  0
  4  7  1  0  0  0  0
  7  8  1  0  0  0  0
  7  9  1  0  0  0  0
  7 10  1  0  0  0  0
 10 11  1  0  0  0  0
 10 12  1  0  0  0  0
 10 13  1  0  0  0  0
 13 14  1  0  0  0  0
 13 15  1  0  0  0  0
 13 16  1  0  0  0  0
M  END
> <VConfSearch Rank>
881

> <Conf_Id>
0

> <Delta U+W>
0.000

> <U+W>
-56.904

> <U>
7.329

> <W>
-64.233

> <W(PB)>
-66.148

> <W(SA)>
1.915

> <Valence>
6.755

> <Coulomb>
-0.421

> <VdW>
0.995

> <VdW6>
-4.495

> <VdW12>
5.490

> <Bond>
0.106

> <Angle>
2.715

> <Pdih>
3.934

> <Idih>
0.000

> <Tether>
0.000

$$$$
VeraChem MOL file


 16 15  0  0  0  0  0  0  0  0999 V2000     
   20.1384   18.0888   19.4145 C   0  0  0  0  0  0  0  0  0  0  0  0
   21.2525   18.0269   18.9340 O   0  5  0  0  0  0  0  0  0  0  0  0
   19.2474   17.3071   19.1482 O   0  0  0  0  0  0  0  0  0  0  0  0
   19.8479   19.1972   20.4202 C   0  0  0  0  0  0  0  0  0  0  0  0
   18.7931   19.4805   20.3204 H   0  0  0  0  0  0  0  0  0  0  0  0
   20.4462   20.0739   20.1439 H   0  0  0  0  0  0  0  0  0  0  0  0
   20.1530   18.7814   21.8804 C   0  0  0  0  0  0  0  0  0  0  0  0
   19.5559   17.8955   22.1379 H   0  0  0  0  0  0  0  0  0  0  0  0
   21.2092   18.4889   21.9614 H   0  0  0  0  0  0  0  0  0  0  0  0
   19.8508   19.9199   22.8768 C   0  0  0  0  0  0  0  0  0  0  0  0
   18.7945   20.2123   22.7966 H   0  0  0  0  0  0  0  0  0  0  0  0
   20.4482   20.8058   22.6200 H   0  0  0  0  0  0  0  0  0  0  0  0
   20.1568   19.4990   24.3277 C   0  0  0  0  0  0  0  0  0  0  0  0
   21.2151   19.2309   24.4441 H   0  0  0  0  0  0  0  0  0  0  0  0
   19.5493   18.6330   24.6219 H   0  0  0  0  0  0  0  0  0  0  0  0
   19.9365   20.3194   25.0231 H   0  0  0  0  0  0  0  0  0  0  0  0
  1  2  1  0  0  0  0
  1  3  2  0  0  0  0
  1  4  1  0  0  0  0
  4  5  1  0  0  0  0
  4  6  1  0  0  0  0
  4  7  1  0  0  0  0
  7  8  1  0  0  0  0
  7  9  1  0  0  0  0
  7 10  1  0  0  0  0
 10 11  1  0  0  0  0
 10 12  1  0  0  0  0
 10 13  1  0  0  0  0
 13 14  1  0  0  0  0
 13 15  1  0  0  0  0
 13 16  1  0  0  0  0
M  END
> <VConfSearch Rank>
882

> <Conf_Id>
22

> <Delta U+W>
-1.185

> <U+W>
-58.089

> <U>
6.298

> <W>
-64.387

> <W(PB)>
-66.329

> <W(SA)>
1.942

> <Valence>
6.246

> <Coulomb>
-0.408

> <VdW>
0.460

> <VdW6>
-4.207

> <VdW12>
4.667

> <Bond>
0.072

> <Angle>
2.246

> <Pdih>
3.928

> <Idih>
0.001

> <Tether>
0.000

$$$$
VeraChem MOL file


 16 15  0  0  0  0  0  0  0  0999 V2000     
   18.1830   20.8209   22.8369 C   0  0  0  0  0  0  0  0  0  0  0  0
   18.2989   22.0216   22.6931 O   0  5  0  0  0  0  0  0  0  0  0  0
   17.4628   20.3111   23.6720 O   0  0  0  0  0  0  0  0  0  0  0  0
   19.0011   19.9047   21.9336 C   0  0  0  0  0  0  0  0  0  0  0  0
   19.1167   20.3994   20.9618 H   0  0  0  0  0  0  0  0  0  0  0  0
   18.4178   18.9921   21.7665 H   0  0  0  0  0  0  0  0  0  0  0  0
   20.3921   19.5614   22.5271 C   0  0  0  0  0  0  0  0  0  0  0  0
   20.9161   20.4978   22.7636 H   0  0  0  0  0  0  0  0  0  0  0  0
   20.2630   19.0286   23.4794 H   0  0  0  0  0  0  0  0  0  0  0  0
   21.2772   18.7235   21.5758 C   0  0  0  0  0  0  0  0  0  0  0  0
   22.2755   18.6189   22.0229 H   0  0  0  0  0  0  0  0  0  0  0  0
   21.4162   19.2615   20.6278 H   0  0  0  0  0  0  0  0  0  0  0  0
   20.7074   17.3165   21.2956 C   0  0  0  0  0  0  0  0  0  0  0  0
   19.7595   17.3701   20.7456 H   0  0  0  0  0  0  0  0  0  0  0  0
   20.5328   16.7698   22.2315 H   0  0  0  0  0  0  0  0  0  0  0  0
   21.4108   16.7316   20.6889 H   0  0  0  0  0  0  0  0  0  0  0  0
  1  2  1  0  0  0  0
  1  3  2  0  0  0  0
  1  4  1  0  0  0  0
  4  5  1  0  0  0  0
  4  6  1  0  0  0  0
  4  7  1  0  0  0  0
  7  8  1  0  0  0  0
  7  9  1  0  0  0  0
  7 10  1  0  0  0  0
 10 11  1  0  0  0  0
 10 12  1  0  0  0  0
 10 13  1  0  0  0  0
 13 14  1  0  0  0  0
 13 15  1  0  0  0  0
 13 16  1  0  0  0  0
M  END
> <VConfSearch Rank>
883

> <Conf_Id>
36

> <Delta U+W>
-0.427

> <U+W>
-57.331

> <U>
7.263

> <W>
-64.594

> <W(PB)>
-66.513

> <W(SA)>
1.920

> <Valence>
6.734

> <Coulomb>
-0.068

> <VdW>
0.598

> <VdW6>
-4.819

> <VdW12>
5.417

> <Bond>
0.107

> <Angle>
2.469

> <Pdih>
4.157

> <Idih>
0.001

> <Tether>
0.000

$$$$
VeraChem MOL file


 16 15  0  0  0  0  0  0  0  0999 V2000     
   18.5152   21.2860   22.0195 C   0  0  0  0  0  0  0  0  0  0  0  0
   18.3054   21.6585   23.1567 O   0  5  0  0  0  0  0  0  0  0  0  0
   17.8487   21.6339   21.0651 O   0  0  0  0  0  0  0  0  0  0  0  0
   19.6646   20.3135   21.7794 C   0  0  0  0  0  0  0  0  0  0  0  0
   20.4529   20.5415   22.5059 H   0  0  0  0  0  0  0  0  0  0  0  0
   20.0748   20.5107   20.7817 H   0  0  0  0  0  0  0  0  0  0  0  0
   19.2302   18.8292   21.8945 C   0  0  0  0  0  0  0  0  0  0  0  0
   18.8611   18.6331   22.9106 H   0  0  0  0  0  0  0  0  0  0  0  0
   18.3826   18.6558   21.2171 H   0  0  0  0  0  0  0  0  0  0  0  0
   20.3570   17.8295   21.5462 C   0  0  0  0  0  0  0  0  0  0  0  0
   20.7183   18.0179   20.5257 H   0  0  0  0  0  0  0  0  0  0  0  0
   19.9395   16.8131   21.5453 H   0  0  0  0  0  0  0  0  0  0  0  0
   21.5422   17.8798   22.5340 C   0  0  0  0  0  0  0  0  0  0  0  0
   22.0630   18.8443   22.4865 H   0  0  0  0  0  0  0  0  0  0  0  0
   22.2729   17.0957   22.2968 H   0  0  0  0  0  0  0  0  0  0  0  0
   21.2008   17.7226   23.5656 H   0  0  0  0  0  0  0  0  0  0  0  0
  1  2  1  0  0  0  0
  1  3  2  0  0  0  0
  1  4  1  0  0  0  0
  4  5  1  0  0  0  0
  4  6  1  0  0  0  0
  4  7  1  0  0  0  0
  7  8  1  0  0  0  0
  7  9  1  0  0  0  0
  7 10  1  0  0  0  0
 10 11  1  0  0  0  0
 10 12  1  0  0  0  0
 10 13  1  0  0  0  0
 13 14  1  0  0  0  0
 13 15  1  0  0  0  0
 13 16  1  0  0  0  0
M  END
> <VConfSearch Rank>
884

> <Conf_Id>
17

> <Delta U+W>
-0.432

> <U+W>
-57.336

> <U>
7.263

> <W>
-64.599

> <W(PB)>
-66.503

> <W(SA)>
1.904

> <Valence>
6.734

> <Coulomb>
-0.068

> <VdW>
0.598

> <VdW6>
-4.819

> <VdW12>
5.417

> <Bond>
0.107

> <Angle>
2.469

> <Pdih>
4.157

> <Idih>
0.001

> <Tether>
0.000

$$$$
VeraChem MOL file


 16 15  0  0  0  0  0  0  0  0999 V2000     
   19.3606   19.2507   24.3250 C   0  0  0  0  0  0  0  0  0  0  0  0
   20.2217   19.0218   25.1511 O   0  5  0  0  0  0  0  0  0  0  0  0
   18.6144   20.2079   24.3810 O   0  0  0  0  0  0  0  0  0  0  0  0
   19.1934   18.2687   23.1686 C   0  0  0  0  0  0  0  0  0  0  0  0
   18.1968   18.4077   22.7320 H   0  0  0  0  0  0  0  0  0  0  0  0
   19.2160   17.2571   23.5912 H   0  0  0  0  0  0  0  0  0  0  0  0
   20.2809   18.3945   22.0702 C   0  0  0  0  0  0  0  0  0  0  0  0
   21.2742   18.2817   22.5265 H   0  0  0  0  0  0  0  0  0  0  0  0
   20.1647   17.5670   21.3572 H   0  0  0  0  0  0  0  0  0  0  0  0
   20.2042   19.7360   21.3095 C   0  0  0  0  0  0  0  0  0  0  0  0
   20.3398   20.5715   22.0105 H   0  0  0  0  0  0  0  0  0  0  0  0
   19.2065   19.8531   20.8643 H   0  0  0  0  0  0  0  0  0  0  0  0
   21.2733   19.8210   20.2022 C   0  0  0  0  0  0  0  0  0  0  0  0
   22.2833   19.7376   20.6246 H   0  0  0  0  0  0  0  0  0  0  0  0
   21.2057   20.7801   19.6723 H   0  0  0  0  0  0  0  0  0  0  0  0
   21.1417   19.0171   19.4661 H   0  0  0  0  0  0  0  0  0  0  0  0
  1  2  1  0  0  0  0
  1  3  2  0  0  0  0
  1  4  1  0  0  0  0
  4  5  1  0  0  0  0
  4  6  1  0  0  0  0
  4  7  1  0  0  0  0
  7  8  1  0  0  0  0
  7  9  1  0  0  0  0
  7 10  1  0  0  0  0
 10 11  1  0  0  0  0
 10 12  1  0  0  0  0
 10 13  1  0  0  0  0
 13 14  1  0  0  0  0
 13 15  1  0  0  0  0
 13 16  1  0  0  0  0
M  END
> <VConfSearch Rank>
885

> <Conf_Id>
19

> <Delta U+W>
0.048

> <U+W>
-56.856

> <U>
8.276

> <W>
-65.132

> <W(PB)>
-67.031

> <W(SA)>
1.899

> <Valence>
6.513

> <Coulomb>
1.428

> <VdW>
0.335

> <VdW6>
-5.021

> <VdW12>
5.356

> <Bond>
0.092

> <Angle>
2.417

> <Pdih>
4.003

> <Idih>
0.001

> <Tether>
0.000

$$$$
VeraChem MOL file


 16 15  0  0  0  0  0  0  0  0999 V2000     
   18.1740   17.6854   21.3356 C   0  0  0  0  0  0  0  0  0  0  0  0
   17.7926   16.9069   22.1869 O   0  5  0  0  0  0  0  0  0  0  0  0
   18.4884   17.3491   20.2111 O   0  0  0  0  0  0  0  0  0  0  0  0
   18.2385   19.1679   21.6928 C   0  0  0  0  0  0  0  0  0  0  0  0
   17.3063   19.4213   22.2115 H   0  0  0  0  0  0  0  0  0  0  0  0
   18.2536   19.7519   20.7644 H   0  0  0  0  0  0  0  0  0  0  0  0
   19.4474   19.5510   22.5854 C   0  0  0  0  0  0  0  0  0  0  0  0
   19.3376   20.5962   22.9048 H   0  0  0  0  0  0  0  0  0  0  0  0
   19.4351   18.9385   23.4977 H   0  0  0  0  0  0  0  0  0  0  0  0
   20.7994   19.3805   21.8592 C   0  0  0  0  0  0  0  0  0  0  0  0
   20.8056   19.9839   20.9409 H   0  0  0  0  0  0  0  0  0  0  0  0
   20.9296   18.3333   21.5527 H   0  0  0  0  0  0  0  0  0  0  0  0
   21.9809   19.7998   22.7563 C   0  0  0  0  0  0  0  0  0  0  0  0
   21.8960   20.8540   23.0510 H   0  0  0  0  0  0  0  0  0  0  0  0
   22.9334   19.6717   22.2260 H   0  0  0  0  0  0  0  0  0  0  0  0
   22.0163   19.1902   23.6688 H   0  0  0  0  0  0  0  0  0  0  0  0
  1  2  1  0  0  0  0
  1  3  2  0  0  0  0
  1  4  1  0  0  0  0
  4  5  1  0  0  0  0
  4  6  1  0  0  0  0
  4  7  1  0  0  0  0
  7  8  1  0  0  0  0
  7  9  1  0  0  0  0
  7 10  1  0  0  0  0
 10 11  1  0  0  0  0
 10 12  1  0  0  0  0
 10 13  1  0  0  0  0
 13 14  1  0  0  0  0
 13 15  1  0  0  0  0
 13 16  1  0  0  0  0
M  END
> <VConfSearch Rank>
886

> <Conf_Id>
20

> <Delta U+W>
-0.010

> <U+W>
-56.914

> <U>
8.277

> <W>
-65.191

> <W(PB)>
-67.081

> <W(SA)>
1.890

> <Valence>
6.513

> <Coulomb>
1.429

> <VdW>
0.335

> <VdW6>
-5.021

> <VdW12>
5.356

> <Bond>
0.092

> <Angle>
2.417

> <Pdih>
4.002

> <Idih>
0.001

> <Tether>
0.000

$$$$
VeraChem MOL file


 16 15  0  0  0  0  0  0  0  0999 V2000     
   19.2929   21.2252   21.9876 C   0  0  0  0  0  0  0  0  0  0  0  0
   20.0621   22.0989   21.6385 O   0  5  0  0  0  0  0  0  0  0  0  0
   18.5419   21.3334   22.9365 O   0  0  0  0  0  0  0  0  0  0  0  0
   19.2456   19.9383   21.1682 C   0  0  0  0  0  0  0  0  0  0  0  0
   19.1365   20.2262   20.1160 H   0  0  0  0  0  0  0  0  0  0  0  0
   18.3376   19.3851   21.4339 H   0  0  0  0  0  0  0  0  0  0  0  0
   20.5013   19.0377   21.3256 C   0  0  0  0  0  0  0  0  0  0  0  0
   20.4174   18.1805   20.6441 H   0  0  0  0  0  0  0  0  0  0  0  0
   21.3848   19.6043   21.0004 H   0  0  0  0  0  0  0  0  0  0  0  0
   20.7401   18.5221   22.7648 C   0  0  0  0  0  0  0  0  0  0  0  0
   20.8606   19.3715   23.4516 H   0  0  0  0  0  0  0  0  0  0  0  0
   21.6889   17.9688   22.7880 H   0  0  0  0  0  0  0  0  0  0  0  0
   19.6130   17.5996   23.2757 C   0  0  0  0  0  0  0  0  0  0  0  0
   18.6688   18.1482   23.3857 H   0  0  0  0  0  0  0  0  0  0  0  0
   19.8722   17.1855   24.2586 H   0  0  0  0  0  0  0  0  0  0  0  0
   19.4480   16.7605   22.5874 H   0  0  0  0  0  0  0  0  0  0  0  0
  1  2  1  0  0  0  0
  1  3  2  0  0  0  0
  1  4  1  0  0  0  0
  4  5  1  0  0  0  0
  4  6  1  0  0  0  0
  4  7  1  0  0  0  0
  7  8  1  0  0  0  0
  7  9  1  0  0  0  0
  7 10  1  0  0  0  0
 10 11  1  0  0  0  0
 10 12  1  0  0  0  0
 10 13  1  0  0  0  0
 13 14  1  0  0  0  0
 13 15  1  0  0  0  0
 13 16  1  0  0  0  0
M  END
> <VConfSearch Rank>
887

> <Conf_Id>
37

> <Delta U+W>
1.063

> <U+W>
-55.841

> <U>
9.719

> <W>
-65.560

> <W(PB)>
-67.414

> <W(SA)>
1.854

> <Valence>
7.002

> <Coulomb>
2.402

> <VdW>
0.314

> <VdW6>
-5.861

> <VdW12>
6.175

> <Bond>
0.134

> <Angle>
2.733

> <Pdih>
4.133

> <Idih>
0.002

> <Tether>
0.000

$$$$
VeraChem MOL file


 16 15  0  0  0  0  0  0  0  0999 V2000     
   20.4636   17.5758   20.7318 C   0  0  0  0  0  0  0  0  0  0  0  0
   20.9871   16.5144   21.0079 O   0  5  0  0  0  0  0  0  0  0  0  0
   19.4498   17.6707   20.0689 O   0  0  0  0  0  0  0  0  0  0  0  0
   21.1367   18.8576   21.2154 C   0  0  0  0  0  0  0  0  0  0  0  0
   20.7121   19.7064   20.6674 H   0  0  0  0  0  0  0  0  0  0  0  0
   22.1928   18.7993   20.9271 H   0  0  0  0  0  0  0  0  0  0  0  0
   21.0359   19.0896   22.7479 C   0  0  0  0  0  0  0  0  0  0  0  0
   21.5179   18.2481   23.2646 H   0  0  0  0  0  0  0  0  0  0  0  0
   21.6122   19.9857   23.0152 H   0  0  0  0  0  0  0  0  0  0  0  0
   19.5894   19.2384   23.2767 C   0  0  0  0  0  0  0  0  0  0  0  0
   19.6207   19.3144   24.3723 H   0  0  0  0  0  0  0  0  0  0  0  0
   19.0114   18.3327   23.0460 H   0  0  0  0  0  0  0  0  0  0  0  0
   18.8593   20.4757   22.7123 C   0  0  0  0  0  0  0  0  0  0  0  0
   19.4346   21.3919   22.8987 H   0  0  0  0  0  0  0  0  0  0  0  0
   17.8763   20.5905   23.1870 H   0  0  0  0  0  0  0  0  0  0  0  0
   18.6964   20.3829   21.6310 H   0  0  0  0  0  0  0  0  0  0  0  0
  1  2  1  0  0  0  0
  1  3  2  0  0  0  0
  1  4  1  0  0  0  0
  4  5  1  0  0  0  0
  4  6  1  0  0  0  0
  4  7  1  0  0  0  0
  7  8  1  0  0  0  0
  7  9  1  0  0  0  0
  7 10  1  0  0  0  0
 10 11  1  0  0  0  0
 10 12  1  0  0  0  0
 10 13  1  0  0  0  0
 13 14  1  0  0  0  0
 13 15  1  0  0  0  0
 13 16  1  0  0  0  0
M  END
> <VConfSearch Rank>
888

> <Conf_Id>
39

> <Delta U+W>
1.129

> <U+W>
-55.775

> <U>
9.718

> <W>
-65.493

> <W(PB)>
-67.361

> <W(SA)>
1.869

> <Valence>
7.002

> <Coulomb>
2.402

> <VdW>
0.314

> <VdW6>
-5.861

> <VdW12>
6.175

> <Bond>
0.134

> <Angle>
2.734

> <Pdih>
4.133

> <Idih>
0.002

> <Tether>
0.000

$$$$
VeraChem MOL file


 16 15  0  0  0  0  0  0  0  0999 V2000     
   18.1550   19.0828   21.2996 C   0  0  0  0  0  0  0  0  0  0  0  0
   17.2249   18.9309   22.0669 O   0  5  0  0  0  0  0  0  0  0  0  0
   18.2822   18.4503   20.2696 O   0  0  0  0  0  0  0  0  0  0  0  0
   19.1657   20.1876   21.6018 C   0  0  0  0  0  0  0  0  0  0  0  0
   18.8619   20.7085   22.5180 H   0  0  0  0  0  0  0  0  0  0  0  0
   19.0817   20.9147   20.7857 H   0  0  0  0  0  0  0  0  0  0  0  0
   20.6450   19.7225   21.7131 C   0  0  0  0  0  0  0  0  0  0  0  0
   20.8828   19.0309   20.8929 H   0  0  0  0  0  0  0  0  0  0  0  0
   21.2884   20.6004   21.5649 H   0  0  0  0  0  0  0  0  0  0  0  0
   21.0224   19.0850   23.0720 C   0  0  0  0  0  0  0  0  0  0  0  0
   20.7813   19.7786   23.8893 H   0  0  0  0  0  0  0  0  0  0  0  0
   22.1117   18.9436   23.0987 H   0  0  0  0  0  0  0  0  0  0  0  0
   20.3463   17.7226   23.3311 C   0  0  0  0  0  0  0  0  0  0  0  0
   19.2652   17.8347   23.4782 H   0  0  0  0  0  0  0  0  0  0  0  0
   20.7558   17.2568   24.2367 H   0  0  0  0  0  0  0  0  0  0  0  0
   20.5110   17.0348   22.4914 H   0  0  0  0  0  0  0  0  0  0  0  0
  1  2  1  0  0  0  0
  1  3  2  0  0  0  0
  1  4  1  0  0  0  0
  4  5  1  0  0  0  0
  4  6  1  0  0  0  0
  4  7  1  0  0  0  0
  7  8  1  0  0  0  0
  7  9  1  0  0  0  0
  7 10  1  0  0  0  0
 10 11  1  0  0  0  0
 10 12  1  0  0  0  0
 10 13  1  0  0  0  0
 13 14  1  0  0  0  0
 13 15  1  0  0  0  0
 13 16  1  0  0  0  0
M  END
> <VConfSearch Rank>
889

> <Conf_Id>
47

> <Delta U+W>
2.301

> <U+W>
-54.603

> <U>
11.258

> <W>
-65.861

> <W(PB)>
-67.702

> <W(SA)>
1.841

> <Valence>
8.169

> <Coulomb>
2.735

> <VdW>
0.355

> <VdW6>
-6.245

> <VdW12>
6.600

> <Bond>
0.149

> <Angle>
3.168

> <Pdih>
4.840

> <Idih>
0.011

> <Tether>
0.000

$$$$
VeraChem MOL file


 16 15  0  0  0  0  0  0  0  0999 V2000     
   19.1735   20.3963   23.6222 C   0  0  0  0  0  0  0  0  0  0  0  0
   18.0143   20.6468   23.3561 O   0  5  0  0  0  0  0  0  0  0  0  0
   19.9973   21.2486   23.8896 O   0  0  0  0  0  0  0  0  0  0  0  0
   19.5960   18.9311   23.7137 C   0  0  0  0  0  0  0  0  0  0  0  0
   18.9964   18.4863   24.5164 H   0  0  0  0  0  0  0  0  0  0  0  0
   20.6421   18.8811   24.0395 H   0  0  0  0  0  0  0  0  0  0  0  0
   19.3968   18.0998   22.4152 C   0  0  0  0  0  0  0  0  0  0  0  0
   19.3800   17.0370   22.6923 H   0  0  0  0  0  0  0  0  0  0  0  0
   18.4108   18.3149   21.9804 H   0  0  0  0  0  0  0  0  0  0  0  0
   20.5014   18.2917   21.3481 C   0  0  0  0  0  0  0  0  0  0  0  0
   20.3497   17.5481   20.5536 H   0  0  0  0  0  0  0  0  0  0  0  0
   21.4855   18.0775   21.7872 H   0  0  0  0  0  0  0  0  0  0  0  0
   20.5131   19.6954   20.7079 C   0  0  0  0  0  0  0  0  0  0  0  0
   21.2185   19.7283   19.8676 H   0  0  0  0  0  0  0  0  0  0  0  0
   20.8239   20.4609   21.4293 H   0  0  0  0  0  0  0  0  0  0  0  0
   19.5188   19.9632   20.3270 H   0  0  0  0  0  0  0  0  0  0  0  0
  1  2  1  0  0  0  0
  1  3  2  0  0  0  0
  1  4  1  0  0  0  0
  4  5  1  0  0  0  0
  4  6  1  0  0  0  0
  4  7  1  0  0  0  0
  7  8  1  0  0  0  0
  7  9  1  0  0  0  0
  7 10  1  0  0  0  0
 10 11  1  0  0  0  0
 10 12  1  0  0  0  0
 10 13  1  0  0  0  0
 13 14  1  0  0  0  0
 13 15  1  0  0  0  0
 13 16  1  0  0  0  0
M  END
> <VConfSearch Rank>
890

> <Conf_Id>
45

> <Delta U+W>
2.303

> <U+W>
-54.601

> <U>
11.258

> <W>
-65.860

> <W(PB)>
-67.709

> <W(SA)>
1.849

> <Valence>
8.169

> <Coulomb>
2.735

> <VdW>
0.355

> <VdW6>
-6.245

> <VdW12>
6.600

> <Bond>
0.149

> <Angle>
3.168

> <Pdih>
4.840

> <Idih>
0.011

> <Tether>
0.000

$$$$
VeraChem MOL file


 16 15  0  0  0  0  0  0  0  0999 V2000     
   20.4652   16.4027   21.8504 C   0  0  0  0  0  0  0  0  0  0  0  0
   21.3910   16.4421   22.6372 O   0  5  0  0  0  0  0  0  0  0  0  0
   20.0729   15.3725   21.3404 O   0  0  0  0  0  0  0  0  0  0  0  0
   19.7405   17.6933   21.4641 C   0  0  0  0  0  0  0  0  0  0  0  0
   18.6805   17.5598   21.7108 H   0  0  0  0  0  0  0  0  0  0  0  0
   19.8061   17.7917   20.3740 H   0  0  0  0  0  0  0  0  0  0  0  0
   20.2768   18.9834   22.1395 C   0  0  0  0  0  0  0  0  0  0  0  0
   20.2136   18.8767   23.2314 H   0  0  0  0  0  0  0  0  0  0  0  0
   21.3403   19.1089   21.8932 H   0  0  0  0  0  0  0  0  0  0  0  0
   19.4898   20.2337   21.6939 C   0  0  0  0  0  0  0  0  0  0  0  0
   18.4263   20.1103   21.9412 H   0  0  0  0  0  0  0  0  0  0  0  0
   19.5537   20.3426   20.6023 H   0  0  0  0  0  0  0  0  0  0  0  0
   20.0271   21.5117   22.3680 C   0  0  0  0  0  0  0  0  0  0  0  0
   19.9462   21.4429   23.4608 H   0  0  0  0  0  0  0  0  0  0  0  0
   19.4569   22.3908   22.0405 H   0  0  0  0  0  0  0  0  0  0  0  0
   21.0819   21.6770   22.1120 H   0  0  0  0  0  0  0  0  0  0  0  0
  1  2  1  0  0  0  0
  1  3  2  0  0  0  0
  1  4  1  0  0  0  0
  4  5  1  0  0  0  0
  4  6  1  0  0  0  0
  4  7  1  0  0  0  0
  7  8  1  0  0  0  0
  7  9  1  0  0  0  0
  7 10  1  0  0  0  0
 10 11  1  0  0  0  0
 10 12  1  0  0  0  0
 10 13  1  0  0  0  0
 13 14  1  0  0  0  0
 13 15  1  0  0  0  0
 13 16  1  0  0  0  0
M  END
> <VConfSearch Rank>
891

> <Conf_Id>
0

> <Delta U+W>
0.000

> <U+W>
-56.904

> <U>
7.329

> <W>
-64.233

> <W(PB)>
-66.148

> <W(SA)>
1.915

> <Valence>
6.755

> <Coulomb>
-0.421

> <VdW>
0.995

> <VdW6>
-4.495

> <VdW12>
5.490

> <Bond>
0.106

> <Angle>
2.715

> <Pdih>
3.934

> <Idih>
0.000

> <Tether>
0.000

$$$$
VeraChem MOL file


 16 15  0  0  0  0  0  0  0  0999 V2000     
   21.6121   17.1239   22.9379 C   0  0  0  0  0  0  0  0  0  0  0  0
   22.0511   17.3290   24.0520 O   0  5  0  0  0  0  0  0  0  0  0  0
   21.3607   16.0157   22.5082 O   0  0  0  0  0  0  0  0  0  0  0  0
   21.3451   18.3241   22.0364 C   0  0  0  0  0  0  0  0  0  0  0  0
   21.5167   18.0155   20.9980 H   0  0  0  0  0  0  0  0  0  0  0  0
   22.0857   19.0983   22.2708 H   0  0  0  0  0  0  0  0  0  0  0  0
   19.9125   18.8903   22.1952 C   0  0  0  0  0  0  0  0  0  0  0  0
   19.1828   18.1004   21.9692 H   0  0  0  0  0  0  0  0  0  0  0  0
   19.7518   19.1831   23.2421 H   0  0  0  0  0  0  0  0  0  0  0  0
   19.6688   20.1029   21.2728 C   0  0  0  0  0  0  0  0  0  0  0  0
   19.8287   19.8103   20.2257 H   0  0  0  0  0  0  0  0  0  0  0  0
   20.3979   20.8933   21.4989 H   0  0  0  0  0  0  0  0  0  0  0  0
   18.2413   20.6611   21.4362 C   0  0  0  0  0  0  0  0  0  0  0  0
   18.0642   20.9908   22.4684 H   0  0  0  0  0  0  0  0  0  0  0  0
   17.4908   19.8998   21.1858 H   0  0  0  0  0  0  0  0  0  0  0  0
   18.0846   21.5223   20.7737 H   0  0  0  0  0  0  0  0  0  0  0  0
  1  2  1  0  0  0  0
  1  3  2  0  0  0  0
  1  4  1  0  0  0  0
  4  5  1  0  0  0  0
  4  6  1  0  0  0  0
  4  7  1  0  0  0  0
  7  8  1  0  0  0  0
  7  9  1  0  0  0  0
  7 10  1  0  0  0  0
 10 11  1  0  0  0  0
 10 12  1  0  0  0  0
 10 13  1  0  0  0  0
 13 14  1  0  0  0  0
 13 15  1  0  0  0  0
 13 16  1  0  0  0  0
M  END
> <VConfSearch Rank>
892

> <Conf_Id>
22

> <Delta U+W>
-1.185

> <U+W>
-58.089

> <U>
6.298

> <W>
-64.387

> <W(PB)>
-66.329

> <W(SA)>
1.942

> <Valence>
6.246

> <Coulomb>
-0.408

> <VdW>
0.460

> <VdW6>
-4.207

> <VdW12>
4.667

> <Bond>
0.072

> <Angle>
2.246

> <Pdih>
3.928

> <Idih>
0.001

> <Tether>
0.000

$$$$
VeraChem MOL file


 16 15  0  0  0  0  0  0  0  0999 V2000     
   19.9046   21.5913   22.8340 C   0  0  0  0  0  0  0  0  0  0  0  0
   20.6282   22.4545   22.3787 O   0  5  0  0  0  0  0  0  0  0  0  0
   19.3729   21.6667   23.9237 O   0  0  0  0  0  0  0  0  0  0  0  0
   19.6673   20.3368   22.0007 C   0  0  0  0  0  0  0  0  0  0  0  0
   19.6947   20.6210   20.9419 H   0  0  0  0  0  0  0  0  0  0  0  0
   18.6536   19.9796   22.2153 H   0  0  0  0  0  0  0  0  0  0  0  0
   20.7085   19.2225   22.2819 C   0  0  0  0  0  0  0  0  0  0  0  0
   21.7163   19.6373   22.1417 H   0  0  0  0  0  0  0  0  0  0  0  0
   20.6423   18.9162   23.3351 H   0  0  0  0  0  0  0  0  0  0  0  0
   20.5488   17.9860   21.3675 C   0  0  0  0  0  0  0  0  0  0  0  0
   21.3848   17.2980   21.5548 H   0  0  0  0  0  0  0  0  0  0  0  0
   20.6268   18.2903   20.3146 H   0  0  0  0  0  0  0  0  0  0  0  0
   19.2219   17.2299   21.5926 C   0  0  0  0  0  0  0  0  0  0  0  0
   18.3578   17.8434   21.3084 H   0  0  0  0  0  0  0  0  0  0  0  0
   19.1083   16.9406   22.6455 H   0  0  0  0  0  0  0  0  0  0  0  0
   19.1939   16.3155   20.9859 H   0  0  0  0  0  0  0  0  0  0  0  0
  1  2  1  0  0  0  0
  1  3  2  0  0  0  0
  1  4  1  0  0  0  0
  4  5  1  0  0  0  0
  4  6  1  0  0  0  0
  4  7  1  0  0  0  0
  7  8  1  0  0  0  0
  7  9  1  0  0  0  0
  7 10  1  0  0  0  0
 10 11  1  0  0  0  0
 10 12  1  0  0  0  0
 10 13  1  0  0  0  0
 13 14  1  0  0  0  0
 13 15  1  0  0  0  0
 13 16  1  0  0  0  0
M  END
> <VConfSearch Rank>
893

> <Conf_Id>
36

> <Delta U+W>
-0.427

> <U+W>
-57.331

> <U>
7.263

> <W>
-64.594

> <W(PB)>
-66.513

> <W(SA)>
1.920

> <Valence>
6.734

> <Coulomb>
-0.068

> <VdW>
0.598

> <VdW6>
-4.819

> <VdW12>
5.417

> <Bond>
0.107

> <Angle>
2.469

> <Pdih>
4.157

> <Idih>
0.001

> <Tether>
0.000

$$$$
VeraChem MOL file


 16 15  0  0  0  0  0  0  0  0999 V2000     
   18.0932   18.5838   20.2903 C   0  0  0  0  0  0  0  0  0  0  0  0
   18.3554   19.0229   19.1883 O   0  5  0  0  0  0  0  0  0  0  0  0
   16.9732   18.2658   20.6374 O   0  0  0  0  0  0  0  0  0  0  0  0
   19.2275   18.4429   21.2993 C   0  0  0  0  0  0  0  0  0  0  0  0
   20.1410   18.2020   20.7440 H   0  0  0  0  0  0  0  0  0  0  0  0
   19.0039   17.5856   21.9455 H   0  0  0  0  0  0  0  0  0  0  0  0
   19.4314   19.7191   22.1565 C   0  0  0  0  0  0  0  0  0  0  0  0
   19.6967   20.5614   21.5026 H   0  0  0  0  0  0  0  0  0  0  0  0
   18.4757   19.9827   22.6304 H   0  0  0  0  0  0  0  0  0  0  0  0
   20.5037   19.5555   23.2582 C   0  0  0  0  0  0  0  0  0  0  0  0
   20.2325   18.7207   23.9193 H   0  0  0  0  0  0  0  0  0  0  0  0
   20.5077   20.4586   23.8840 H   0  0  0  0  0  0  0  0  0  0  0  0
   21.9243   19.3327   22.6967 C   0  0  0  0  0  0  0  0  0  0  0  0
   21.9972   18.3804   22.1569 H   0  0  0  0  0  0  0  0  0  0  0  0
   22.6595   19.3097   23.5115 H   0  0  0  0  0  0  0  0  0  0  0  0
   22.2064   20.1412   22.0097 H   0  0  0  0  0  0  0  0  0  0  0  0
  1  2  1  0  0  0  0
  1  3  2  0  0  0  0
  1  4  1  0  0  0  0
  4  5  1  0  0  0  0
  4  6  1  0  0  0  0
  4  7  1  0  0  0  0
  7  8  1  0  0  0  0
  7  9  1  0  0  0  0
  7 10  1  0  0  0  0
 10 11  1  0  0  0  0
 10 12  1  0  0  0  0
 10 13  1  0  0  0  0
 13 14  1  0  0  0  0
 13 15  1  0  0  0  0
 13 16  1  0  0  0  0
M  END
> <VConfSearch Rank>
894

> <Conf_Id>
17

> <Delta U+W>
-0.432

> <U+W>
-57.336

> <U>
7.263

> <W>
-64.599

> <W(PB)>
-66.503

> <W(SA)>
1.904

> <Valence>
6.734

> <Coulomb>
-0.068

> <VdW>
0.598

> <VdW6>
-4.819

> <VdW12>
5.417

> <Bond>
0.107

> <Angle>
2.469

> <Pdih>
4.157

> <Idih>
0.001

> <Tether>
0.000

$$$$
VeraChem MOL file


 16 15  0  0  0  0  0  0  0  0999 V2000     
   18.7150   17.2868   22.5005 C   0  0  0  0  0  0  0  0  0  0  0  0
   18.6835   16.4858   21.5875 O   0  5  0  0  0  0  0  0  0  0  0  0
   18.8846   16.9739   23.6623 O   0  0  0  0  0  0  0  0  0  0  0  0
   18.5062   18.7624   22.1711 C   0  0  0  0  0  0  0  0  0  0  0  0
   18.2171   19.2890   23.0888 H   0  0  0  0  0  0  0  0  0  0  0  0
   17.6528   18.8281   21.4858 H   0  0  0  0  0  0  0  0  0  0  0  0
   19.7399   19.4471   21.5276 C   0  0  0  0  0  0  0  0  0  0  0  0
   20.0353   18.8925   20.6260 H   0  0  0  0  0  0  0  0  0  0  0  0
   19.4566   20.4563   21.1993 H   0  0  0  0  0  0  0  0  0  0  0  0
   20.9377   19.5451   22.4971 C   0  0  0  0  0  0  0  0  0  0  0  0
   21.2433   18.5390   22.8165 H   0  0  0  0  0  0  0  0  0  0  0  0
   20.6374   20.0890   23.4034 H   0  0  0  0  0  0  0  0  0  0  0  0
   22.1378   20.2591   21.8442 C   0  0  0  0  0  0  0  0  0  0  0  0
   22.4782   19.7180   20.9516 H   0  0  0  0  0  0  0  0  0  0  0  0
   22.9800   20.3196   22.5457 H   0  0  0  0  0  0  0  0  0  0  0  0
   21.8717   21.2815   21.5451 H   0  0  0  0  0  0  0  0  0  0  0  0
  1  2  1  0  0  0  0
  1  3  2  0  0  0  0
  1  4  1  0  0  0  0
  4  5  1  0  0  0  0
  4  6  1  0  0  0  0
  4  7  1  0  0  0  0
  7  8  1  0  0  0  0
  7  9  1  0  0  0  0
  7 10  1  0  0  0  0
 10 11  1  0  0  0  0
 10 12  1  0  0  0  0
 10 13  1  0  0  0  0
 13 14  1  0  0  0  0
 13 15  1  0  0  0  0
 13 16  1  0  0  0  0
M  END
> <VConfSearch Rank>
895

> <Conf_Id>
19

> <Delta U+W>
0.048

> <U+W>
-56.856

> <U>
8.276

> <W>
-65.132

> <W(PB)>
-67.031

> <W(SA)>
1.899

> <Valence>
6.513

> <Coulomb>
1.428

> <VdW>
0.335

> <VdW6>
-5.021

> <VdW12>
5.356

> <Bond>
0.092

> <Angle>
2.417

> <Pdih>
4.003

> <Idih>
0.001

> <Tether>
0.000

$$$$
VeraChem MOL file


 16 15  0  0  0  0  0  0  0  0999 V2000     
   18.1112   19.3843   23.6657 C   0  0  0  0  0  0  0  0  0  0  0  0
   17.1653   18.6537   23.4470 O   0  5  0  0  0  0  0  0  0  0  0  0
   18.0027   20.5729   23.8931 O   0  0  0  0  0  0  0  0  0  0  0  0
   19.5079   18.7691   23.6782 C   0  0  0  0  0  0  0  0  0  0  0  0
   19.4536   17.8433   24.2631 H   0  0  0  0  0  0  0  0  0  0  0  0
   20.1838   19.4449   24.2163 H   0  0  0  0  0  0  0  0  0  0  0  0
   20.0740   18.4575   22.2684 C   0  0  0  0  0  0  0  0  0  0  0  0
   21.0114   17.8953   22.3770 H   0  0  0  0  0  0  0  0  0  0  0  0
   19.3733   17.8033   21.7311 H   0  0  0  0  0  0  0  0  0  0  0  0
   20.3389   19.7330   21.4395 C   0  0  0  0  0  0  0  0  0  0  0  0
   21.0300   20.3917   21.9836 H   0  0  0  0  0  0  0  0  0  0  0  0
   19.4031   20.2936   21.3069 H   0  0  0  0  0  0  0  0  0  0  0  0
   20.9322   19.3968   20.0570 C   0  0  0  0  0  0  0  0  0  0  0  0
   21.8876   18.8654   20.1578 H   0  0  0  0  0  0  0  0  0  0  0  0
   21.1135   20.3135   19.4809 H   0  0  0  0  0  0  0  0  0  0  0  0
   20.2464   18.7634   19.4792 H   0  0  0  0  0  0  0  0  0  0  0  0
  1  2  1  0  0  0  0
  1  3  2  0  0  0  0
  1  4  1  0  0  0  0
  4  5  1  0  0  0  0
  4  6  1  0  0  0  0
  4  7  1  0  0  0  0
  7  8  1  0  0  0  0
  7  9  1  0  0  0  0
  7 10  1  0  0  0  0
 10 11  1  0  0  0  0
 10 12  1  0  0  0  0
 10 13  1  0  0  0  0
 13 14  1  0  0  0  0
 13 15  1  0  0  0  0
 13 16  1  0  0  0  0
M  END
> <VConfSearch Rank>
896

> <Conf_Id>
20

> <Delta U+W>
-0.010

> <U+W>
-56.914

> <U>
8.277

> <W>
-65.191

> <W(PB)>
-67.081

> <W(SA)>
1.890

> <Valence>
6.513

> <Coulomb>
1.429

> <VdW>
0.335

> <VdW6>
-5.021

> <VdW12>
5.356

> <Bond>
0.092

> <Angle>
2.417

> <Pdih>
4.002

> <Idih>
0.001

> <Tether>
0.000

$$$$
VeraChem MOL file


 16 15  0  0  0  0  0  0  0  0999 V2000     
   19.8232   17.7153   20.5837 C   0  0  0  0  0  0  0  0  0  0  0  0
   20.6485   16.8308   20.4689 O   0  5  0  0  0  0  0  0  0  0  0  0
   19.4546   18.4122   19.6592 O   0  0  0  0  0  0  0  0  0  0  0  0
   19.1930   17.9379   21.9560 C   0  0  0  0  0  0  0  0  0  0  0  0
   18.8460   16.9625   22.3168 H   0  0  0  0  0  0  0  0  0  0  0  0
   18.2987   18.5600   21.8358 H   0  0  0  0  0  0  0  0  0  0  0  0
   20.1556   18.5596   23.0046 C   0  0  0  0  0  0  0  0  0  0  0  0
   19.6462   18.6088   23.9764 H   0  0  0  0  0  0  0  0  0  0  0  0
   21.0127   17.8855   23.1399 H   0  0  0  0  0  0  0  0  0  0  0  0
   20.6803   19.9669   22.6332 C   0  0  0  0  0  0  0  0  0  0  0  0
   21.2228   19.9245   21.6785 H   0  0  0  0  0  0  0  0  0  0  0  0
   21.4116   20.2815   23.3905 H   0  0  0  0  0  0  0  0  0  0  0  0
   19.5641   21.0296   22.5472 C   0  0  0  0  0  0  0  0  0  0  0  0
   18.8767   20.8185   21.7181 H   0  0  0  0  0  0  0  0  0  0  0  0
   19.9944   22.0248   22.3759 H   0  0  0  0  0  0  0  0  0  0  0  0
   18.9832   21.0673   23.4779 H   0  0  0  0  0  0  0  0  0  0  0  0
  1  2  1  0  0  0  0
  1  3  2  0  0  0  0
  1  4  1  0  0  0  0
  4  5  1  0  0  0  0
  4  6  1  0  0  0  0
  4  7  1  0  0  0  0
  7  8  1  0  0  0  0
  7  9  1  0  0  0  0
  7 10  1  0  0  0  0
 10 11  1  0  0  0  0
 10 12  1  0  0  0  0
 10 13  1  0  0  0  0
 13 14  1  0  0  0  0
 13 15  1  0  0  0  0
 13 16  1  0  0  0  0
M  END
> <VConfSearch Rank>
897

> <Conf_Id>
37

> <Delta U+W>
1.063

> <U+W>
-55.841

> <U>
9.719

> <W>
-65.560

> <W(PB)>
-67.414

> <W(SA)>
1.854

> <Valence>
7.002

> <Coulomb>
2.402

> <VdW>
0.314

> <VdW6>
-5.861

> <VdW12>
6.175

> <Bond>
0.134

> <Angle>
2.733

> <Pdih>
4.133

> <Idih>
0.002

> <Tether>
0.000

$$$$
VeraChem MOL file


 16 15  0  0  0  0  0  0  0  0999 V2000     
   18.7061   19.6789   20.6649 C   0  0  0  0  0  0  0  0  0  0  0  0
   17.9408   18.8830   20.1573 O   0  5  0  0  0  0  0  0  0  0  0  0
   18.3654   20.7738   21.0665 O   0  0  0  0  0  0  0  0  0  0  0  0
   20.1793   19.2937   20.7707 C   0  0  0  0  0  0  0  0  0  0  0  0
   20.7642   20.1951   20.9864 H   0  0  0  0  0  0  0  0  0  0  0  0
   20.4971   18.9475   19.7802 H   0  0  0  0  0  0  0  0  0  0  0  0
   20.4734   18.1862   21.8193 C   0  0  0  0  0  0  0  0  0  0  0  0
   19.9143   17.2815   21.5431 H   0  0  0  0  0  0  0  0  0  0  0  0
   21.5373   17.9175   21.7706 H   0  0  0  0  0  0  0  0  0  0  0  0
   20.1121   18.5726   23.2733 C   0  0  0  0  0  0  0  0  0  0  0  0
   20.2778   17.7008   23.9212 H   0  0  0  0  0  0  0  0  0  0  0  0
   19.0415   18.8102   23.3427 H   0  0  0  0  0  0  0  0  0  0  0  0
   20.9411   19.7579   23.8120 C   0  0  0  0  0  0  0  0  0  0  0  0
   22.0170   19.5600   23.7211 H   0  0  0  0  0  0  0  0  0  0  0  0
   20.7171   19.9321   24.8724 H   0  0  0  0  0  0  0  0  0  0  0  0
   20.7119   20.6834   23.2685 H   0  0  0  0  0  0  0  0  0  0  0  0
  1  2  1  0  0  0  0
  1  3  2  0  0  0  0
  1  4  1  0  0  0  0
  4  5  1  0  0  0  0
  4  6  1  0  0  0  0
  4  7  1  0  0  0  0
  7  8  1  0  0  0  0
  7  9  1  0  0  0  0
  7 10  1  0  0  0  0
 10 11  1  0  0  0  0
 10 12  1  0  0  0  0
 10 13  1  0  0  0  0
 13 14  1  0  0  0  0
 13 15  1  0  0  0  0
 13 16  1  0  0  0  0
M  END
> <VConfSearch Rank>
898

> <Conf_Id>
39

> <Delta U+W>
1.129

> <U+W>
-55.775

> <U>
9.718

> <W>
-65.493

> <W(PB)>
-67.361

> <W(SA)>
1.869

> <Valence>
7.002

> <Coulomb>
2.402

> <VdW>
0.314

> <VdW6>
-5.861

> <VdW12>
6.175

> <Bond>
0.134

> <Angle>
2.734

> <Pdih>
4.133

> <Idih>
0.002

> <Tether>
0.000

$$$$
VeraChem MOL file


 16 15  0  0  0  0  0  0  0  0999 V2000     
   21.0445   17.4685   22.0028 C   0  0  0  0  0  0  0  0  0  0  0  0
   21.9408   17.6917   21.2131 O   0  5  0  0  0  0  0  0  0  0  0  0
   20.3283   16.4885   21.9419 O   0  0  0  0  0  0  0  0  0  0  0  0
   20.8693   18.4225   23.1830 C   0  0  0  0  0  0  0  0  0  0  0  0
   21.6403   19.2009   23.1302 H   0  0  0  0  0  0  0  0  0  0  0  0
   21.0765   17.8373   24.0865 H   0  0  0  0  0  0  0  0  0  0  0  0
   19.4610   19.0684   23.3119 C   0  0  0  0  0  0  0  0  0  0  0  0
   18.6842   18.3064   23.1588 H   0  0  0  0  0  0  0  0  0  0  0  0
   19.3420   19.4183   24.3462 H   0  0  0  0  0  0  0  0  0  0  0  0
   19.2142   20.2748   22.3743 C   0  0  0  0  0  0  0  0  0  0  0  0
   19.9939   21.0333   22.5291 H   0  0  0  0  0  0  0  0  0  0  0  0
   18.2638   20.7471   22.6589 H   0  0  0  0  0  0  0  0  0  0  0  0
   19.1449   19.8992   20.8795 C   0  0  0  0  0  0  0  0  0  0  0  0
   20.1229   19.5752   20.5033 H   0  0  0  0  0  0  0  0  0  0  0  0
   18.8311   20.7639   20.2806 H   0  0  0  0  0  0  0  0  0  0  0  0
   18.4238   19.0889   20.7097 H   0  0  0  0  0  0  0  0  0  0  0  0
  1  2  1  0  0  0  0
  1  3  2  0  0  0  0
  1  4  1  0  0  0  0
  4  5  1  0  0  0  0
  4  6  1  0  0  0  0
  4  7  1  0  0  0  0
  7  8  1  0  0  0  0
  7  9  1  0  0  0  0
  7 10  1  0  0  0  0
 10 11  1  0  0  0  0
 10 12  1  0  0  0  0
 10 13  1  0  0  0  0
 13 14  1  0  0  0  0
 13 15  1  0  0  0  0
 13 16  1  0  0  0  0
M  END
> <VConfSearch Rank>
899

> <Conf_Id>
47

> <Delta U+W>
2.301

> <U+W>
-54.603

> <U>
11.258

> <W>
-65.861

> <W(PB)>
-67.702

> <W(SA)>
1.841

> <Valence>
8.169

> <Coulomb>
2.735

> <VdW>
0.355

> <VdW6>
-6.245

> <VdW12>
6.600

> <Bond>
0.149

> <Angle>
3.168

> <Pdih>
4.840

> <Idih>
0.011

> <Tether>
0.000

$$$$
VeraChem MOL file


 16 15  0  0  0  0  0  0  0  0999 V2000     
   19.2743   20.6084   21.0894 C   0  0  0  0  0  0  0  0  0  0  0  0
   18.3351   21.1670   21.6214 O   0  5  0  0  0  0  0  0  0  0  0  0
   19.2806   20.2782   19.9199 O   0  0  0  0  0  0  0  0  0  0  0  0
   20.5461   20.3904   21.9070 C   0  0  0  0  0  0  0  0  0  0  0  0
   20.9054   21.3865   22.1907 H   0  0  0  0  0  0  0  0  0  0  0  0
   21.3157   19.9523   21.2599 H   0  0  0  0  0  0  0  0  0  0  0  0
   20.3713   19.5322   23.1915 C   0  0  0  0  0  0  0  0  0  0  0  0
   21.2173   19.7449   23.8590 H   0  0  0  0  0  0  0  0  0  0  0  0
   19.4701   19.8497   23.7343 H   0  0  0  0  0  0  0  0  0  0  0  0
   20.3345   18.0041   22.9487 C   0  0  0  0  0  0  0  0  0  0  0  0
   20.3705   17.4967   23.9227 H   0  0  0  0  0  0  0  0  0  0  0  0
   21.2361   17.6910   22.4044 H   0  0  0  0  0  0  0  0  0  0  0  0
   19.0786   17.5225   22.1930 C   0  0  0  0  0  0  0  0  0  0  0  0
   19.0391   16.4258   22.1736 H   0  0  0  0  0  0  0  0  0  0  0  0
   19.0802   17.8707   21.1529 H   0  0  0  0  0  0  0  0  0  0  0  0
   18.1632   17.8867   22.6776 H   0  0  0  0  0  0  0  0  0  0  0  0
  1  2  1  0  0  0  0
  1  3  2  0  0  0  0
  1  4  1  0  0  0  0
  4  5  1  0  0  0  0
  4  6  1  0  0  0  0
  4  7  1  0  0  0  0
  7  8  1  0  0  0  0
  7  9  1  0  0  0  0
  7 10  1  0  0  0  0
 10 11  1  0  0  0  0
 10 12  1  0  0  0  0
 10 13  1  0  0  0  0
 13 14  1  0  0  0  0
 13 15  1  0  0  0  0
 13 16  1  0  0  0  0
M  END
> <VConfSearch Rank>
900

> <Conf_Id>
45

> <Delta U+W>
2.303

> <U+W>
-54.601

> <U>
11.258

> <W>
-65.860

> <W(PB)>
-67.709

> <W(SA)>
1.849

> <Valence>
8.169

> <Coulomb>
2.735

> <VdW>
0.355

> <VdW6>
-6.245

> <VdW12>
6.600

> <Bond>
0.149

> <Angle>
3.168

> <Pdih>
4.840

> <Idih>
0.011

> <Tether>
0.000

$$$$
VeraChem MOL file


 16 15  0  0  0  0  0  0  0  0999 V2000     
   21.8605   18.7442   23.9297 C   0  0  0  0  0  0  0  0  0  0  0  0
   22.6895   18.2426   23.1955 O   0  5  0  0  0  0  0  0  0  0  0  0
   22.0434   18.9106   25.1189 O   0  0  0  0  0  0  0  0  0  0  0  0
   20.5149   19.1967   23.3600 C   0  0  0  0  0  0  0  0  0  0  0  0
   20.4057   20.2638   23.5870 H   0  0  0  0  0  0  0  0  0  0  0  0
   19.7304   18.6689   23.9150 H   0  0  0  0  0  0  0  0  0  0  0  0
   20.3265   18.9634   21.8374 C   0  0  0  0  0  0  0  0  0  0  0  0
   21.1184   19.4901   21.2870 H   0  0  0  0  0  0  0  0  0  0  0  0
   20.4424   17.8935   21.6153 H   0  0  0  0  0  0  0  0  0  0  0  0
   18.9450   19.4480   21.3495 C   0  0  0  0  0  0  0  0  0  0  0  0
   18.8285   20.5183   21.5694 H   0  0  0  0  0  0  0  0  0  0  0  0
   18.1521   18.9208   21.8980 H   0  0  0  0  0  0  0  0  0  0  0  0
   18.7639   19.2136   19.8368 C   0  0  0  0  0  0  0  0  0  0  0  0
   19.5259   19.7556   19.2614 H   0  0  0  0  0  0  0  0  0  0  0  0
   17.7772   19.5635   19.5065 H   0  0  0  0  0  0  0  0  0  0  0  0
   18.8445   18.1463   19.5924 H   0  0  0  0  0  0  0  0  0  0  0  0
  1  2  1  0  0  0  0
  1  3  2  0  0  0  0
  1  4  1  0  0  0  0
  4  5  1  0  0  0  0
  4  6  1  0  0  0  0
  4  7  1  0  0  0  0
  7  8  1  0  0  0  0
  7  9  1  0  0  0  0
  7 10  1  0  0  0  0
 10 11  1  0  0  0  0
 10 12  1  0  0  0  0
 10 13  1  0  0  0  0
 13 14  1  0  0  0  0
 13 15  1  0  0  0  0
 13 16  1  0  0  0  0
M  END
> <VConfSearch Rank>
901

> <Conf_Id>
0

> <Delta U+W>
0.000

> <U+W>
-56.904

> <U>
7.329

> <W>
-64.233

> <W(PB)>
-66.148

> <W(SA)>
1.915

> <Valence>
6.755

> <Coulomb>
-0.421

> <VdW>
0.995

> <VdW6>
-4.495

> <VdW12>
5.490

> <Bond>
0.106

> <Angle>
2.715

> <Pdih>
3.934

> <Idih>
0.000

> <Tether>
0.000

$$$$
VeraChem MOL file


 16 15  0  0  0  0  0  0  0  0999 V2000     
   18.4196   21.1688   22.7562 C   0  0  0  0  0  0  0  0  0  0  0  0
   17.5956   20.8635   23.5951 O   0  5  0  0  0  0  0  0  0  0  0  0
   18.9166   22.2743   22.6737 O   0  0  0  0  0  0  0  0  0  0  0  0
   18.8678   20.1013   21.7642 C   0  0  0  0  0  0  0  0  0  0  0  0
   19.1077   20.5965   20.8155 H   0  0  0  0  0  0  0  0  0  0  0  0
   18.0187   19.4333   21.5753 H   0  0  0  0  0  0  0  0  0  0  0  0
   20.0864   19.2872   22.2645 C   0  0  0  0  0  0  0  0  0  0  0  0
   20.9239   19.9710   22.4610 H   0  0  0  0  0  0  0  0  0  0  0  0
   19.8349   18.8078   23.2208 H   0  0  0  0  0  0  0  0  0  0  0  0
   20.5191   18.2149   21.2431 C   0  0  0  0  0  0  0  0  0  0  0  0
   20.7713   18.6940   20.2868 H   0  0  0  0  0  0  0  0  0  0  0  0
   19.6820   17.5305   21.0468 H   0  0  0  0  0  0  0  0  0  0  0  0
   21.7322   17.4087   21.7476 C   0  0  0  0  0  0  0  0  0  0  0  0
   21.4974   16.8930   22.6880 H   0  0  0  0  0  0  0  0  0  0  0  0
   22.5948   18.0651   21.9224 H   0  0  0  0  0  0  0  0  0  0  0  0
   22.0269   16.6509   21.0099 H   0  0  0  0  0  0  0  0  0  0  0  0
  1  2  1  0  0  0  0
  1  3  2  0  0  0  0
  1  4  1  0  0  0  0
  4  5  1  0  0  0  0
  4  6  1  0  0  0  0
  4  7  1  0  0  0  0
  7  8  1  0  0  0  0
  7  9  1  0  0  0  0
  7 10  1  0  0  0  0
 10 11  1  0  0  0  0
 10 12  1  0  0  0  0
 10 13  1  0  0  0  0
 13 14  1  0  0  0  0
 13 15  1  0  0  0  0
 13 16  1  0  0  0  0
M  END
> <VConfSearch Rank>
902

> <Conf_Id>
22

> <Delta U+W>
-1.185

> <U+W>
-58.089

> <U>
6.298

> <W>
-64.387

> <W(PB)>
-66.329

> <W(SA)>
1.942

> <Valence>
6.246

> <Coulomb>
-0.408

> <VdW>
0.460

> <VdW6>
-4.207

> <VdW12>
4.667

> <Bond>
0.072

> <Angle>
2.246

> <Pdih>
3.928

> <Idih>
0.001

> <Tether>
0.000

$$$$
VeraChem MOL file


 16 15  0  0  0  0  0  0  0  0999 V2000     
   21.7280   17.3915   22.7045 C   0  0  0  0  0  0  0  0  0  0  0  0
   21.4523   16.4438   23.4128 O   0  5  0  0  0  0  0  0  0  0  0  0
   22.8560   17.8211   22.5667 O   0  0  0  0  0  0  0  0  0  0  0  0
   20.5939   18.0918   21.9643 C   0  0  0  0  0  0  0  0  0  0  0  0
   19.8329   17.3413   21.7189 H   0  0  0  0  0  0  0  0  0  0  0  0
   20.9956   18.4693   21.0171 H   0  0  0  0  0  0  0  0  0  0  0  0
   19.9615   19.2449   22.7861 C   0  0  0  0  0  0  0  0  0  0  0  0
   19.6479   18.8516   23.7631 H   0  0  0  0  0  0  0  0  0  0  0  0
   20.7228   20.0106   22.9893 H   0  0  0  0  0  0  0  0  0  0  0  0
   18.7393   19.8938   22.0964 C   0  0  0  0  0  0  0  0  0  0  0  0
   18.2881   20.6196   22.7871 H   0  0  0  0  0  0  0  0  0  0  0  0
   17.9729   19.1303   21.9038 H   0  0  0  0  0  0  0  0  0  0  0  0
   19.0959   20.6154   20.7792 C   0  0  0  0  0  0  0  0  0  0  0  0
   19.4458   19.9084   20.0167 H   0  0  0  0  0  0  0  0  0  0  0  0
   19.8819   21.3644   20.9419 H   0  0  0  0  0  0  0  0  0  0  0  0
   18.2158   21.1317   20.3743 H   0  0  0  0  0  0  0  0  0  0  0  0
  1  2  1  0  0  0  0
  1  3  2  0  0  0  0
  1  4  1  0  0  0  0
  4  5  1  0  0  0  0
  4  6  1  0  0  0  0
  4  7  1  0  0  0  0
  7  8  1  0  0  0  0
  7  9  1  0  0  0  0
  7 10  1  0  0  0  0
 10 11  1  0  0  0  0
 10 12  1  0  0  0  0
 10 13  1  0  0  0  0
 13 14  1  0  0  0  0
 13 15  1  0  0  0  0
 13 16  1  0  0  0  0
M  END
> <VConfSearch Rank>
903

> <Conf_Id>
36

> <Delta U+W>
-0.427

> <U+W>
-57.331

> <U>
7.263

> <W>
-64.594

> <W(PB)>
-66.513

> <W(SA)>
1.920

> <Valence>
6.734

> <Coulomb>
-0.068

> <VdW>
0.598

> <VdW6>
-4.819

> <VdW12>
5.417

> <Bond>
0.107

> <Angle>
2.469

> <Pdih>
4.157

> <Idih>
0.001

> <Tether>
0.000

$$$$
VeraChem MOL file


 16 15  0  0  0  0  0  0  0  0999 V2000     
   17.7809   17.7688   21.7716 C   0  0  0  0  0  0  0  0  0  0  0  0
   16.8359   18.3686   22.2440 O   0  5  0  0  0  0  0  0  0  0  0  0
   17.7833   16.5706   21.5711 O   0  0  0  0  0  0  0  0  0  0  0  0
   19.0394   18.5590   21.4305 C   0  0  0  0  0  0  0  0  0  0  0  0
   18.7295   19.5619   21.1155 H   0  0  0  0  0  0  0  0  0  0  0  0
   19.5184   18.0806   20.5678 H   0  0  0  0  0  0  0  0  0  0  0  0
   20.0358   18.6437   22.6159 C   0  0  0  0  0  0  0  0  0  0  0  0
   19.5591   19.1625   23.4590 H   0  0  0  0  0  0  0  0  0  0  0  0
   20.2585   17.6253   22.9635 H   0  0  0  0  0  0  0  0  0  0  0  0
   21.3644   19.3466   22.2539 C   0  0  0  0  0  0  0  0  0  0  0  0
   21.8470   18.8209   21.4184 H   0  0  0  0  0  0  0  0  0  0  0  0
   22.0503   19.2671   23.1087 H   0  0  0  0  0  0  0  0  0  0  0  0
   21.1863   20.8375   21.8957 C   0  0  0  0  0  0  0  0  0  0  0  0
   20.5988   20.9618   20.9774 H   0  0  0  0  0  0  0  0  0  0  0  0
   22.1625   21.3120   21.7321 H   0  0  0  0  0  0  0  0  0  0  0  0
   20.6792   21.3783   22.7054 H   0  0  0  0  0  0  0  0  0  0  0  0
  1  2  1  0  0  0  0
  1  3  2  0  0  0  0
  1  4  1  0  0  0  0
  4  5  1  0  0  0  0
  4  6  1  0  0  0  0
  4  7  1  0  0  0  0
  7  8  1  0  0  0  0
  7  9  1  0  0  0  0
  7 10  1  0  0  0  0
 10 11  1  0  0  0  0
 10 12  1  0  0  0  0
 10 13  1  0  0  0  0
 13 14  1  0  0  0  0
 13 15  1  0  0  0  0
 13 16  1  0  0  0  0
M  END
> <VConfSearch Rank>
904

> <Conf_Id>
17

> <Delta U+W>
-0.432

> <U+W>
-57.336

> <U>
7.263

> <W>
-64.599

> <W(PB)>
-66.503

> <W(SA)>
1.904

> <Valence>
6.734

> <Coulomb>
-0.068

> <VdW>
0.598

> <VdW6>
-4.819

> <VdW12>
5.417

> <Bond>
0.107

> <Angle>
2.469

> <Pdih>
4.157

> <Idih>
0.001

> <Tether>
0.000

$$$$
VeraChem MOL file


 16 15  0  0  0  0  0  0  0  0999 V2000     
   22.4501   19.4279   22.4986 C   0  0  0  0  0  0  0  0  0  0  0  0
   22.7292   20.5173   22.9586 O   0  5  0  0  0  0  0  0  0  0  0  0
   22.8520   18.3799   22.9639 O   0  0  0  0  0  0  0  0  0  0  0  0
   21.5665   19.3766   21.2551 C   0  0  0  0  0  0  0  0  0  0  0  0
   21.6938   18.3988   20.7747 H   0  0  0  0  0  0  0  0  0  0  0  0
   21.9460   20.1272   20.5517 H   0  0  0  0  0  0  0  0  0  0  0  0
   20.0647   19.6432   21.5354 C   0  0  0  0  0  0  0  0  0  0  0  0
   19.9553   20.6122   22.0421 H   0  0  0  0  0  0  0  0  0  0  0  0
   19.5325   19.7252   20.5780 H   0  0  0  0  0  0  0  0  0  0  0  0
   19.4129   18.5317   22.3862 C   0  0  0  0  0  0  0  0  0  0  0  0
   19.9246   18.4544   23.3557 H   0  0  0  0  0  0  0  0  0  0  0  0
   19.5340   17.5617   21.8843 H   0  0  0  0  0  0  0  0  0  0  0  0
   17.9139   18.8041   22.6213 C   0  0  0  0  0  0  0  0  0  0  0  0
   17.7660   19.7549   23.1500 H   0  0  0  0  0  0  0  0  0  0  0  0
   17.4665   18.0059   23.2277 H   0  0  0  0  0  0  0  0  0  0  0  0
   17.3691   18.8524   21.6693 H   0  0  0  0  0  0  0  0  0  0  0  0
  1  2  1  0  0  0  0
  1  3  2  0  0  0  0
  1  4  1  0  0  0  0
  4  5  1  0  0  0  0
  4  6  1  0  0  0  0
  4  7  1  0  0  0  0
  7  8  1  0  0  0  0
  7  9  1  0  0  0  0
  7 10  1  0  0  0  0
 10 11  1  0  0  0  0
 10 12  1  0  0  0  0
 10 13  1  0  0  0  0
 13 14  1  0  0  0  0
 13 15  1  0  0  0  0
 13 16  1  0  0  0  0
M  END
> <VConfSearch Rank>
905

> <Conf_Id>
19

> <Delta U+W>
0.048

> <U+W>
-56.856

> <U>
8.276

> <W>
-65.132

> <W(PB)>
-67.031

> <W(SA)>
1.899

> <Valence>
6.513

> <Coulomb>
1.428

> <VdW>
0.335

> <VdW6>
-5.021

> <VdW12>
5.356

> <Bond>
0.092

> <Angle>
2.417

> <Pdih>
4.003

> <Idih>
0.001

> <Tether>
0.000

$$$$
VeraChem MOL file


 16 15  0  0  0  0  0  0  0  0999 V2000     
   20.5065   20.8393   20.5479 C   0  0  0  0  0  0  0  0  0  0  0  0
   21.1792   20.4212   19.6266 O   0  5  0  0  0  0  0  0  0  0  0  0
   20.8037   21.8160   21.2067 O   0  0  0  0  0  0  0  0  0  0  0  0
   19.2067   20.1108   20.8787 C   0  0  0  0  0  0  0  0  0  0  0  0
   18.6856   19.9232   19.9323 H   0  0  0  0  0  0  0  0  0  0  0  0
   18.5676   20.7826   21.4647 H   0  0  0  0  0  0  0  0  0  0  0  0
   19.4074   18.7707   21.6328 C   0  0  0  0  0  0  0  0  0  0  0  0
   18.4409   18.2537   21.7042 H   0  0  0  0  0  0  0  0  0  0  0  0
   20.0719   18.1196   21.0479 H   0  0  0  0  0  0  0  0  0  0  0  0
   19.9847   18.9681   23.0513 C   0  0  0  0  0  0  0  0  0  0  0  0
   19.3256   19.6292   23.6309 H   0  0  0  0  0  0  0  0  0  0  0  0
   20.9622   19.4667   22.9910 H   0  0  0  0  0  0  0  0  0  0  0  0
   20.1424   17.6246   23.7905 C   0  0  0  0  0  0  0  0  0  0  0  0
   19.1741   17.1182   23.8966 H   0  0  0  0  0  0  0  0  0  0  0  0
   20.5543   17.7825   24.7958 H   0  0  0  0  0  0  0  0  0  0  0  0
   20.8221   16.9551   23.2470 H   0  0  0  0  0  0  0  0  0  0  0  0
  1  2  1  0  0  0  0
  1  3  2  0  0  0  0
  1  4  1  0  0  0  0
  4  5  1  0  0  0  0
  4  6  1  0  0  0  0
  4  7  1  0  0  0  0
  7  8  1  0  0  0  0
  7  9  1  0  0  0  0
  7 10  1  0  0  0  0
 10 11  1  0  0  0  0
 10 12  1  0  0  0  0
 10 13  1  0  0  0  0
 13 14  1  0  0  0  0
 13 15  1  0  0  0  0
 13 16  1  0  0  0  0
M  END
> <VConfSearch Rank>
906

> <Conf_Id>
20

> <Delta U+W>
-0.010

> <U+W>
-56.914

> <U>
8.277

> <W>
-65.191

> <W(PB)>
-67.081

> <W(SA)>
1.890

> <Valence>
6.513

> <Coulomb>
1.429

> <VdW>
0.335

> <VdW6>
-5.021

> <VdW12>
5.356

> <Bond>
0.092

> <Angle>
2.417

> <Pdih>
4.002

> <Idih>
0.001

> <Tether>
0.000

$$$$
VeraChem MOL file


 16 15  0  0  0  0  0  0  0  0999 V2000     
   21.8098   18.8164   21.3301 C   0  0  0  0  0  0  0  0  0  0  0  0
   21.9814   18.3189   20.2348 O   0  5  0  0  0  0  0  0  0  0  0  0
   22.4243   18.4800   22.3228 O   0  0  0  0  0  0  0  0  0  0  0  0
   20.7920   19.9470   21.4556 C   0  0  0  0  0  0  0  0  0  0  0  0
   21.0192   20.6780   20.6707 H   0  0  0  0  0  0  0  0  0  0  0  0
   20.9508   20.4590   22.4115 H   0  0  0  0  0  0  0  0  0  0  0  0
   19.3138   19.4901   21.3181 C   0  0  0  0  0  0  0  0  0  0  0  0
   18.6605   20.3728   21.3402 H   0  0  0  0  0  0  0  0  0  0  0  0
   19.1771   19.0305   20.3295 H   0  0  0  0  0  0  0  0  0  0  0  0
   18.8524   18.4882   22.4031 C   0  0  0  0  0  0  0  0  0  0  0  0
   19.4768   17.5846   22.3683 H   0  0  0  0  0  0  0  0  0  0  0  0
   17.8281   18.1651   22.1718 H   0  0  0  0  0  0  0  0  0  0  0  0
   18.8779   19.0800   23.8284 C   0  0  0  0  0  0  0  0  0  0  0  0
   19.9038   19.3032   24.1484 H   0  0  0  0  0  0  0  0  0  0  0  0
   18.4542   18.3670   24.5474 H   0  0  0  0  0  0  0  0  0  0  0  0
   18.2893   20.0050   23.8817 H   0  0  0  0  0  0  0  0  0  0  0  0
  1  2  1  0  0  0  0
  1  3  2  0  0  0  0
  1  4  1  0  0  0  0
  4  5  1  0  0  0  0
  4  6  1  0  0  0  0
  4  7  1  0  0  0  0
  7  8  1  0  0  0  0
  7  9  1  0  0  0  0
  7 10  1  0  0  0  0
 10 11  1  0  0  0  0
 10 12  1  0  0  0  0
 10 13  1  0  0  0  0
 13 14  1  0  0  0  0
 13 15  1  0  0  0  0
 13 16  1  0  0  0  0
M  END
> <VConfSearch Rank>
907

> <Conf_Id>
37

> <Delta U+W>
1.063

> <U+W>
-55.841

> <U>
9.719

> <W>
-65.560

> <W(PB)>
-67.414

> <W(SA)>
1.854

> <Valence>
7.002

> <Coulomb>
2.402

> <VdW>
0.314

> <VdW6>
-5.861

> <VdW12>
6.175

> <Bond>
0.134

> <Angle>
2.733

> <Pdih>
4.133

> <Idih>
0.002

> <Tether>
0.000

$$$$
VeraChem MOL file


 16 15  0  0  0  0  0  0  0  0999 V2000     
   22.0867   19.1256   23.0771 C   0  0  0  0  0  0  0  0  0  0  0  0
   22.4788   18.2325   23.8020 O   0  5  0  0  0  0  0  0  0  0  0  0
   22.7513   19.5982   22.1764 O   0  0  0  0  0  0  0  0  0  0  0  0
   20.6991   19.7061   23.3363 C   0  0  0  0  0  0  0  0  0  0  0  0
   20.6088   20.6562   22.7974 H   0  0  0  0  0  0  0  0  0  0  0  0
   20.6418   19.9485   24.4039 H   0  0  0  0  0  0  0  0  0  0  0  0
   19.5310   18.7523   22.9640 C   0  0  0  0  0  0  0  0  0  0  0  0
   19.6217   17.8339   23.5604 H   0  0  0  0  0  0  0  0  0  0  0  0
   18.5796   19.2167   23.2565 H   0  0  0  0  0  0  0  0  0  0  0  0
   19.4717   18.3712   21.4656 C   0  0  0  0  0  0  0  0  0  0  0  0
   18.6694   17.6347   21.3207 H   0  0  0  0  0  0  0  0  0  0  0  0
   20.4054   17.8736   21.1685 H   0  0  0  0  0  0  0  0  0  0  0  0
   19.2121   19.5789   20.5401 C   0  0  0  0  0  0  0  0  0  0  0  0
   18.3020   20.1154   20.8383 H   0  0  0  0  0  0  0  0  0  0  0  0
   19.0843   19.2461   19.5020 H   0  0  0  0  0  0  0  0  0  0  0  0
   20.0526   20.2842   20.5610 H   0  0  0  0  0  0  0  0  0  0  0  0
  1  2  1  0  0  0  0
  1  3  2  0  0  0  0
  1  4  1  0  0  0  0
  4  5  1  0  0  0  0
  4  6  1  0  0  0  0
  4  7  1  0  0  0  0
  7  8  1  0  0  0  0
  7  9  1  0  0  0  0
  7 10  1  0  0  0  0
 10 11  1  0  0  0  0
 10 12  1  0  0  0  0
 10 13  1  0  0  0  0
 13 14  1  0  0  0  0
 13 15  1  0  0  0  0
 13 16  1  0  0  0  0
M  END
> <VConfSearch Rank>
908

> <Conf_Id>
39

> <Delta U+W>
1.129

> <U+W>
-55.775

> <U>
9.718

> <W>
-65.493

> <W(PB)>
-67.361

> <W(SA)>
1.869

> <Valence>
7.002

> <Coulomb>
2.402

> <VdW>
0.314

> <VdW6>
-5.861

> <VdW12>
6.175

> <Bond>
0.134

> <Angle>
2.734

> <Pdih>
4.133

> <Idih>
0.002

> <Tether>
0.000

$$$$
VeraChem MOL file


 16 15  0  0  0  0  0  0  0  0999 V2000     
   20.4469   17.2520   21.6875 C   0  0  0  0  0  0  0  0  0  0  0  0
   19.4809   16.5300   21.5381 O   0  5  0  0  0  0  0  0  0  0  0  0
   21.4356   16.9249   22.3140 O   0  0  0  0  0  0  0  0  0  0  0  0
   20.4537   18.6036   20.9755 C   0  0  0  0  0  0  0  0  0  0  0  0
   19.5284   18.7061   20.3956 H   0  0  0  0  0  0  0  0  0  0  0  0
   21.2752   18.5665   20.2505 H   0  0  0  0  0  0  0  0  0  0  0  0
   20.6501   19.8395   21.8979 C   0  0  0  0  0  0  0  0  0  0  0  0
   21.4561   19.6444   22.6189 H   0  0  0  0  0  0  0  0  0  0  0  0
   20.9967   20.6754   21.2754 H   0  0  0  0  0  0  0  0  0  0  0  0
   19.3733   20.3020   22.6405 C   0  0  0  0  0  0  0  0  0  0  0  0
   18.5695   20.4941   21.9165 H   0  0  0  0  0  0  0  0  0  0  0  0
   19.5846   21.2633   23.1289 H   0  0  0  0  0  0  0  0  0  0  0  0
   18.8800   19.3076   23.7120 C   0  0  0  0  0  0  0  0  0  0  0  0
   18.4997   18.3853   23.2561 H   0  0  0  0  0  0  0  0  0  0  0  0
   18.0622   19.7479   24.2969 H   0  0  0  0  0  0  0  0  0  0  0  0
   19.6886   19.0420   24.4054 H   0  0  0  0  0  0  0  0  0  0  0  0
  1  2  1  0  0  0  0
  1  3  2  0  0  0  0
  1  4  1  0  0  0  0
  4  5  1  0  0  0  0
  4  6  1  0  0  0  0
  4  7  1  0  0  0  0
  7  8  1  0  0  0  0
  7  9  1  0  0  0  0
  7 10  1  0  0  0  0
 10 11  1  0  0  0  0
 10 12  1  0  0  0  0
 10 13  1  0  0  0  0
 13 14  1  0  0  0  0
 13 15  1  0  0  0  0
 13 16  1  0  0  0  0
M  END
> <VConfSearch Rank>
909

> <Conf_Id>
47

> <Delta U+W>
2.301

> <U+W>
-54.603

> <U>
11.258

> <W>
-65.861

> <W(PB)>
-67.702

> <W(SA)>
1.841

> <Valence>
8.169

> <Coulomb>
2.735

> <VdW>
0.355

> <VdW6>
-6.245

> <VdW12>
6.600

> <Bond>
0.149

> <Angle>
3.168

> <Pdih>
4.840

> <Idih>
0.011

> <Tether>
0.000

$$$$
VeraChem MOL file


 16 15  0  0  0  0  0  0  0  0999 V2000     
   19.0225   17.5585   23.1800 C   0  0  0  0  0  0  0  0  0  0  0  0
   19.2399   17.6424   24.3728 O   0  5  0  0  0  0  0  0  0  0  0  0
   19.1753   16.5350   22.5429 O   0  0  0  0  0  0  0  0  0  0  0  0
   18.4420   18.7752   22.4614 C   0  0  0  0  0  0  0  0  0  0  0  0
   17.4741   18.9800   22.9336 H   0  0  0  0  0  0  0  0  0  0  0  0
   18.2316   18.5072   21.4189 H   0  0  0  0  0  0  0  0  0  0  0  0
   19.3145   20.0606   22.5206 C   0  0  0  0  0  0  0  0  0  0  0  0
   18.6651   20.9210   22.3097 H   0  0  0  0  0  0  0  0  0  0  0  0
   19.6927   20.2098   23.5415 H   0  0  0  0  0  0  0  0  0  0  0  0
   20.4860   20.0946   21.5097 C   0  0  0  0  0  0  0  0  0  0  0  0
   20.9301   21.0995   21.5265 H   0  0  0  0  0  0  0  0  0  0  0  0
   20.1040   19.9433   20.4907 H   0  0  0  0  0  0  0  0  0  0  0  0
   21.5959   19.0648   21.8062 C   0  0  0  0  0  0  0  0  0  0  0  0
   22.4577   19.2285   21.1464 H   0  0  0  0  0  0  0  0  0  0  0  0
   21.2439   18.0393   21.6403 H   0  0  0  0  0  0  0  0  0  0  0  0
   21.9428   19.1471   22.8445 H   0  0  0  0  0  0  0  0  0  0  0  0
  1  2  1  0  0  0  0
  1  3  2  0  0  0  0
  1  4  1  0  0  0  0
  4  5  1  0  0  0  0
  4  6  1  0  0  0  0
  4  7  1  0  0  0  0
  7  8  1  0  0  0  0
  7  9  1  0  0  0  0
  7 10  1  0  0  0  0
 10 11  1  0  0  0  0
 10 12  1  0  0  0  0
 10 13  1  0  0  0  0
 13 14  1  0  0  0  0
 13 15  1  0  0  0  0
 13 16  1  0  0  0  0
M  END
> <VConfSearch Rank>
910

> <Conf_Id>
45

> <Delta U+W>
2.303

> <U+W>
-54.601

> <U>
11.258

> <W>
-65.860

> <W(PB)>
-67.709

> <W(SA)>
1.849

> <Valence>
8.169

> <Coulomb>
2.735

> <VdW>
0.355

> <VdW6>
-6.245

> <VdW12>
6.600

> <Bond>
0.149

> <Angle>
3.168

> <Pdih>
4.840

> <Idih>
0.011

> <Tether>
0.000

$$$$
VeraChem MOL file


 16 15  0  0  0  0  0  0  0  0999 V2000     
   19.3319   20.1449   24.4032 C   0  0  0  0  0  0  0  0  0  0  0  0
   20.4712   20.1210   24.8265 O   0  5  0  0  0  0  0  0  0  0  0  0
   18.3893   20.5379   25.0607 O   0  0  0  0  0  0  0  0  0  0  0  0
   19.0390   19.6640   22.9809 C   0  0  0  0  0  0  0  0  0  0  0  0
   18.5590   20.4929   22.4475 H   0  0  0  0  0  0  0  0  0  0  0  0
   18.2991   18.8582   23.0537 H   0  0  0  0  0  0  0  0  0  0  0  0
   20.2732   19.1706   22.1798 C   0  0  0  0  0  0  0  0  0  0  0  0
   21.0132   19.9803   22.1148 H   0  0  0  0  0  0  0  0  0  0  0  0
   20.7530   18.3438   22.7217 H   0  0  0  0  0  0  0  0  0  0  0  0
   19.8868   18.7056   20.7600 C   0  0  0  0  0  0  0  0  0  0  0  0
   19.4084   19.5320   20.2163 H   0  0  0  0  0  0  0  0  0  0  0  0
   19.1480   17.8946   20.8236 H   0  0  0  0  0  0  0  0  0  0  0  0
   21.1165   18.2168   19.9694 C   0  0  0  0  0  0  0  0  0  0  0  0
   21.8592   19.0184   19.8634 H   0  0  0  0  0  0  0  0  0  0  0  0
   20.8244   17.8900   18.9629 H   0  0  0  0  0  0  0  0  0  0  0  0
   21.5969   17.3689   20.4751 H   0  0  0  0  0  0  0  0  0  0  0  0
  1  2  1  0  0  0  0
  1  3  2  0  0  0  0
  1  4  1  0  0  0  0
  4  5  1  0  0  0  0
  4  6  1  0  0  0  0
  4  7  1  0  0  0  0
  7  8  1  0  0  0  0
  7  9  1  0  0  0  0
  7 10  1  0  0  0  0
 10 11  1  0  0  0  0
 10 12  1  0  0  0  0
 10 13  1  0  0  0  0
 13 14  1  0  0  0  0
 13 15  1  0  0  0  0
 13 16  1  0  0  0  0
M  END
> <VConfSearch Rank>
911

> <Conf_Id>
0

> <Delta U+W>
0.000

> <U+W>
-56.904

> <U>
7.329

> <W>
-64.233

> <W(PB)>
-66.148

> <W(SA)>
1.915

> <Valence>
6.755

> <Coulomb>
-0.421

> <VdW>
0.995

> <VdW6>
-4.495

> <VdW12>
5.490

> <Bond>
0.106

> <Angle>
2.715

> <Pdih>
3.934

> <Idih>
0.000

> <Tether>
0.000

$$$$
VeraChem MOL file


 16 15  0  0  0  0  0  0  0  0999 V2000     
   20.2048   16.4172   21.5957 C   0  0  0  0  0  0  0  0  0  0  0  0
   20.5299   15.7962   22.5879 O   0  5  0  0  0  0  0  0  0  0  0  0
   19.4800   15.9689   20.7299 O   0  0  0  0  0  0  0  0  0  0  0  0
   20.7199   17.8434   21.4373 C   0  0  0  0  0  0  0  0  0  0  0  0
   20.8480   18.0428   20.3665 H   0  0  0  0  0  0  0  0  0  0  0  0
   21.7134   17.9004   21.8984 H   0  0  0  0  0  0  0  0  0  0  0  0
   19.7775   18.8981   22.0677 C   0  0  0  0  0  0  0  0  0  0  0  0
   18.7840   18.8202   21.6046 H   0  0  0  0  0  0  0  0  0  0  0  0
   19.6494   18.6778   23.1367 H   0  0  0  0  0  0  0  0  0  0  0  0
   20.3216   20.3314   21.8937 C   0  0  0  0  0  0  0  0  0  0  0  0
   20.4492   20.5523   20.8248 H   0  0  0  0  0  0  0  0  0  0  0  0
   21.3148   20.4098   22.3572 H   0  0  0  0  0  0  0  0  0  0  0  0
   19.3787   21.3756   22.5234 C   0  0  0  0  0  0  0  0  0  0  0  0
   19.2578   21.1970   23.6000 H   0  0  0  0  0  0  0  0  0  0  0  0
   18.3857   21.3405   22.0563 H   0  0  0  0  0  0  0  0  0  0  0  0
   19.7800   22.3888   22.3909 H   0  0  0  0  0  0  0  0  0  0  0  0
  1  2  1  0  0  0  0
  1  3  2  0  0  0  0
  1  4  1  0  0  0  0
  4  5  1  0  0  0  0
  4  6  1  0  0  0  0
  4  7  1  0  0  0  0
  7  8  1  0  0  0  0
  7  9  1  0  0  0  0
  7 10  1  0  0  0  0
 10 11  1  0  0  0  0
 10 12  1  0  0  0  0
 10 13  1  0  0  0  0
 13 14  1  0  0  0  0
 13 15  1  0  0  0  0
 13 16  1  0  0  0  0
M  END
> <VConfSearch Rank>
912

> <Conf_Id>
22

> <Delta U+W>
-1.185

> <U+W>
-58.089

> <U>
6.298

> <W>
-64.387

> <W(PB)>
-66.329

> <W(SA)>
1.942

> <Valence>
6.246

> <Coulomb>
-0.408

> <VdW>
0.460

> <VdW6>
-4.207

> <VdW12>
4.667

> <Bond>
0.072

> <Angle>
2.246

> <Pdih>
3.928

> <Idih>
0.001

> <Tether>
0.000

$$$$
VeraChem MOL file


 16 15  0  0  0  0  0  0  0  0999 V2000     
   21.0898   19.6326   24.2683 C   0  0  0  0  0  0  0  0  0  0  0  0
   22.2641   19.9291   24.3635 O   0  5  0  0  0  0  0  0  0  0  0  0
   20.4341   19.1831   25.1869 O   0  0  0  0  0  0  0  0  0  0  0  0
   20.4077   19.8159   22.9171 C   0  0  0  0  0  0  0  0  0  0  0  0
   20.8670   20.6776   22.4179 H   0  0  0  0  0  0  0  0  0  0  0  0
   19.3581   20.0698   23.1040 H   0  0  0  0  0  0  0  0  0  0  0  0
   20.5120   18.5583   22.0156 C   0  0  0  0  0  0  0  0  0  0  0  0
   21.5705   18.2796   21.9193 H   0  0  0  0  0  0  0  0  0  0  0  0
   20.0115   17.7125   22.5070 H   0  0  0  0  0  0  0  0  0  0  0  0
   19.9219   18.7642   20.6015 C   0  0  0  0  0  0  0  0  0  0  0  0
   20.1332   17.8712   19.9971 H   0  0  0  0  0  0  0  0  0  0  0  0
   20.4304   19.6025   20.1054 H   0  0  0  0  0  0  0  0  0  0  0  0
   18.3982   19.0117   20.6079 C   0  0  0  0  0  0  0  0  0  0  0  0
   18.1477   19.9571   21.1051 H   0  0  0  0  0  0  0  0  0  0  0  0
   17.8704   18.1996   21.1248 H   0  0  0  0  0  0  0  0  0  0  0  0
   18.0139   19.0646   19.5810 H   0  0  0  0  0  0  0  0  0  0  0  0
  1  2  1  0  0  0  0
  1  3  2  0  0  0  0
  1  4  1  0  0  0  0
  4  5  1  0  0  0  0
  4  6  1  0  0  0  0
  4  7  1  0  0  0  0
  7  8  1  0  0  0  0
  7  9  1  0  0  0  0
  7 10  1  0  0  0  0
 10 11  1  0  0  0  0
 10 12  1  0  0  0  0
 10 13  1  0  0  0  0
 13 14  1  0  0  0  0
 13 15  1  0  0  0  0
 13 16  1  0  0  0  0
M  END
> <VConfSearch Rank>
913

> <Conf_Id>
36

> <Delta U+W>
-0.427

> <U+W>
-57.331

> <U>
7.263

> <W>
-64.594

> <W(PB)>
-66.513

> <W(SA)>
1.920

> <Valence>
6.734

> <Coulomb>
-0.068

> <VdW>
0.598

> <VdW6>
-4.819

> <VdW12>
5.417

> <Bond>
0.107

> <Angle>
2.469

> <Pdih>
4.157

> <Idih>
0.001

> <Tether>
0.000

$$$$
VeraChem MOL file


 16 15  0  0  0  0  0  0  0  0999 V2000     
   19.6128   21.1165   23.6251 C   0  0  0  0  0  0  0  0  0  0  0  0
   19.5644   22.1753   23.0314 O   0  5  0  0  0  0  0  0  0  0  0  0
   19.8395   21.0236   24.8150 O   0  0  0  0  0  0  0  0  0  0  0  0
   19.3973   19.8333   22.8304 C   0  0  0  0  0  0  0  0  0  0  0  0
   18.6869   20.0537   22.0255 H   0  0  0  0  0  0  0  0  0  0  0  0
   18.9219   19.0990   23.4918 H   0  0  0  0  0  0  0  0  0  0  0  0
   20.7151   19.2564   22.2513 C   0  0  0  0  0  0  0  0  0  0  0  0
   21.1599   19.9833   21.5577 H   0  0  0  0  0  0  0  0  0  0  0  0
   21.4352   19.1286   23.0714 H   0  0  0  0  0  0  0  0  0  0  0  0
   20.5305   17.8980   21.5363 C   0  0  0  0  0  0  0  0  0  0  0  0
   20.0965   17.1676   22.2331 H   0  0  0  0  0  0  0  0  0  0  0  0
   21.5191   17.5097   21.2550 H   0  0  0  0  0  0  0  0  0  0  0  0
   19.6535   17.9913   20.2694 C   0  0  0  0  0  0  0  0  0  0  0  0
   18.6207   18.2674   20.5162 H   0  0  0  0  0  0  0  0  0  0  0  0
   19.6238   17.0240   19.7513 H   0  0  0  0  0  0  0  0  0  0  0  0
   20.0522   18.7373   19.5696 H   0  0  0  0  0  0  0  0  0  0  0  0
  1  2  1  0  0  0  0
  1  3  2  0  0  0  0
  1  4  1  0  0  0  0
  4  5  1  0  0  0  0
  4  6  1  0  0  0  0
  4  7  1  0  0  0  0
  7  8  1  0  0  0  0
  7  9  1  0  0  0  0
  7 10  1  0  0  0  0
 10 11  1  0  0  0  0
 10 12  1  0  0  0  0
 10 13  1  0  0  0  0
 13 14  1  0  0  0  0
 13 15  1  0  0  0  0
 13 16  1  0  0  0  0
M  END
> <VConfSearch Rank>
914

> <Conf_Id>
17

> <Delta U+W>
-0.432

> <U+W>
-57.336

> <U>
7.263

> <W>
-64.599

> <W(PB)>
-66.503

> <W(SA)>
1.904

> <Valence>
6.734

> <Coulomb>
-0.068

> <VdW>
0.598

> <VdW6>
-4.819

> <VdW12>
5.417

> <Bond>
0.107

> <Angle>
2.469

> <Pdih>
4.157

> <Idih>
0.001

> <Tether>
0.000

$$$$
VeraChem MOL file


 16 15  0  0  0  0  0  0  0  0999 V2000     
   21.8460   20.5028   21.1887 C   0  0  0  0  0  0  0  0  0  0  0  0
   22.1006   21.4763   21.8697 O   0  5  0  0  0  0  0  0  0  0  0  0
   22.6931   19.7497   20.7511 O   0  0  0  0  0  0  0  0  0  0  0  0
   20.3846   20.2267   20.8456 C   0  0  0  0  0  0  0  0  0  0  0  0
   20.3487   19.5604   19.9750 H   0  0  0  0  0  0  0  0  0  0  0  0
   19.9349   21.1775   20.5357 H   0  0  0  0  0  0  0  0  0  0  0  0
   19.5639   19.6235   22.0150 C   0  0  0  0  0  0  0  0  0  0  0  0
   19.6324   20.2870   22.8883 H   0  0  0  0  0  0  0  0  0  0  0  0
   18.5046   19.5891   21.7264 H   0  0  0  0  0  0  0  0  0  0  0  0
   20.0328   18.2033   22.3990 C   0  0  0  0  0  0  0  0  0  0  0  0
   21.0867   18.2289   22.7094 H   0  0  0  0  0  0  0  0  0  0  0  0
   19.9754   17.5442   21.5217 H   0  0  0  0  0  0  0  0  0  0  0  0
   19.1795   17.6144   23.5398 C   0  0  0  0  0  0  0  0  0  0  0  0
   19.2438   18.2388   24.4406 H   0  0  0  0  0  0  0  0  0  0  0  0
   19.5262   16.6061   23.8009 H   0  0  0  0  0  0  0  0  0  0  0  0
   18.1241   17.5444   23.2454 H   0  0  0  0  0  0  0  0  0  0  0  0
  1  2  1  0  0  0  0
  1  3  2  0  0  0  0
  1  4  1  0  0  0  0
  4  5  1  0  0  0  0
  4  6  1  0  0  0  0
  4  7  1  0  0  0  0
  7  8  1  0  0  0  0
  7  9  1  0  0  0  0
  7 10  1  0  0  0  0
 10 11  1  0  0  0  0
 10 12  1  0  0  0  0
 10 13  1  0  0  0  0
 13 14  1  0  0  0  0
 13 15  1  0  0  0  0
 13 16  1  0  0  0  0
M  END
> <VConfSearch Rank>
915

> <Conf_Id>
19

> <Delta U+W>
0.048

> <U+W>
-56.856

> <U>
8.276

> <W>
-65.132

> <W(PB)>
-67.031

> <W(SA)>
1.899

> <Valence>
6.513

> <Coulomb>
1.428

> <VdW>
0.335

> <VdW6>
-5.021

> <VdW12>
5.356

> <Bond>
0.092

> <Angle>
2.417

> <Pdih>
4.003

> <Idih>
0.001

> <Tether>
0.000

$$$$
VeraChem MOL file


 16 15  0  0  0  0  0  0  0  0999 V2000     
   18.4618   17.4429   22.9181 C   0  0  0  0  0  0  0  0  0  0  0  0
   19.0298   16.3785   23.0618 O   0  5  0  0  0  0  0  0  0  0  0  0
   17.3968   17.5633   22.3458 O   0  0  0  0  0  0  0  0  0  0  0  0
   19.1114   18.6911   23.5094 C   0  0  0  0  0  0  0  0  0  0  0  0
   19.4402   18.4401   24.5249 H   0  0  0  0  0  0  0  0  0  0  0  0
   18.3467   19.4713   23.6075 H   0  0  0  0  0  0  0  0  0  0  0  0
   20.3171   19.2236   22.6923 C   0  0  0  0  0  0  0  0  0  0  0  0
   20.8035   20.0293   23.2588 H   0  0  0  0  0  0  0  0  0  0  0  0
   21.0615   18.4234   22.5780 H   0  0  0  0  0  0  0  0  0  0  0  0
   19.9043   19.7562   21.3031 C   0  0  0  0  0  0  0  0  0  0  0  0
   19.1509   20.5477   21.4185 H   0  0  0  0  0  0  0  0  0  0  0  0
   19.4344   18.9525   20.7191 H   0  0  0  0  0  0  0  0  0  0  0  0
   21.1151   20.3099   20.5261 C   0  0  0  0  0  0  0  0  0  0  0  0
   21.5855   21.1393   21.0703 H   0  0  0  0  0  0  0  0  0  0  0  0
   20.8048   20.6831   19.5415 H   0  0  0  0  0  0  0  0  0  0  0  0
   21.8713   19.5293   20.3698 H   0  0  0  0  0  0  0  0  0  0  0  0
  1  2  1  0  0  0  0
  1  3  2  0  0  0  0
  1  4  1  0  0  0  0
  4  5  1  0  0  0  0
  4  6  1  0  0  0  0
  4  7  1  0  0  0  0
  7  8  1  0  0  0  0
  7  9  1  0  0  0  0
  7 10  1  0  0  0  0
 10 11  1  0  0  0  0
 10 12  1  0  0  0  0
 10 13  1  0  0  0  0
 13 14  1  0  0  0  0
 13 15  1  0  0  0  0
 13 16  1  0  0  0  0
M  END
> <VConfSearch Rank>
916

> <Conf_Id>
20

> <Delta U+W>
-0.010

> <U+W>
-56.914

> <U>
8.277

> <W>
-65.191

> <W(PB)>
-67.081

> <W(SA)>
1.890

> <Valence>
6.513

> <Coulomb>
1.429

> <VdW>
0.335

> <VdW6>
-5.021

> <VdW12>
5.356

> <Bond>
0.092

> <Angle>
2.417

> <Pdih>
4.002

> <Idih>
0.001

> <Tether>
0.000

$$$$
VeraChem MOL file


 16 15  0  0  0  0  0  0  0  0999 V2000     
   20.1274   17.6403   23.6673 C   0  0  0  0  0  0  0  0  0  0  0  0
   21.1862   17.0769   23.8626 O   0  5  0  0  0  0  0  0  0  0  0  0
   19.0643   17.0583   23.5812 O   0  0  0  0  0  0  0  0  0  0  0  0
   20.1316   19.1628   23.5589 C   0  0  0  0  0  0  0  0  0  0  0  0
   20.6828   19.5492   24.4242 H   0  0  0  0  0  0  0  0  0  0  0  0
   19.1023   19.5257   23.6598 H   0  0  0  0  0  0  0  0  0  0  0  0
   20.7781   19.7058   22.2551 C   0  0  0  0  0  0  0  0  0  0  0  0
   20.8103   20.8028   22.2989 H   0  0  0  0  0  0  0  0  0  0  0  0
   21.8230   19.3685   22.2126 H   0  0  0  0  0  0  0  0  0  0  0  0
   20.0588   19.2691   20.9567 C   0  0  0  0  0  0  0  0  0  0  0  0
   20.0507   18.1727   20.8837 H   0  0  0  0  0  0  0  0  0  0  0  0
   20.6359   19.6319   20.0950 H   0  0  0  0  0  0  0  0  0  0  0  0
   18.6154   19.8053   20.8507 C   0  0  0  0  0  0  0  0  0  0  0  0
   17.9707   19.3686   21.6242 H   0  0  0  0  0  0  0  0  0  0  0  0
   18.1821   19.5500   19.8750 H   0  0  0  0  0  0  0  0  0  0  0  0
   18.5919   20.8977   20.9564 H   0  0  0  0  0  0  0  0  0  0  0  0
  1  2  1  0  0  0  0
  1  3  2  0  0  0  0
  1  4  1  0  0  0  0
  4  5  1  0  0  0  0
  4  6  1  0  0  0  0
  4  7  1  0  0  0  0
  7  8  1  0  0  0  0
  7  9  1  0  0  0  0
  7 10  1  0  0  0  0
 10 11  1  0  0  0  0
 10 12  1  0  0  0  0
 10 13  1  0  0  0  0
 13 14  1  0  0  0  0
 13 15  1  0  0  0  0
 13 16  1  0  0  0  0
M  END
> <VConfSearch Rank>
917

> <Conf_Id>
37

> <Delta U+W>
1.063

> <U+W>
-55.841

> <U>
9.719

> <W>
-65.560

> <W(PB)>
-67.414

> <W(SA)>
1.854

> <Valence>
7.002

> <Coulomb>
2.402

> <VdW>
0.314

> <VdW6>
-5.861

> <VdW12>
6.175

> <Bond>
0.134

> <Angle>
2.733

> <Pdih>
4.133

> <Idih>
0.002

> <Tether>
0.000

$$$$
VeraChem MOL file


 16 15  0  0  0  0  0  0  0  0999 V2000     
   21.9421   18.8118   23.2936 C   0  0  0  0  0  0  0  0  0  0  0  0
   22.1639   19.3413   24.3646 O   0  5  0  0  0  0  0  0  0  0  0  0
   22.1271   17.6302   23.0790 O   0  0  0  0  0  0  0  0  0  0  0  0
   21.4373   19.6864   22.1491 C   0  0  0  0  0  0  0  0  0  0  0  0
   21.5491   19.1346   21.2087 H   0  0  0  0  0  0  0  0  0  0  0  0
   22.1061   20.5524   22.0818 H   0  0  0  0  0  0  0  0  0  0  0  0
   19.9750   20.1805   22.3235 C   0  0  0  0  0  0  0  0  0  0  0  0
   19.9108   20.7739   23.2460 H   0  0  0  0  0  0  0  0  0  0  0  0
   19.7250   20.8632   21.5002 H   0  0  0  0  0  0  0  0  0  0  0  0
   18.9221   19.0483   22.3833 C   0  0  0  0  0  0  0  0  0  0  0  0
   17.9386   19.4922   22.5899 H   0  0  0  0  0  0  0  0  0  0  0  0
   19.1414   18.3771   23.2253 H   0  0  0  0  0  0  0  0  0  0  0  0
   18.8344   18.2291   21.0781 C   0  0  0  0  0  0  0  0  0  0  0  0
   18.6509   18.8817   20.2147 H   0  0  0  0  0  0  0  0  0  0  0  0
   18.0126   17.5036   21.1351 H   0  0  0  0  0  0  0  0  0  0  0  0
   19.7601   17.6678   20.8975 H   0  0  0  0  0  0  0  0  0  0  0  0
  1  2  1  0  0  0  0
  1  3  2  0  0  0  0
  1  4  1  0  0  0  0
  4  5  1  0  0  0  0
  4  6  1  0  0  0  0
  4  7  1  0  0  0  0
  7  8  1  0  0  0  0
  7  9  1  0  0  0  0
  7 10  1  0  0  0  0
 10 11  1  0  0  0  0
 10 12  1  0  0  0  0
 10 13  1  0  0  0  0
 13 14  1  0  0  0  0
 13 15  1  0  0  0  0
 13 16  1  0  0  0  0
M  END
> <VConfSearch Rank>
918

> <Conf_Id>
39

> <Delta U+W>
1.129

> <U+W>
-55.775

> <U>
9.718

> <W>
-65.493

> <W(PB)>
-67.361

> <W(SA)>
1.869

> <Valence>
7.002

> <Coulomb>
2.402

> <VdW>
0.314

> <VdW6>
-5.861

> <VdW12>
6.175

> <Bond>
0.134

> <Angle>
2.734

> <Pdih>
4.133

> <Idih>
0.002

> <Tether>
0.000

$$$$
VeraChem MOL file


 16 15  0  0  0  0  0  0  0  0999 V2000     
   19.4921   17.7683   20.8221 C   0  0  0  0  0  0  0  0  0  0  0  0
   20.0718   16.7163   21.0064 O   0  5  0  0  0  0  0  0  0  0  0  0
   19.4905   18.3531   19.7567 O   0  0  0  0  0  0  0  0  0  0  0  0
   18.6492   18.3364   21.9624 C   0  0  0  0  0  0  0  0  0  0  0  0
   18.6969   17.6509   22.8173 H   0  0  0  0  0  0  0  0  0  0  0  0
   17.6104   18.3285   21.6122 H   0  0  0  0  0  0  0  0  0  0  0  0
   19.0204   19.7787   22.4084 C   0  0  0  0  0  0  0  0  0  0  0  0
   19.1719   20.4162   21.5261 H   0  0  0  0  0  0  0  0  0  0  0  0
   18.1584   20.2009   22.9423 H   0  0  0  0  0  0  0  0  0  0  0  0
   20.2478   19.8701   23.3469 C   0  0  0  0  0  0  0  0  0  0  0  0
   20.0933   19.2300   24.2265 H   0  0  0  0  0  0  0  0  0  0  0  0
   20.3209   20.8996   23.7237 H   0  0  0  0  0  0  0  0  0  0  0  0
   21.5826   19.5030   22.6659 C   0  0  0  0  0  0  0  0  0  0  0  0
   21.6240   18.4354   22.4177 H   0  0  0  0  0  0  0  0  0  0  0  0
   22.4265   19.7194   23.3335 H   0  0  0  0  0  0  0  0  0  0  0  0
   21.7248   20.0781   21.7416 H   0  0  0  0  0  0  0  0  0  0  0  0
  1  2  1  0  0  0  0
  1  3  2  0  0  0  0
  1  4  1  0  0  0  0
  4  5  1  0  0  0  0
  4  6  1  0  0  0  0
  4  7  1  0  0  0  0
  7  8  1  0  0  0  0
  7  9  1  0  0  0  0
  7 10  1  0  0  0  0
 10 11  1  0  0  0  0
 10 12  1  0  0  0  0
 10 13  1  0  0  0  0
 13 14  1  0  0  0  0
 13 15  1  0  0  0  0
 13 16  1  0  0  0  0
M  END
> <VConfSearch Rank>
919

> <Conf_Id>
47

> <Delta U+W>
2.301

> <U+W>
-54.603

> <U>
11.258

> <W>
-65.861

> <W(PB)>
-67.702

> <W(SA)>
1.841

> <Valence>
8.169

> <Coulomb>
2.735

> <VdW>
0.355

> <VdW6>
-6.245

> <VdW12>
6.600

> <Bond>
0.149

> <Angle>
3.168

> <Pdih>
4.840

> <Idih>
0.011

> <Tether>
0.000

$$$$
VeraChem MOL file


 16 15  0  0  0  0  0  0  0  0999 V2000     
   20.7561   18.3402   20.6498 C   0  0  0  0  0  0  0  0  0  0  0  0
   20.1396   18.6953   19.6644 O   0  5  0  0  0  0  0  0  0  0  0  0
   21.1017   17.1914   20.8442 O   0  0  0  0  0  0  0  0  0  0  0  0
   21.1979   19.4054   21.6517 C   0  0  0  0  0  0  0  0  0  0  0  0
   21.8619   20.0860   21.1061 H   0  0  0  0  0  0  0  0  0  0  0  0
   21.8068   18.9315   22.4312 H   0  0  0  0  0  0  0  0  0  0  0  0
   20.0477   20.2303   22.2949 C   0  0  0  0  0  0  0  0  0  0  0  0
   20.4772   21.1619   22.6874 H   0  0  0  0  0  0  0  0  0  0  0  0
   19.3257   20.5312   21.5231 H   0  0  0  0  0  0  0  0  0  0  0  0
   19.3157   19.5209   23.4596 C   0  0  0  0  0  0  0  0  0  0  0  0
   18.6417   20.2446   23.9383 H   0  0  0  0  0  0  0  0  0  0  0  0
   20.0411   19.2200   24.2281 H   0  0  0  0  0  0  0  0  0  0  0  0
   18.4860   18.2962   23.0212 C   0  0  0  0  0  0  0  0  0  0  0  0
   17.8828   17.9216   23.8583 H   0  0  0  0  0  0  0  0  0  0  0  0
   19.1318   17.4751   22.6870 H   0  0  0  0  0  0  0  0  0  0  0  0
   17.8043   18.5553   22.2006 H   0  0  0  0  0  0  0  0  0  0  0  0
  1  2  1  0  0  0  0
  1  3  2  0  0  0  0
  1  4  1  0  0  0  0
  4  5  1  0  0  0  0
  4  6  1  0  0  0  0
  4  7  1  0  0  0  0
  7  8  1  0  0  0  0
  7  9  1  0  0  0  0
  7 10  1  0  0  0  0
 10 11  1  0  0  0  0
 10 12  1  0  0  0  0
 10 13  1  0  0  0  0
 13 14  1  0  0  0  0
 13 15  1  0  0  0  0
 13 16  1  0  0  0  0
M  END
> <VConfSearch Rank>
920

> <Conf_Id>
45

> <Delta U+W>
2.303

> <U+W>
-54.601

> <U>
11.258

> <W>
-65.860

> <W(PB)>
-67.709

> <W(SA)>
1.849

> <Valence>
8.169

> <Coulomb>
2.735

> <VdW>
0.355

> <VdW6>
-6.245

> <VdW12>
6.600

> <Bond>
0.149

> <Angle>
3.168

> <Pdih>
4.840

> <Idih>
0.011

> <Tether>
0.000

$$$$
VeraChem MOL file


 16 15  0  0  0  0  0  0  0  0999 V2000     
   21.8277   19.3852   23.9775 C   0  0  0  0  0  0  0  0  0  0  0  0
   21.4556   18.3893   24.5669 O   0  5  0  0  0  0  0  0  0  0  0  0
   22.7319   20.0916   24.3760 O   0  0  0  0  0  0  0  0  0  0  0  0
   21.1456   19.7948   22.6710 C   0  0  0  0  0  0  0  0  0  0  0  0
   21.9215   19.8430   21.8979 H   0  0  0  0  0  0  0  0  0  0  0  0
   20.7640   20.8137   22.8064 H   0  0  0  0  0  0  0  0  0  0  0  0
   19.9963   18.8634   22.2019 C   0  0  0  0  0  0  0  0  0  0  0  0
   20.3833   17.8430   22.0732 H   0  0  0  0  0  0  0  0  0  0  0  0
   19.2246   18.8148   22.9827 H   0  0  0  0  0  0  0  0  0  0  0  0
   19.3669   19.3503   20.8798 C   0  0  0  0  0  0  0  0  0  0  0  0
   20.1372   19.3977   20.0976 H   0  0  0  0  0  0  0  0  0  0  0  0
   18.9779   20.3700   21.0076 H   0  0  0  0  0  0  0  0  0  0  0  0
   18.2262   18.4214   20.4192 C   0  0  0  0  0  0  0  0  0  0  0  0
   18.5941   17.4003   20.2532 H   0  0  0  0  0  0  0  0  0  0  0  0
   17.7900   18.7816   19.4784 H   0  0  0  0  0  0  0  0  0  0  0  0
   17.4262   18.3798   21.1700 H   0  0  0  0  0  0  0  0  0  0  0  0
  1  2  1  0  0  0  0
  1  3  2  0  0  0  0
  1  4  1  0  0  0  0
  4  5  1  0  0  0  0
  4  6  1  0  0  0  0
  4  7  1  0  0  0  0
  7  8  1  0  0  0  0
  7  9  1  0  0  0  0
  7 10  1  0  0  0  0
 10 11  1  0  0  0  0
 10 12  1  0  0  0  0
 10 13  1  0  0  0  0
 13 14  1  0  0  0  0
 13 15  1  0  0  0  0
 13 16  1  0  0  0  0
M  END
> <VConfSearch Rank>
921

> <Conf_Id>
0

> <Delta U+W>
0.000

> <U+W>
-56.904

> <U>
7.329

> <W>
-64.233

> <W(PB)>
-66.148

> <W(SA)>
1.915

> <Valence>
6.755

> <Coulomb>
-0.421

> <VdW>
0.995

> <VdW6>
-4.495

> <VdW12>
5.490

> <Bond>
0.106

> <Angle>
2.715

> <Pdih>
3.934

> <Idih>
0.000

> <Tether>
0.000

$$$$
VeraChem MOL file


 16 15  0  0  0  0  0  0  0  0999 V2000     
   22.6511   18.3337   21.8330 C   0  0  0  0  0  0  0  0  0  0  0  0
   22.9908   17.5737   22.7178 O   0  5  0  0  0  0  0  0  0  0  0  0
   23.1346   18.3264   20.7185 O   0  0  0  0  0  0  0  0  0  0  0  0
   21.5451   19.3395   22.1321 C   0  0  0  0  0  0  0  0  0  0  0  0
   21.7368   20.2432   21.5409 H   0  0  0  0  0  0  0  0  0  0  0  0
   21.6182   19.6225   23.1892 H   0  0  0  0  0  0  0  0  0  0  0  0
   20.1307   18.7897   21.8233 C   0  0  0  0  0  0  0  0  0  0  0  0
   20.0772   18.4994   20.7648 H   0  0  0  0  0  0  0  0  0  0  0  0
   19.9586   17.8786   22.4132 H   0  0  0  0  0  0  0  0  0  0  0  0
   19.0311   19.8263   22.1345 C   0  0  0  0  0  0  0  0  0  0  0  0
   19.2025   20.7372   21.5444 H   0  0  0  0  0  0  0  0  0  0  0  0
   19.0839   20.1164   23.1931 H   0  0  0  0  0  0  0  0  0  0  0  0
   17.6264   19.2723   21.8249 C   0  0  0  0  0  0  0  0  0  0  0  0
   17.4159   18.3775   22.4253 H   0  0  0  0  0  0  0  0  0  0  0  0
   17.5354   19.0029   20.7644 H   0  0  0  0  0  0  0  0  0  0  0  0
   16.8565   20.0214   22.0516 H   0  0  0  0  0  0  0  0  0  0  0  0
  1  2  1  0  0  0  0
  1  3  2  0  0  0  0
  1  4  1  0  0  0  0
  4  5  1  0  0  0  0
  4  6  1  0  0  0  0
  4  7  1  0  0  0  0
  7  8  1  0  0  0  0
  7  9  1  0  0  0  0
  7 10  1  0  0  0  0
 10 11  1  0  0  0  0
 10 12  1  0  0  0  0
 10 13  1  0  0  0  0
 13 14  1  0  0  0  0
 13 15  1  0  0  0  0
 13 16  1  0  0  0  0
M  END
> <VConfSearch Rank>
922

> <Conf_Id>
22

> <Delta U+W>
-1.185

> <U+W>
-58.089

> <U>
6.298

> <W>
-64.387

> <W(PB)>
-66.329

> <W(SA)>
1.942

> <Valence>
6.246

> <Coulomb>
-0.408

> <VdW>
0.460

> <VdW6>
-4.207

> <VdW12>
4.667

> <Bond>
0.072

> <Angle>
2.246

> <Pdih>
3.928

> <Idih>
0.001

> <Tether>
0.000

$$$$
VeraChem MOL file


 16 15  0  0  0  0  0  0  0  0999 V2000     
   21.7656   20.9193   21.4328 C   0  0  0  0  0  0  0  0  0  0  0  0
   22.9209   20.8073   21.7914 O   0  5  0  0  0  0  0  0  0  0  0  0
   21.2580   21.9789   21.1238 O   0  0  0  0  0  0  0  0  0  0  0  0
   20.9005   19.6646   21.3875 C   0  0  0  0  0  0  0  0  0  0  0  0
   21.5451   18.8157   21.1296 H   0  0  0  0  0  0  0  0  0  0  0  0
   20.1793   19.7850   20.5711 H   0  0  0  0  0  0  0  0  0  0  0  0
   20.1674   19.3913   22.7264 C   0  0  0  0  0  0  0  0  0  0  0  0
   20.9097   19.3626   23.5361 H   0  0  0  0  0  0  0  0  0  0  0  0
   19.4930   20.2288   22.9527 H   0  0  0  0  0  0  0  0  0  0  0  0
   19.3732   18.0648   22.7335 C   0  0  0  0  0  0  0  0  0  0  0  0
   18.9786   17.8948   23.7448 H   0  0  0  0  0  0  0  0  0  0  0  0
   20.0495   17.2259   22.5189 H   0  0  0  0  0  0  0  0  0  0  0  0
   18.1982   18.0535   21.7324 C   0  0  0  0  0  0  0  0  0  0  0  0
   18.5540   18.1068   20.6959 H   0  0  0  0  0  0  0  0  0  0  0  0
   17.5231   18.9010   21.9094 H   0  0  0  0  0  0  0  0  0  0  0  0
   17.6147   17.1295   21.8362 H   0  0  0  0  0  0  0  0  0  0  0  0
  1  2  1  0  0  0  0
  1  3  2  0  0  0  0
  1  4  1  0  0  0  0
  4  5  1  0  0  0  0
  4  6  1  0  0  0  0
  4  7  1  0  0  0  0
  7  8  1  0  0  0  0
  7  9  1  0  0  0  0
  7 10  1  0  0  0  0
 10 11  1  0  0  0  0
 10 12  1  0  0  0  0
 10 13  1  0  0  0  0
 13 14  1  0  0  0  0
 13 15  1  0  0  0  0
 13 16  1  0  0  0  0
M  END
> <VConfSearch Rank>
923

> <Conf_Id>
36

> <Delta U+W>
-0.427

> <U+W>
-57.331

> <U>
7.263

> <W>
-64.594

> <W(PB)>
-66.513

> <W(SA)>
1.920

> <Valence>
6.734

> <Coulomb>
-0.068

> <VdW>
0.598

> <VdW6>
-4.819

> <VdW12>
5.417

> <Bond>
0.107

> <Angle>
2.469

> <Pdih>
4.157

> <Idih>
0.001

> <Tether>
0.000

$$$$
VeraChem MOL file


 16 15  0  0  0  0  0  0  0  0999 V2000     
   18.9798   21.3620   22.8837 C   0  0  0  0  0  0  0  0  0  0  0  0
   17.8816   21.5774   22.4110 O   0  5  0  0  0  0  0  0  0  0  0  0
   19.6707   22.2203   23.3955 O   0  0  0  0  0  0  0  0  0  0  0  0
   19.5297   19.9417   22.8129 C   0  0  0  0  0  0  0  0  0  0  0  0
   18.6823   19.2509   22.8892 H   0  0  0  0  0  0  0  0  0  0  0  0
   20.1634   19.7777   23.6927 H   0  0  0  0  0  0  0  0  0  0  0  0
   20.3364   19.6734   21.5159 C   0  0  0  0  0  0  0  0  0  0  0  0
   19.6803   19.7991   20.6435 H   0  0  0  0  0  0  0  0  0  0  0  0
   21.1231   20.4352   21.4253 H   0  0  0  0  0  0  0  0  0  0  0  0
   20.9932   18.2742   21.4781 C   0  0  0  0  0  0  0  0  0  0  0  0
   21.6584   18.1528   22.3442 H   0  0  0  0  0  0  0  0  0  0  0  0
   21.6301   18.2071   20.5853 H   0  0  0  0  0  0  0  0  0  0  0  0
   19.9674   17.1211   21.4456 C   0  0  0  0  0  0  0  0  0  0  0  0
   19.3820   17.0790   22.3725 H   0  0  0  0  0  0  0  0  0  0  0  0
   20.4785   16.1563   21.3315 H   0  0  0  0  0  0  0  0  0  0  0  0
   19.2726   17.2370   20.6036 H   0  0  0  0  0  0  0  0  0  0  0  0
  1  2  1  0  0  0  0
  1  3  2  0  0  0  0
  1  4  1  0  0  0  0
  4  5  1  0  0  0  0
  4  6  1  0  0  0  0
  4  7  1  0  0  0  0
  7  8  1  0  0  0  0
  7  9  1  0  0  0  0
  7 10  1  0  0  0  0
 10 11  1  0  0  0  0
 10 12  1  0  0  0  0
 10 13  1  0  0  0  0
 13 14  1  0  0  0  0
 13 15  1  0  0  0  0
 13 16  1  0  0  0  0
M  END
> <VConfSearch Rank>
924

> <Conf_Id>
17

> <Delta U+W>
-0.432

> <U+W>
-57.336

> <U>
7.263

> <W>
-64.599

> <W(PB)>
-66.503

> <W(SA)>
1.904

> <Valence>
6.734

> <Coulomb>
-0.068

> <VdW>
0.598

> <VdW6>
-4.819

> <VdW12>
5.417

> <Bond>
0.107

> <Angle>
2.469

> <Pdih>
4.157

> <Idih>
0.001

> <Tether>
0.000

$$$$
VeraChem MOL file


 16 15  0  0  0  0  0  0  0  0999 V2000     
   22.3752   19.8938   22.2253 C   0  0  0  0  0  0  0  0  0  0  0  0
   22.6430   20.7648   21.4216 O   0  5  0  0  0  0  0  0  0  0  0  0
   22.6428   19.9669   23.4082 O   0  0  0  0  0  0  0  0  0  0  0  0
   21.6872   18.6305   21.7151 C   0  0  0  0  0  0  0  0  0  0  0  0
   21.8300   17.8313   22.4527 H   0  0  0  0  0  0  0  0  0  0  0  0
   22.2098   18.3175   20.8035 H   0  0  0  0  0  0  0  0  0  0  0  0
   20.1778   18.8125   21.4091 C   0  0  0  0  0  0  0  0  0  0  0  0
   20.0482   19.6344   20.6913 H   0  0  0  0  0  0  0  0  0  0  0  0
   19.8011   17.9037   20.9205 H   0  0  0  0  0  0  0  0  0  0  0  0
   19.3438   19.0904   22.6785 C   0  0  0  0  0  0  0  0  0  0  0  0
   19.6987   20.0096   23.1651 H   0  0  0  0  0  0  0  0  0  0  0  0
   19.4841   18.2739   23.4003 H   0  0  0  0  0  0  0  0  0  0  0  0
   17.8443   19.2334   22.3508 C   0  0  0  0  0  0  0  0  0  0  0  0
   17.6724   20.0640   21.6537 H   0  0  0  0  0  0  0  0  0  0  0  0
   17.2664   19.4313   23.2630 H   0  0  0  0  0  0  0  0  0  0  0  0
   17.4524   18.3152   21.8938 H   0  0  0  0  0  0  0  0  0  0  0  0
  1  2  1  0  0  0  0
  1  3  2  0  0  0  0
  1  4  1  0  0  0  0
  4  5  1  0  0  0  0
  4  6  1  0  0  0  0
  4  7  1  0  0  0  0
  7  8  1  0  0  0  0
  7  9  1  0  0  0  0
  7 10  1  0  0  0  0
 10 11  1  0  0  0  0
 10 12  1  0  0  0  0
 10 13  1  0  0  0  0
 13 14  1  0  0  0  0
 13 15  1  0  0  0  0
 13 16  1  0  0  0  0
M  END
> <VConfSearch Rank>
925

> <Conf_Id>
19

> <Delta U+W>
0.048

> <U+W>
-56.856

> <U>
8.276

> <W>
-65.132

> <W(PB)>
-67.031

> <W(SA)>
1.899

> <Valence>
6.513

> <Coulomb>
1.428

> <VdW>
0.335

> <VdW6>
-5.021

> <VdW12>
5.356

> <Bond>
0.092

> <Angle>
2.417

> <Pdih>
4.003

> <Idih>
0.001

> <Tether>
0.000

$$$$
VeraChem MOL file


 16 15  0  0  0  0  0  0  0  0999 V2000     
   20.1881   19.4060   19.7575 C   0  0  0  0  0  0  0  0  0  0  0  0
   20.7069   18.4397   19.2346 O   0  5  0  0  0  0  0  0  0  0  0  0
   20.5645   20.5476   19.5807 O   0  0  0  0  0  0  0  0  0  0  0  0
   18.9843   19.1729   20.6665 C   0  0  0  0  0  0  0  0  0  0  0  0
   18.3163   18.4714   20.1528 H   0  0  0  0  0  0  0  0  0  0  0  0
   18.4347   20.1165   20.7693 H   0  0  0  0  0  0  0  0  0  0  0  0
   19.3479   18.6106   22.0652 C   0  0  0  0  0  0  0  0  0  0  0  0
   18.4226   18.3448   22.5941 H   0  0  0  0  0  0  0  0  0  0  0  0
   19.9223   17.6813   21.9461 H   0  0  0  0  0  0  0  0  0  0  0  0
   20.1510   19.6158   22.9190 C   0  0  0  0  0  0  0  0  0  0  0  0
   19.5809   20.5489   23.0269 H   0  0  0  0  0  0  0  0  0  0  0  0
   21.0895   19.8736   22.4087 H   0  0  0  0  0  0  0  0  0  0  0  0
   20.4698   19.0451   24.3151 C   0  0  0  0  0  0  0  0  0  0  0  0
   19.5483   18.8098   24.8635 H   0  0  0  0  0  0  0  0  0  0  0  0
   21.0412   19.7710   24.9082 H   0  0  0  0  0  0  0  0  0  0  0  0
   21.0666   18.1268   24.2367 H   0  0  0  0  0  0  0  0  0  0  0  0
  1  2  1  0  0  0  0
  1  3  2  0  0  0  0
  1  4  1  0  0  0  0
  4  5  1  0  0  0  0
  4  6  1  0  0  0  0
  4  7  1  0  0  0  0
  7  8  1  0  0  0  0
  7  9  1  0  0  0  0
  7 10  1  0  0  0  0
 10 11  1  0  0  0  0
 10 12  1  0  0  0  0
 10 13  1  0  0  0  0
 13 14  1  0  0  0  0
 13 15  1  0  0  0  0
 13 16  1  0  0  0  0
M  END
> <VConfSearch Rank>
926

> <Conf_Id>
20

> <Delta U+W>
-0.010

> <U+W>
-56.914

> <U>
8.277

> <W>
-65.191

> <W(PB)>
-67.081

> <W(SA)>
1.890

> <Valence>
6.513

> <Coulomb>
1.429

> <VdW>
0.335

> <VdW6>
-5.021

> <VdW12>
5.356

> <Bond>
0.092

> <Angle>
2.417

> <Pdih>
4.002

> <Idih>
0.001

> <Tether>
0.000

$$$$
VeraChem MOL file


 16 15  0  0  0  0  0  0  0  0999 V2000     
   20.3979   20.0682   20.2991 C   0  0  0  0  0  0  0  0  0  0  0  0
   20.3553   21.2670   20.1045 O   0  5  0  0  0  0  0  0  0  0  0  0
   19.9548   19.2468   19.5211 O   0  0  0  0  0  0  0  0  0  0  0  0
   21.0747   19.5695   21.5730 C   0  0  0  0  0  0  0  0  0  0  0  0
   22.0529   20.0606   21.6355 H   0  0  0  0  0  0  0  0  0  0  0  0
   21.2726   18.4965   21.4695 H   0  0  0  0  0  0  0  0  0  0  0  0
   20.2736   19.8556   22.8726 C   0  0  0  0  0  0  0  0  0  0  0  0
   20.8681   19.5374   23.7396 H   0  0  0  0  0  0  0  0  0  0  0  0
   20.1399   20.9416   22.9728 H   0  0  0  0  0  0  0  0  0  0  0  0
   18.8857   19.1739   22.9294 C   0  0  0  0  0  0  0  0  0  0  0  0
   18.2680   19.5113   22.0855 H   0  0  0  0  0  0  0  0  0  0  0  0
   18.3688   19.5025   23.8415 H   0  0  0  0  0  0  0  0  0  0  0  0
   18.9643   17.6324   22.9294 C   0  0  0  0  0  0  0  0  0  0  0  0
   19.3632   17.2543   21.9795 H   0  0  0  0  0  0  0  0  0  0  0  0
   17.9658   17.1975   23.0661 H   0  0  0  0  0  0  0  0  0  0  0  0
   19.6058   17.2704   23.7433 H   0  0  0  0  0  0  0  0  0  0  0  0
  1  2  1  0  0  0  0
  1  3  2  0  0  0  0
  1  4  1  0  0  0  0
  4  5  1  0  0  0  0
  4  6  1  0  0  0  0
  4  7  1  0  0  0  0
  7  8  1  0  0  0  0
  7  9  1  0  0  0  0
  7 10  1  0  0  0  0
 10 11  1  0  0  0  0
 10 12  1  0  0  0  0
 10 13  1  0  0  0  0
 13 14  1  0  0  0  0
 13 15  1  0  0  0  0
 13 16  1  0  0  0  0
M  END
> <VConfSearch Rank>
927

> <Conf_Id>
37

> <Delta U+W>
1.063

> <U+W>
-55.841

> <U>
9.719

> <W>
-65.560

> <W(PB)>
-67.414

> <W(SA)>
1.854

> <Valence>
7.002

> <Coulomb>
2.402

> <VdW>
0.314

> <VdW6>
-5.861

> <VdW12>
6.175

> <Bond>
0.134

> <Angle>
2.733

> <Pdih>
4.133

> <Idih>
0.002

> <Tether>
0.000

$$$$
VeraChem MOL file


 16 15  0  0  0  0  0  0  0  0999 V2000     
   21.4267   20.2479   20.8623 C   0  0  0  0  0  0  0  0  0  0  0  0
   22.6392   20.2150   20.9372 O   0  5  0  0  0  0  0  0  0  0  0  0
   20.8170   20.1500   19.8159 O   0  0  0  0  0  0  0  0  0  0  0  0
   20.6317   20.4582   22.1482 C   0  0  0  0  0  0  0  0  0  0  0  0
   19.6043   20.7348   21.8854 H   0  0  0  0  0  0  0  0  0  0  0  0
   21.0649   21.3253   22.6605 H   0  0  0  0  0  0  0  0  0  0  0  0
   20.6416   19.2376   23.1088 C   0  0  0  0  0  0  0  0  0  0  0  0
   21.6805   19.0217   23.3942 H   0  0  0  0  0  0  0  0  0  0  0  0
   20.1168   19.5048   24.0359 H   0  0  0  0  0  0  0  0  0  0  0  0
   20.0090   17.9554   22.5173 C   0  0  0  0  0  0  0  0  0  0  0  0
   20.1388   17.1346   23.2360 H   0  0  0  0  0  0  0  0  0  0  0  0
   20.5479   17.6575   21.6071 H   0  0  0  0  0  0  0  0  0  0  0  0
   18.5058   18.1080   22.2019 C   0  0  0  0  0  0  0  0  0  0  0  0
   17.9489   18.4400   23.0877 H   0  0  0  0  0  0  0  0  0  0  0  0
   18.0831   17.1489   21.8758 H   0  0  0  0  0  0  0  0  0  0  0  0
   18.3400   18.8344   21.3961 H   0  0  0  0  0  0  0  0  0  0  0  0
  1  2  1  0  0  0  0
  1  3  2  0  0  0  0
  1  4  1  0  0  0  0
  4  5  1  0  0  0  0
  4  6  1  0  0  0  0
  4  7  1  0  0  0  0
  7  8  1  0  0  0  0
  7  9  1  0  0  0  0
  7 10  1  0  0  0  0
 10 11  1  0  0  0  0
 10 12  1  0  0  0  0
 10 13  1  0  0  0  0
 13 14  1  0  0  0  0
 13 15  1  0  0  0  0
 13 16  1  0  0  0  0
M  END
> <VConfSearch Rank>
928

> <Conf_Id>
39

> <Delta U+W>
1.129

> <U+W>
-55.775

> <U>
9.718

> <W>
-65.493

> <W(PB)>
-67.361

> <W(SA)>
1.869

> <Valence>
7.002

> <Coulomb>
2.402

> <VdW>
0.314

> <VdW6>
-5.861

> <VdW12>
6.175

> <Bond>
0.134

> <Angle>
2.734

> <Pdih>
4.133

> <Idih>
0.002

> <Tether>
0.000

$$$$
VeraChem MOL file


 16 15  0  0  0  0  0  0  0  0999 V2000     
   18.8695   17.8674   23.4739 C   0  0  0  0  0  0  0  0  0  0  0  0
   19.5318   17.5401   24.4389 O   0  5  0  0  0  0  0  0  0  0  0  0
   18.2476   17.0777   22.7909 O   0  0  0  0  0  0  0  0  0  0  0  0
   18.7410   19.3568   23.1594 C   0  0  0  0  0  0  0  0  0  0  0  0
   19.2947   19.9298   23.9130 H   0  0  0  0  0  0  0  0  0  0  0  0
   17.6822   19.6096   23.2894 H   0  0  0  0  0  0  0  0  0  0  0  0
   19.1879   19.7750   21.7303 C   0  0  0  0  0  0  0  0  0  0  0  0
   18.7894   19.0665   20.9909 H   0  0  0  0  0  0  0  0  0  0  0  0
   18.7251   20.7443   21.5005 H   0  0  0  0  0  0  0  0  0  0  0  0
   20.7174   19.9278   21.5494 C   0  0  0  0  0  0  0  0  0  0  0  0
   21.1121   20.6353   22.2916 H   0  0  0  0  0  0  0  0  0  0  0  0
   20.9076   20.3760   20.5644 H   0  0  0  0  0  0  0  0  0  0  0  0
   21.4921   18.5965   21.6383 C   0  0  0  0  0  0  0  0  0  0  0  0
   21.4704   18.1889   22.6564 H   0  0  0  0  0  0  0  0  0  0  0  0
   22.5447   18.7459   21.3652 H   0  0  0  0  0  0  0  0  0  0  0  0
   21.0677   17.8472   20.9573 H   0  0  0  0  0  0  0  0  0  0  0  0
  1  2  1  0  0  0  0
  1  3  2  0  0  0  0
  1  4  1  0  0  0  0
  4  5  1  0  0  0  0
  4  6  1  0  0  0  0
  4  7  1  0  0  0  0
  7  8  1  0  0  0  0
  7  9  1  0  0  0  0
  7 10  1  0  0  0  0
 10 11  1  0  0  0  0
 10 12  1  0  0  0  0
 10 13  1  0  0  0  0
 13 14  1  0  0  0  0
 13 15  1  0  0  0  0
 13 16  1  0  0  0  0
M  END
> <VConfSearch Rank>
929

> <Conf_Id>
47

> <Delta U+W>
2.301

> <U+W>
-54.603

> <U>
11.258

> <W>
-65.861

> <W(PB)>
-67.702

> <W(SA)>
1.841

> <Valence>
8.169

> <Coulomb>
2.735

> <VdW>
0.355

> <VdW6>
-6.245

> <VdW12>
6.600

> <Bond>
0.149

> <Angle>
3.168

> <Pdih>
4.840

> <Idih>
0.011

> <Tether>
0.000

$$$$
VeraChem MOL file


 16 15  0  0  0  0  0  0  0  0999 V2000     
   19.5016   17.1601   22.4314 C   0  0  0  0  0  0  0  0  0  0  0  0
   18.6957   16.9938   23.3258 O   0  5  0  0  0  0  0  0  0  0  0  0
   20.5194   16.5058   22.3184 O   0  0  0  0  0  0  0  0  0  0  0  0
   19.1763   18.1812   21.3427 C   0  0  0  0  0  0  0  0  0  0  0  0
   18.2540   17.8359   20.8612 H   0  0  0  0  0  0  0  0  0  0  0  0
   19.9608   18.1486   20.5769 H   0  0  0  0  0  0  0  0  0  0  0  0
   18.9704   19.6397   21.8400 C   0  0  0  0  0  0  0  0  0  0  0  0
   18.4036   20.1829   21.0718 H   0  0  0  0  0  0  0  0  0  0  0  0
   18.3403   19.6431   22.7402 H   0  0  0  0  0  0  0  0  0  0  0  0
   20.2784   20.4240   22.1041 C   0  0  0  0  0  0  0  0  0  0  0  0
   20.0209   21.4755   22.2921 H   0  0  0  0  0  0  0  0  0  0  0  0
   20.9063   20.4167   21.2025 H   0  0  0  0  0  0  0  0  0  0  0  0
   21.0898   19.8971   23.3059 C   0  0  0  0  0  0  0  0  0  0  0  0
   21.9262   20.5718   23.5298 H   0  0  0  0  0  0  0  0  0  0  0  0
   21.5121   18.9062   23.0992 H   0  0  0  0  0  0  0  0  0  0  0  0
   20.4623   19.8247   24.2039 H   0  0  0  0  0  0  0  0  0  0  0  0
  1  2  1  0  0  0  0
  1  3  2  0  0  0  0
  1  4  1  0  0  0  0
  4  5  1  0  0  0  0
  4  6  1  0  0  0  0
  4  7  1  0  0  0  0
  7  8  1  0  0  0  0
  7  9  1  0  0  0  0
  7 10  1  0  0  0  0
 10 11  1  0  0  0  0
 10 12  1  0  0  0  0
 10 13  1  0  0  0  0
 13 14  1  0  0  0  0
 13 15  1  0  0  0  0
 13 16  1  0  0  0  0
M  END
> <VConfSearch Rank>
930

> <Conf_Id>
45

> <Delta U+W>
2.303

> <U+W>
-54.601

> <U>
11.258

> <W>
-65.860

> <W(PB)>
-67.709

> <W(SA)>
1.849

> <Valence>
8.169

> <Coulomb>
2.735

> <VdW>
0.355

> <VdW6>
-6.245

> <VdW12>
6.600

> <Bond>
0.149

> <Angle>
3.168

> <Pdih>
4.840

> <Idih>
0.011

> <Tether>
0.000

$$$$
VeraChem MOL file


 16 15  0  0  0  0  0  0  0  0999 V2000     
   17.6999   20.6010   22.3074 C   0  0  0  0  0  0  0  0  0  0  0  0
   17.0663   20.0144   21.4516 O   0  5  0  0  0  0  0  0  0  0  0  0
   17.2363   21.5073   22.9700 O   0  0  0  0  0  0  0  0  0  0  0  0
   19.1503   20.2031   22.5862 C   0  0  0  0  0  0  0  0  0  0  0  0
   19.2177   19.9338   23.6469 H   0  0  0  0  0  0  0  0  0  0  0  0
   19.7684   21.0973   22.4425 H   0  0  0  0  0  0  0  0  0  0  0  0
   19.6992   19.0418   21.7154 C   0  0  0  0  0  0  0  0  0  0  0  0
   19.0729   18.1505   21.8594 H   0  0  0  0  0  0  0  0  0  0  0  0
   19.6241   19.3151   20.6537 H   0  0  0  0  0  0  0  0  0  0  0  0
   21.1651   18.7077   22.0628 C   0  0  0  0  0  0  0  0  0  0  0  0
   21.2413   18.4324   23.1239 H   0  0  0  0  0  0  0  0  0  0  0  0
   21.7929   19.5978   21.9176 H   0  0  0  0  0  0  0  0  0  0  0  0
   21.7045   17.5537   21.1947 C   0  0  0  0  0  0  0  0  0  0  0  0
   21.1135   16.6405   21.3441 H   0  0  0  0  0  0  0  0  0  0  0  0
   22.7472   17.3290   21.4544 H   0  0  0  0  0  0  0  0  0  0  0  0
   21.6692   17.8145   20.1288 H   0  0  0  0  0  0  0  0  0  0  0  0
  1  2  1  0  0  0  0
  1  3  2  0  0  0  0
  1  4  1  0  0  0  0
  4  5  1  0  0  0  0
  4  6  1  0  0  0  0
  4  7  1  0  0  0  0
  7  8  1  0  0  0  0
  7  9  1  0  0  0  0
  7 10  1  0  0  0  0
 10 11  1  0  0  0  0
 10 12  1  0  0  0  0
 10 13  1  0  0  0  0
 13 14  1  0  0  0  0
 13 15  1  0  0  0  0
 13 16  1  0  0  0  0
M  END
> <VConfSearch Rank>
931

> <Conf_Id>
0

> <Delta U+W>
0.000

> <U+W>
-56.904

> <U>
7.329

> <W>
-64.233

> <W(PB)>
-66.148

> <W(SA)>
1.915

> <Valence>
6.755

> <Coulomb>
-0.421

> <VdW>
0.995

> <VdW6>
-4.495

> <VdW12>
5.490

> <Bond>
0.106

> <Angle>
2.715

> <Pdih>
3.934

> <Idih>
0.000

> <Tether>
0.000

$$$$
VeraChem MOL file


 16 15  0  0  0  0  0  0  0  0999 V2000     
   18.4349   21.3015   21.5521 C   0  0  0  0  0  0  0  0  0  0  0  0
   17.3228   21.2080   22.0320 O   0  5  0  0  0  0  0  0  0  0  0  0
   19.0284   22.3547   21.4316 O   0  0  0  0  0  0  0  0  0  0  0  0
   19.1312   20.0253   21.0927 C   0  0  0  0  0  0  0  0  0  0  0  0
   19.7704   20.2746   20.2370 H   0  0  0  0  0  0  0  0  0  0  0  0
   18.3642   19.3292   20.7320 H   0  0  0  0  0  0  0  0  0  0  0  0
   19.9715   19.3611   22.2110 C   0  0  0  0  0  0  0  0  0  0  0  0
   20.7265   20.0743   22.5700 H   0  0  0  0  0  0  0  0  0  0  0  0
   19.3203   19.1289   23.0651 H   0  0  0  0  0  0  0  0  0  0  0  0
   20.6647   18.0730   21.7202 C   0  0  0  0  0  0  0  0  0  0  0  0
   21.3166   18.3049   20.8665 H   0  0  0  0  0  0  0  0  0  0  0  0
   19.9100   17.3593   21.3617 H   0  0  0  0  0  0  0  0  0  0  0  0
   21.4991   17.4174   22.8383 C   0  0  0  0  0  0  0  0  0  0  0  0
   20.8659   17.1462   23.6933 H   0  0  0  0  0  0  0  0  0  0  0  0
   22.2829   18.0989   23.1945 H   0  0  0  0  0  0  0  0  0  0  0  0
   21.9850   16.5034   22.4730 H   0  0  0  0  0  0  0  0  0  0  0  0
  1  2  1  0  0  0  0
  1  3  2  0  0  0  0
  1  4  1  0  0  0  0
  4  5  1  0  0  0  0
  4  6  1  0  0  0  0
  4  7  1  0  0  0  0
  7  8  1  0  0  0  0
  7  9  1  0  0  0  0
  7 10  1  0  0  0  0
 10 11  1  0  0  0  0
 10 12  1  0  0  0  0
 10 13  1  0  0  0  0
 13 14  1  0  0  0  0
 13 15  1  0  0  0  0
 13 16  1  0  0  0  0
M  END
> <VConfSearch Rank>
932

> <Conf_Id>
22

> <Delta U+W>
-1.185

> <U+W>
-58.089

> <U>
6.298

> <W>
-64.387

> <W(PB)>
-66.329

> <W(SA)>
1.942

> <Valence>
6.246

> <Coulomb>
-0.408

> <VdW>
0.460

> <VdW6>
-4.207

> <VdW12>
4.667

> <Bond>
0.072

> <Angle>
2.246

> <Pdih>
3.928

> <Idih>
0.001

> <Tether>
0.000

$$$$
VeraChem MOL file


 16 15  0  0  0  0  0  0  0  0999 V2000     
   19.8266   18.2744   19.5555 C   0  0  0  0  0  0  0  0  0  0  0  0
   19.9813   17.1026   19.2746 O   0  5  0  0  0  0  0  0  0  0  0  0
   19.9603   19.1798   18.7565 O   0  0  0  0  0  0  0  0  0  0  0  0
   19.4648   18.6289   20.9936 C   0  0  0  0  0  0  0  0  0  0  0  0
   18.8571   17.8129   21.4028 H   0  0  0  0  0  0  0  0  0  0  0  0
   18.8327   19.5239   20.9685 H   0  0  0  0  0  0  0  0  0  0  0  0
   20.7107   18.8665   21.8858 C   0  0  0  0  0  0  0  0  0  0  0  0
   21.3650   17.9862   21.8204 H   0  0  0  0  0  0  0  0  0  0  0  0
   21.2887   19.7132   21.4904 H   0  0  0  0  0  0  0  0  0  0  0  0
   20.3647   19.1189   23.3714 C   0  0  0  0  0  0  0  0  0  0  0  0
   21.2986   19.1673   23.9483 H   0  0  0  0  0  0  0  0  0  0  0  0
   19.7968   18.2670   23.7703 H   0  0  0  0  0  0  0  0  0  0  0  0
   19.5714   20.4235   23.5984 C   0  0  0  0  0  0  0  0  0  0  0  0
   18.5791   20.3756   23.1327 H   0  0  0  0  0  0  0  0  0  0  0  0
   20.1068   21.2865   23.1815 H   0  0  0  0  0  0  0  0  0  0  0  0
   19.4262   20.6023   24.6717 H   0  0  0  0  0  0  0  0  0  0  0  0
  1  2  1  0  0  0  0
  1  3  2  0  0  0  0
  1  4  1  0  0  0  0
  4  5  1  0  0  0  0
  4  6  1  0  0  0  0
  4  7  1  0  0  0  0
  7  8  1  0  0  0  0
  7  9  1  0  0  0  0
  7 10  1  0  0  0  0
 10 11  1  0  0  0  0
 10 12  1  0  0  0  0
 10 13  1  0  0  0  0
 13 14  1  0  0  0  0
 13 15  1  0  0  0  0
 13 16  1  0  0  0  0
M  END
> <VConfSearch Rank>
933

> <Conf_Id>
36

> <Delta U+W>
-0.427

> <U+W>
-57.331

> <U>
7.263

> <W>
-64.594

> <W(PB)>
-66.513

> <W(SA)>
1.920

> <Valence>
6.734

> <Coulomb>
-0.068

> <VdW>
0.598

> <VdW6>
-4.819

> <VdW12>
5.417

> <Bond>
0.107

> <Angle>
2.469

> <Pdih>
4.157

> <Idih>
0.001

> <Tether>
0.000

$$$$
VeraChem MOL file


 16 15  0  0  0  0  0  0  0  0999 V2000     
   18.0588   20.4860   20.8665 C   0  0  0  0  0  0  0  0  0  0  0  0
   16.9691   20.0926   21.2322 O   0  5  0  0  0  0  0  0  0  0  0  0
   18.2324   21.1428   19.8593 O   0  0  0  0  0  0  0  0  0  0  0  0
   19.2773   20.1189   21.7062 C   0  0  0  0  0  0  0  0  0  0  0  0
   18.9604   20.0755   22.7544 H   0  0  0  0  0  0  0  0  0  0  0  0
   20.0076   20.9325   21.6205 H   0  0  0  0  0  0  0  0  0  0  0  0
   19.9214   18.7755   21.2755 C   0  0  0  0  0  0  0  0  0  0  0  0
   19.1945   17.9620   21.4061 H   0  0  0  0  0  0  0  0  0  0  0  0
   20.1477   18.8206   20.2012 H   0  0  0  0  0  0  0  0  0  0  0  0
   21.2214   18.4423   22.0433 C   0  0  0  0  0  0  0  0  0  0  0  0
   21.9528   19.2503   21.9032 H   0  0  0  0  0  0  0  0  0  0  0  0
   21.6686   17.5392   21.6054 H   0  0  0  0  0  0  0  0  0  0  0  0
   20.9936   18.2039   23.5513 C   0  0  0  0  0  0  0  0  0  0  0  0
   20.6530   19.1174   24.0546 H   0  0  0  0  0  0  0  0  0  0  0  0
   21.9267   17.8866   24.0347 H   0  0  0  0  0  0  0  0  0  0  0  0
   20.2439   17.4191   23.7161 H   0  0  0  0  0  0  0  0  0  0  0  0
  1  2  1  0  0  0  0
  1  3  2  0  0  0  0
  1  4  1  0  0  0  0
  4  5  1  0  0  0  0
  4  6  1  0  0  0  0
  4  7  1  0  0  0  0
  7  8  1  0  0  0  0
  7  9  1  0  0  0  0
  7 10  1  0  0  0  0
 10 11  1  0  0  0  0
 10 12  1  0  0  0  0
 10 13  1  0  0  0  0
 13 14  1  0  0  0  0
 13 15  1  0  0  0  0
 13 16  1  0  0  0  0
M  END
> <VConfSearch Rank>
934

> <Conf_Id>
17

> <Delta U+W>
-0.432

> <U+W>
-57.336

> <U>
7.263

> <W>
-64.599

> <W(PB)>
-66.503

> <W(SA)>
1.904

> <Valence>
6.734

> <Coulomb>
-0.068

> <VdW>
0.598

> <VdW6>
-4.819

> <VdW12>
5.417

> <Bond>
0.107

> <Angle>
2.469

> <Pdih>
4.157

> <Idih>
0.001

> <Tether>
0.000

$$$$
VeraChem MOL file


 16 15  0  0  0  0  0  0  0  0999 V2000     
   19.8642   17.0952   20.9211 C   0  0  0  0  0  0  0  0  0  0  0  0
   20.8554   16.3925   20.9319 O   0  5  0  0  0  0  0  0  0  0  0  0
   18.7512   16.6897   21.1916 O   0  0  0  0  0  0  0  0  0  0  0  0
   20.0244   18.5598   20.5229 C   0  0  0  0  0  0  0  0  0  0  0  0
   19.0439   18.9519   20.2266 H   0  0  0  0  0  0  0  0  0  0  0  0
   20.6606   18.5896   19.6303 H   0  0  0  0  0  0  0  0  0  0  0  0
   20.6447   19.4516   21.6297 C   0  0  0  0  0  0  0  0  0  0  0  0
   21.6126   19.0310   21.9364 H   0  0  0  0  0  0  0  0  0  0  0  0
   20.8504   20.4465   21.2122 H   0  0  0  0  0  0  0  0  0  0  0  0
   19.7240   19.5969   22.8607 C   0  0  0  0  0  0  0  0  0  0  0  0
   19.5278   18.6086   23.2995 H   0  0  0  0  0  0  0  0  0  0  0  0
   18.7524   20.0059   22.5506 H   0  0  0  0  0  0  0  0  0  0  0  0
   20.3490   20.5144   23.9302 C   0  0  0  0  0  0  0  0  0  0  0  0
   21.3085   20.1118   24.2805 H   0  0  0  0  0  0  0  0  0  0  0  0
   19.6829   20.6063   24.7979 H   0  0  0  0  0  0  0  0  0  0  0  0
   20.5251   21.5215   23.5299 H   0  0  0  0  0  0  0  0  0  0  0  0
  1  2  1  0  0  0  0
  1  3  2  0  0  0  0
  1  4  1  0  0  0  0
  4  5  1  0  0  0  0
  4  6  1  0  0  0  0
  4  7  1  0  0  0  0
  7  8  1  0  0  0  0
  7  9  1  0  0  0  0
  7 10  1  0  0  0  0
 10 11  1  0  0  0  0
 10 12  1  0  0  0  0
 10 13  1  0  0  0  0
 13 14  1  0  0  0  0
 13 15  1  0  0  0  0
 13 16  1  0  0  0  0
M  END
> <VConfSearch Rank>
935

> <Conf_Id>
19

> <Delta U+W>
0.048

> <U+W>
-56.856

> <U>
8.276

> <W>
-65.132

> <W(PB)>
-67.031

> <W(SA)>
1.899

> <Valence>
6.513

> <Coulomb>
1.428

> <VdW>
0.335

> <VdW6>
-5.021

> <VdW12>
5.356

> <Bond>
0.092

> <Angle>
2.417

> <Pdih>
4.003

> <Idih>
0.001

> <Tether>
0.000

$$$$
VeraChem MOL file


 16 15  0  0  0  0  0  0  0  0999 V2000     
   18.0607   18.7465   20.6139 C   0  0  0  0  0  0  0  0  0  0  0  0
   16.9783   18.7168   21.1650 O   0  5  0  0  0  0  0  0  0  0  0  0
   18.4418   17.8935   19.8370 O   0  0  0  0  0  0  0  0  0  0  0  0
   18.9799   19.9318   20.8961 C   0  0  0  0  0  0  0  0  0  0  0  0
   18.3704   20.8413   20.8363 H   0  0  0  0  0  0  0  0  0  0  0  0
   19.7252   19.9963   20.0939 H   0  0  0  0  0  0  0  0  0  0  0  0
   19.6839   19.8710   22.2765 C   0  0  0  0  0  0  0  0  0  0  0  0
   20.2086   20.8202   22.4511 H   0  0  0  0  0  0  0  0  0  0  0  0
   18.9269   19.7779   23.0676 H   0  0  0  0  0  0  0  0  0  0  0  0
   20.6924   18.7062   22.3781 C   0  0  0  0  0  0  0  0  0  0  0  0
   21.4415   18.7938   21.5790 H   0  0  0  0  0  0  0  0  0  0  0  0
   20.1746   17.7490   22.2253 H   0  0  0  0  0  0  0  0  0  0  0  0
   21.4019   18.6892   23.7466 C   0  0  0  0  0  0  0  0  0  0  0  0
   21.9576   19.6213   23.9130 H   0  0  0  0  0  0  0  0  0  0  0  0
   22.1139   17.8555   23.8026 H   0  0  0  0  0  0  0  0  0  0  0  0
   20.6772   18.5714   24.5629 H   0  0  0  0  0  0  0  0  0  0  0  0
  1  2  1  0  0  0  0
  1  3  2  0  0  0  0
  1  4  1  0  0  0  0
  4  5  1  0  0  0  0
  4  6  1  0  0  0  0
  4  7  1  0  0  0  0
  7  8  1  0  0  0  0
  7  9  1  0  0  0  0
  7 10  1  0  0  0  0
 10 11  1  0  0  0  0
 10 12  1  0  0  0  0
 10 13  1  0  0  0  0
 13 14  1  0  0  0  0
 13 15  1  0  0  0  0
 13 16  1  0  0  0  0
M  END
> <VConfSearch Rank>
936

> <Conf_Id>
20

> <Delta U+W>
-0.010

> <U+W>
-56.914

> <U>
8.277

> <W>
-65.191

> <W(PB)>
-67.081

> <W(SA)>
1.890

> <Valence>
6.513

> <Coulomb>
1.429

> <VdW>
0.335

> <VdW6>
-5.021

> <VdW12>
5.356

> <Bond>
0.092

> <Angle>
2.417

> <Pdih>
4.002

> <Idih>
0.001

> <Tether>
0.000

$$$$
VeraChem MOL file


 16 15  0  0  0  0  0  0  0  0999 V2000     
   20.4098   17.1804   22.8004 C   0  0  0  0  0  0  0  0  0  0  0  0
   19.9998   16.6706   23.8245 O   0  5  0  0  0  0  0  0  0  0  0  0
   21.5754   17.1534   22.4583 O   0  0  0  0  0  0  0  0  0  0  0  0
   19.3995   17.8604   21.8803 C   0  0  0  0  0  0  0  0  0  0  0  0
   18.5768   17.1534   21.7214 H   0  0  0  0  0  0  0  0  0  0  0  0
   19.8659   18.0185   20.9012 H   0  0  0  0  0  0  0  0  0  0  0  0
   18.8292   19.1937   22.4369 C   0  0  0  0  0  0  0  0  0  0  0  0
   18.0566   19.5686   21.7522 H   0  0  0  0  0  0  0  0  0  0  0  0
   18.3230   18.9900   23.3906 H   0  0  0  0  0  0  0  0  0  0  0  0
   19.8904   20.2974   22.6602 C   0  0  0  0  0  0  0  0  0  0  0  0
   20.6513   19.9469   23.3713 H   0  0  0  0  0  0  0  0  0  0  0  0
   19.4044   21.1637   23.1296 H   0  0  0  0  0  0  0  0  0  0  0  0
   20.5746   20.7568   21.3551 C   0  0  0  0  0  0  0  0  0  0  0  0
   21.1759   19.9506   20.9158 H   0  0  0  0  0  0  0  0  0  0  0  0
   21.2466   21.6022   21.5514 H   0  0  0  0  0  0  0  0  0  0  0  0
   19.8324   21.0792   20.6133 H   0  0  0  0  0  0  0  0  0  0  0  0
  1  2  1  0  0  0  0
  1  3  2  0  0  0  0
  1  4  1  0  0  0  0
  4  5  1  0  0  0  0
  4  6  1  0  0  0  0
  4  7  1  0  0  0  0
  7  8  1  0  0  0  0
  7  9  1  0  0  0  0
  7 10  1  0  0  0  0
 10 11  1  0  0  0  0
 10 12  1  0  0  0  0
 10 13  1  0  0  0  0
 13 14  1  0  0  0  0
 13 15  1  0  0  0  0
 13 16  1  0  0  0  0
M  END
> <VConfSearch Rank>
937

> <Conf_Id>
37

> <Delta U+W>
1.063

> <U+W>
-55.841

> <U>
9.719

> <W>
-65.560

> <W(PB)>
-67.414

> <W(SA)>
1.854

> <Valence>
7.002

> <Coulomb>
2.402

> <VdW>
0.314

> <VdW6>
-5.861

> <VdW12>
6.175

> <Bond>
0.134

> <Angle>
2.733

> <Pdih>
4.133

> <Idih>
0.002

> <Tether>
0.000

$$$$
VeraChem MOL file


 16 15  0  0  0  0  0  0  0  0999 V2000     
   20.7866   21.0604   22.8749 C   0  0  0  0  0  0  0  0  0  0  0  0
   21.7044   21.6770   22.3706 O   0  5  0  0  0  0  0  0  0  0  0  0
   19.7186   21.5637   23.1617 O   0  0  0  0  0  0  0  0  0  0  0  0
   21.0020   19.5837   23.1956 C   0  0  0  0  0  0  0  0  0  0  0  0
   20.2103   19.2525   23.8774 H   0  0  0  0  0  0  0  0  0  0  0  0
   21.9433   19.5055   23.7521 H   0  0  0  0  0  0  0  0  0  0  0  0
   21.0678   18.6644   21.9453 C   0  0  0  0  0  0  0  0  0  0  0  0
   21.9041   18.9903   21.3114 H   0  0  0  0  0  0  0  0  0  0  0  0
   21.3037   17.6400   22.2635 H   0  0  0  0  0  0  0  0  0  0  0  0
   19.7742   18.6485   21.0966 C   0  0  0  0  0  0  0  0  0  0  0  0
   19.9492   18.0399   20.1987 H   0  0  0  0  0  0  0  0  0  0  0  0
   19.5461   19.6634   20.7425 H   0  0  0  0  0  0  0  0  0  0  0  0
   18.5560   18.0790   21.8544 C   0  0  0  0  0  0  0  0  0  0  0  0
   18.7707   17.0777   22.2498 H   0  0  0  0  0  0  0  0  0  0  0  0
   17.6901   18.0001   21.1844 H   0  0  0  0  0  0  0  0  0  0  0  0
   18.2692   18.7280   22.6916 H   0  0  0  0  0  0  0  0  0  0  0  0
  1  2  1  0  0  0  0
  1  3  2  0  0  0  0
  1  4  1  0  0  0  0
  4  5  1  0  0  0  0
  4  6  1  0  0  0  0
  4  7  1  0  0  0  0
  7  8  1  0  0  0  0
  7  9  1  0  0  0  0
  7 10  1  0  0  0  0
 10 11  1  0  0  0  0
 10 12  1  0  0  0  0
 10 13  1  0  0  0  0
 13 14  1  0  0  0  0
 13 15  1  0  0  0  0
 13 16  1  0  0  0  0
M  END
> <VConfSearch Rank>
938

> <Conf_Id>
39

> <Delta U+W>
1.129

> <U+W>
-55.775

> <U>
9.718

> <W>
-65.493

> <W(PB)>
-67.361

> <W(SA)>
1.869

> <Valence>
7.002

> <Coulomb>
2.402

> <VdW>
0.314

> <VdW6>
-5.861

> <VdW12>
6.175

> <Bond>
0.134

> <Angle>
2.734

> <Pdih>
4.133

> <Idih>
0.002

> <Tether>
0.000

$$$$
VeraChem MOL file


 16 15  0  0  0  0  0  0  0  0999 V2000     
   20.8738   20.3085   23.5033 C   0  0  0  0  0  0  0  0  0  0  0  0
   21.6561   21.0124   22.8956 O   0  5  0  0  0  0  0  0  0  0  0  0
   21.1695   19.6942   24.5094 O   0  0  0  0  0  0  0  0  0  0  0  0
   19.4226   20.2664   23.0280 C   0  0  0  0  0  0  0  0  0  0  0  0
   19.3106   20.9326   22.1639 H   0  0  0  0  0  0  0  0  0  0  0  0
   18.8204   20.6978   23.8361 H   0  0  0  0  0  0  0  0  0  0  0  0
   18.8747   18.8512   22.6905 C   0  0  0  0  0  0  0  0  0  0  0  0
   19.1708   18.1386   23.4729 H   0  0  0  0  0  0  0  0  0  0  0  0
   17.7777   18.8962   22.7216 H   0  0  0  0  0  0  0  0  0  0  0  0
   19.2857   18.3132   21.2987 C   0  0  0  0  0  0  0  0  0  0  0  0
   18.9897   19.0292   20.5196 H   0  0  0  0  0  0  0  0  0  0  0  0
   18.7202   17.3919   21.1017 H   0  0  0  0  0  0  0  0  0  0  0  0
   20.7909   17.9996   21.1707 C   0  0  0  0  0  0  0  0  0  0  0  0
   21.3933   18.9158   21.1952 H   0  0  0  0  0  0  0  0  0  0  0  0
   20.9981   17.4941   20.2186 H   0  0  0  0  0  0  0  0  0  0  0  0
   21.1273   17.3432   21.9838 H   0  0  0  0  0  0  0  0  0  0  0  0
  1  2  1  0  0  0  0
  1  3  2  0  0  0  0
  1  4  1  0  0  0  0
  4  5  1  0  0  0  0
  4  6  1  0  0  0  0
  4  7  1  0  0  0  0
  7  8  1  0  0  0  0
  7  9  1  0  0  0  0
  7 10  1  0  0  0  0
 10 11  1  0  0  0  0
 10 12  1  0  0  0  0
 10 13  1  0  0  0  0
 13 14  1  0  0  0  0
 13 15  1  0  0  0  0
 13 16  1  0  0  0  0
M  END
> <VConfSearch Rank>
939

> <Conf_Id>
47

> <Delta U+W>
2.301

> <U+W>
-54.603

> <U>
11.258

> <W>
-65.861

> <W(PB)>
-67.702

> <W(SA)>
1.841

> <Valence>
8.169

> <Coulomb>
2.735

> <VdW>
0.355

> <VdW6>
-6.245

> <VdW12>
6.600

> <Bond>
0.149

> <Angle>
3.168

> <Pdih>
4.840

> <Idih>
0.011

> <Tether>
0.000

$$$$
VeraChem MOL file


 16 15  0  0  0  0  0  0  0  0999 V2000     
   20.9772   19.1552   20.6018 C   0  0  0  0  0  0  0  0  0  0  0  0
   21.8461   19.9950   20.7323 O   0  5  0  0  0  0  0  0  0  0  0  0
   20.2803   19.0628   19.6105 O   0  0  0  0  0  0  0  0  0  0  0  0
   20.8119   18.1061   21.6998 C   0  0  0  0  0  0  0  0  0  0  0  0
   21.7600   17.5580   21.7485 H   0  0  0  0  0  0  0  0  0  0  0  0
   20.0475   17.3830   21.3903 H   0  0  0  0  0  0  0  0  0  0  0  0
   20.4806   18.6678   23.1111 C   0  0  0  0  0  0  0  0  0  0  0  0
   20.7425   17.9000   23.8516 H   0  0  0  0  0  0  0  0  0  0  0  0
   21.1232   19.5318   23.3306 H   0  0  0  0  0  0  0  0  0  0  0  0
   18.9944   19.0430   23.3257 C   0  0  0  0  0  0  0  0  0  0  0  0
   18.8443   19.2721   24.3898 H   0  0  0  0  0  0  0  0  0  0  0  0
   18.3553   18.1773   23.1035 H   0  0  0  0  0  0  0  0  0  0  0  0
   18.5312   20.2572   22.4943 C   0  0  0  0  0  0  0  0  0  0  0  0
   17.5187   20.5611   22.7898 H   0  0  0  0  0  0  0  0  0  0  0  0
   18.5051   20.0215   21.4234 H   0  0  0  0  0  0  0  0  0  0  0  0
   19.2001   21.1150   22.6428 H   0  0  0  0  0  0  0  0  0  0  0  0
  1  2  1  0  0  0  0
  1  3  2  0  0  0  0
  1  4  1  0  0  0  0
  4  5  1  0  0  0  0
  4  6  1  0  0  0  0
  4  7  1  0  0  0  0
  7  8  1  0  0  0  0
  7  9  1  0  0  0  0
  7 10  1  0  0  0  0
 10 11  1  0  0  0  0
 10 12  1  0  0  0  0
 10 13  1  0  0  0  0
 13 14  1  0  0  0  0
 13 15  1  0  0  0  0
 13 16  1  0  0  0  0
M  END
> <VConfSearch Rank>
940

> <Conf_Id>
45

> <Delta U+W>
2.303

> <U+W>
-54.601

> <U>
11.258

> <W>
-65.860

> <W(PB)>
-67.709

> <W(SA)>
1.849

> <Valence>
8.169

> <Coulomb>
2.735

> <VdW>
0.355

> <VdW6>
-6.245

> <VdW12>
6.600

> <Bond>
0.149

> <Angle>
3.168

> <Pdih>
4.840

> <Idih>
0.011

> <Tether>
0.000

$$$$
VeraChem MOL file


 16 15  0  0  0  0  0  0  0  0999 V2000     
   20.1338   16.6238   23.0945 C   0  0  0  0  0  0  0  0  0  0  0  0
   19.5262   16.9522   24.0950 O   0  5  0  0  0  0  0  0  0  0  0  0
   20.5554   15.4990   22.9151 O   0  0  0  0  0  0  0  0  0  0  0  0
   20.3957   17.6518   21.9925 C   0  0  0  0  0  0  0  0  0  0  0  0
   19.9615   17.2567   21.0665 H   0  0  0  0  0  0  0  0  0  0  0  0
   21.4806   17.7014   21.8423 H   0  0  0  0  0  0  0  0  0  0  0  0
   19.8394   19.0745   22.2661 C   0  0  0  0  0  0  0  0  0  0  0  0
   18.7531   19.0178   22.4211 H   0  0  0  0  0  0  0  0  0  0  0  0
   20.2738   19.4630   23.1977 H   0  0  0  0  0  0  0  0  0  0  0  0
   20.1482   20.0439   21.1058 C   0  0  0  0  0  0  0  0  0  0  0  0
   19.7129   19.6575   20.1738 H   0  0  0  0  0  0  0  0  0  0  0  0
   21.2345   20.1030   20.9509 H   0  0  0  0  0  0  0  0  0  0  0  0
   19.5933   21.4550   21.3833 C   0  0  0  0  0  0  0  0  0  0  0  0
   18.5032   21.4302   21.5114 H   0  0  0  0  0  0  0  0  0  0  0  0
   19.8213   22.1313   20.5492 H   0  0  0  0  0  0  0  0  0  0  0  0
   20.0360   21.8789   22.2943 H   0  0  0  0  0  0  0  0  0  0  0  0
  1  2  1  0  0  0  0
  1  3  2  0  0  0  0
  1  4  1  0  0  0  0
  4  5  1  0  0  0  0
  4  6  1  0  0  0  0
  4  7  1  0  0  0  0
  7  8  1  0  0  0  0
  7  9  1  0  0  0  0
  7 10  1  0  0  0  0
 10 11  1  0  0  0  0
 10 12  1  0  0  0  0
 10 13  1  0  0  0  0
 13 14  1  0  0  0  0
 13 15  1  0  0  0  0
 13 16  1  0  0  0  0
M  END
> <VConfSearch Rank>
941

> <Conf_Id>
0

> <Delta U+W>
0.000

> <U+W>
-56.904

> <U>
7.329

> <W>
-64.233

> <W(PB)>
-66.148

> <W(SA)>
1.915

> <Valence>
6.755

> <Coulomb>
-0.421

> <VdW>
0.995

> <VdW6>
-4.495

> <VdW12>
5.490

> <Bond>
0.106

> <Angle>
2.715

> <Pdih>
3.934

> <Idih>
0.000

> <Tether>
0.000

$$$$
VeraChem MOL file


 16 15  0  0  0  0  0  0  0  0999 V2000     
   22.4465   20.2749   22.5199 C   0  0  0  0  0  0  0  0  0  0  0  0
   22.4229   21.0716   23.4367 O   0  5  0  0  0  0  0  0  0  0  0  0
   23.4150   19.5946   22.2456 O   0  0  0  0  0  0  0  0  0  0  0  0
   21.1860   20.1064   21.6789 C   0  0  0  0  0  0  0  0  0  0  0  0
   21.4899   19.8567   20.6551 H   0  0  0  0  0  0  0  0  0  0  0  0
   20.6719   21.0743   21.6372 H   0  0  0  0  0  0  0  0  0  0  0  0
   20.2327   19.0191   22.2330 C   0  0  0  0  0  0  0  0  0  0  0  0
   20.7653   18.0591   22.2803 H   0  0  0  0  0  0  0  0  0  0  0  0
   19.9474   19.2768   23.2624 H   0  0  0  0  0  0  0  0  0  0  0  0
   18.9663   18.8690   21.3644 C   0  0  0  0  0  0  0  0  0  0  0  0
   19.2512   18.6107   20.3350 H   0  0  0  0  0  0  0  0  0  0  0  0
   18.4330   19.8287   21.3174 H   0  0  0  0  0  0  0  0  0  0  0  0
   18.0223   17.7854   21.9217 C   0  0  0  0  0  0  0  0  0  0  0  0
   17.6963   18.0344   22.9401 H   0  0  0  0  0  0  0  0  0  0  0  0
   18.5205   16.8074   21.9505 H   0  0  0  0  0  0  0  0  0  0  0  0
   17.1274   17.6914   21.2929 H   0  0  0  0  0  0  0  0  0  0  0  0
  1  2  1  0  0  0  0
  1  3  2  0  0  0  0
  1  4  1  0  0  0  0
  4  5  1  0  0  0  0
  4  6  1  0  0  0  0
  4  7  1  0  0  0  0
  7  8  1  0  0  0  0
  7  9  1  0  0  0  0
  7 10  1  0  0  0  0
 10 11  1  0  0  0  0
 10 12  1  0  0  0  0
 10 13  1  0  0  0  0
 13 14  1  0  0  0  0
 13 15  1  0  0  0  0
 13 16  1  0  0  0  0
M  END
> <VConfSearch Rank>
942

> <Conf_Id>
22

> <Delta U+W>
-1.185

> <U+W>
-58.089

> <U>
6.298

> <W>
-64.387

> <W(PB)>
-66.329

> <W(SA)>
1.942

> <Valence>
6.246

> <Coulomb>
-0.408

> <VdW>
0.460

> <VdW6>
-4.207

> <VdW12>
4.667

> <Bond>
0.072

> <Angle>
2.246

> <Pdih>
3.928

> <Idih>
0.001

> <Tether>
0.000

$$$$
VeraChem MOL file


 16 15  0  0  0  0  0  0  0  0999 V2000     
   20.5726   17.3521   23.7532 C   0  0  0  0  0  0  0  0  0  0  0  0
   21.4800   16.5610   23.5902 O   0  5  0  0  0  0  0  0  0  0  0  0
   19.6565   17.1723   24.5307 O   0  0  0  0  0  0  0  0  0  0  0  0
   20.5732   18.6305   22.9224 C   0  0  0  0  0  0  0  0  0  0  0  0
   21.6158   18.9189   22.7422 H   0  0  0  0  0  0  0  0  0  0  0  0
   20.1166   19.4224   23.5269 H   0  0  0  0  0  0  0  0  0  0  0  0
   19.8222   18.4720   21.5748 C   0  0  0  0  0  0  0  0  0  0  0  0
   20.2472   17.6162   21.0322 H   0  0  0  0  0  0  0  0  0  0  0  0
   18.7693   18.2249   21.7688 H   0  0  0  0  0  0  0  0  0  0  0  0
   19.9070   19.7242   20.6720 C   0  0  0  0  0  0  0  0  0  0  0  0
   19.4479   19.4915   19.7013 H   0  0  0  0  0  0  0  0  0  0  0  0
   20.9597   19.9645   20.4682 H   0  0  0  0  0  0  0  0  0  0  0  0
   19.2002   20.9575   21.2740 C   0  0  0  0  0  0  0  0  0  0  0  0
   19.6978   21.2969   22.1911 H   0  0  0  0  0  0  0  0  0  0  0  0
   18.1527   20.7322   21.5131 H   0  0  0  0  0  0  0  0  0  0  0  0
   19.2121   21.7923   20.5613 H   0  0  0  0  0  0  0  0  0  0  0  0
  1  2  1  0  0  0  0
  1  3  2  0  0  0  0
  1  4  1  0  0  0  0
  4  5  1  0  0  0  0
  4  6  1  0  0  0  0
  4  7  1  0  0  0  0
  7  8  1  0  0  0  0
  7  9  1  0  0  0  0
  7 10  1  0  0  0  0
 10 11  1  0  0  0  0
 10 12  1  0  0  0  0
 10 13  1  0  0  0  0
 13 14  1  0  0  0  0
 13 15  1  0  0  0  0
 13 16  1  0  0  0  0
M  END
> <VConfSearch Rank>
943

> <Conf_Id>
36

> <Delta U+W>
-0.427

> <U+W>
-57.331

> <U>
7.263

> <W>
-64.594

> <W(PB)>
-66.513

> <W(SA)>
1.920

> <Valence>
6.734

> <Coulomb>
-0.068

> <VdW>
0.598

> <VdW6>
-4.819

> <VdW12>
5.417

> <Bond>
0.107

> <Angle>
2.469

> <Pdih>
4.157

> <Idih>
0.001

> <Tether>
0.000

$$$$
VeraChem MOL file


 16 15  0  0  0  0  0  0  0  0999 V2000     
   20.8977   18.9010   19.5873 C   0  0  0  0  0  0  0  0  0  0  0  0
   22.0778   19.1861   19.5439 O   0  5  0  0  0  0  0  0  0  0  0  0
   20.1773   18.8732   18.6094 O   0  0  0  0  0  0  0  0  0  0  0  0
   20.2824   18.5803   20.9449 C   0  0  0  0  0  0  0  0  0  0  0  0
   21.0534   18.0970   21.5557 H   0  0  0  0  0  0  0  0  0  0  0  0
   19.4819   17.8466   20.7911 H   0  0  0  0  0  0  0  0  0  0  0  0
   19.7251   19.8361   21.6641 C   0  0  0  0  0  0  0  0  0  0  0  0
   20.5436   20.5450   21.8508 H   0  0  0  0  0  0  0  0  0  0  0  0
   19.0207   20.3449   20.9914 H   0  0  0  0  0  0  0  0  0  0  0  0
   19.0001   19.5143   22.9912 C   0  0  0  0  0  0  0  0  0  0  0  0
   18.1742   18.8144   22.8029 H   0  0  0  0  0  0  0  0  0  0  0  0
   18.5441   20.4364   23.3771 H   0  0  0  0  0  0  0  0  0  0  0  0
   19.9373   18.9327   24.0712 C   0  0  0  0  0  0  0  0  0  0  0  0
   20.3294   17.9516   23.7756 H   0  0  0  0  0  0  0  0  0  0  0  0
   19.3973   18.8030   25.0181 H   0  0  0  0  0  0  0  0  0  0  0  0
   20.7872   19.6025   24.2559 H   0  0  0  0  0  0  0  0  0  0  0  0
  1  2  1  0  0  0  0
  1  3  2  0  0  0  0
  1  4  1  0  0  0  0
  4  5  1  0  0  0  0
  4  6  1  0  0  0  0
  4  7  1  0  0  0  0
  7  8  1  0  0  0  0
  7  9  1  0  0  0  0
  7 10  1  0  0  0  0
 10 11  1  0  0  0  0
 10 12  1  0  0  0  0
 10 13  1  0  0  0  0
 13 14  1  0  0  0  0
 13 15  1  0  0  0  0
 13 16  1  0  0  0  0
M  END
> <VConfSearch Rank>
944

> <Conf_Id>
17

> <Delta U+W>
-0.432

> <U+W>
-57.336

> <U>
7.263

> <W>
-64.599

> <W(PB)>
-66.503

> <W(SA)>
1.904

> <Valence>
6.734

> <Coulomb>
-0.068

> <VdW>
0.598

> <VdW6>
-4.819

> <VdW12>
5.417

> <Bond>
0.107

> <Angle>
2.469

> <Pdih>
4.157

> <Idih>
0.001

> <Tether>
0.000

$$$$
VeraChem MOL file


 16 15  0  0  0  0  0  0  0  0999 V2000     
   19.9982   21.4736   21.7415 C   0  0  0  0  0  0  0  0  0  0  0  0
   18.9677   21.9672   22.1547 O   0  5  0  0  0  0  0  0  0  0  0  0
   21.1012   21.9227   21.9823 O   0  0  0  0  0  0  0  0  0  0  0  0
   19.8981   20.2370   20.8525 C   0  0  0  0  0  0  0  0  0  0  0  0
   20.8364   20.1291   20.2950 H   0  0  0  0  0  0  0  0  0  0  0  0
   19.1104   20.4268   20.1137 H   0  0  0  0  0  0  0  0  0  0  0  0
   19.5801   18.9290   21.6227 C   0  0  0  0  0  0  0  0  0  0  0  0
   18.6536   19.0615   22.1986 H   0  0  0  0  0  0  0  0  0  0  0  0
   19.3897   18.1259   20.8978 H   0  0  0  0  0  0  0  0  0  0  0  0
   20.7256   18.5018   22.5659 C   0  0  0  0  0  0  0  0  0  0  0  0
   20.9113   19.2898   23.3091 H   0  0  0  0  0  0  0  0  0  0  0  0
   21.6541   18.3818   21.9907 H   0  0  0  0  0  0  0  0  0  0  0  0
   20.3983   17.1824   23.2928 C   0  0  0  0  0  0  0  0  0  0  0  0
   19.4898   17.2843   23.9008 H   0  0  0  0  0  0  0  0  0  0  0  0
   21.2215   16.8937   23.9592 H   0  0  0  0  0  0  0  0  0  0  0  0
   20.2412   16.3666   22.5750 H   0  0  0  0  0  0  0  0  0  0  0  0
  1  2  1  0  0  0  0
  1  3  2  0  0  0  0
  1  4  1  0  0  0  0
  4  5  1  0  0  0  0
  4  6  1  0  0  0  0
  4  7  1  0  0  0  0
  7  8  1  0  0  0  0
  7  9  1  0  0  0  0
  7 10  1  0  0  0  0
 10 11  1  0  0  0  0
 10 12  1  0  0  0  0
 10 13  1  0  0  0  0
 13 14  1  0  0  0  0
 13 15  1  0  0  0  0
 13 16  1  0  0  0  0
M  END
> <VConfSearch Rank>
945

> <Conf_Id>
19

> <Delta U+W>
0.048

> <U+W>
-56.856

> <U>
8.276

> <W>
-65.132

> <W(PB)>
-67.031

> <W(SA)>
1.899

> <Valence>
6.513

> <Coulomb>
1.428

> <VdW>
0.335

> <VdW6>
-5.021

> <VdW12>
5.356

> <Bond>
0.092

> <Angle>
2.417

> <Pdih>
4.003

> <Idih>
0.001

> <Tether>
0.000

$$$$
VeraChem MOL file


 16 15  0  0  0  0  0  0  0  0999 V2000     
   20.7874   19.2939   24.2669 C   0  0  0  0  0  0  0  0  0  0  0  0
   19.9521   19.3893   25.1441 O   0  5  0  0  0  0  0  0  0  0  0  0
   21.7596   20.0179   24.1843 O   0  0  0  0  0  0  0  0  0  0  0  0
   20.6165   18.1895   23.2273 C   0  0  0  0  0  0  0  0  0  0  0  0
   20.3581   17.2696   23.7652 H   0  0  0  0  0  0  0  0  0  0  0  0
   21.5840   18.0119   22.7421 H   0  0  0  0  0  0  0  0  0  0  0  0
   19.5303   18.4874   22.1613 C   0  0  0  0  0  0  0  0  0  0  0  0
   19.3796   17.5903   21.5456 H   0  0  0  0  0  0  0  0  0  0  0  0
   18.5740   18.6912   22.6629 H   0  0  0  0  0  0  0  0  0  0  0  0
   19.9048   19.6744   21.2475 C   0  0  0  0  0  0  0  0  0  0  0  0
   20.8672   19.4747   20.7562 H   0  0  0  0  0  0  0  0  0  0  0  0
   20.0382   20.5831   21.8510 H   0  0  0  0  0  0  0  0  0  0  0  0
   18.8250   19.9275   20.1768 C   0  0  0  0  0  0  0  0  0  0  0  0
   18.6938   19.0465   19.5349 H   0  0  0  0  0  0  0  0  0  0  0  0
   19.1060   20.7741   19.5370 H   0  0  0  0  0  0  0  0  0  0  0  0
   17.8581   20.1603   20.6419 H   0  0  0  0  0  0  0  0  0  0  0  0
  1  2  1  0  0  0  0
  1  3  2  0  0  0  0
  1  4  1  0  0  0  0
  4  5  1  0  0  0  0
  4  6  1  0  0  0  0
  4  7  1  0  0  0  0
  7  8  1  0  0  0  0
  7  9  1  0  0  0  0
  7 10  1  0  0  0  0
 10 11  1  0  0  0  0
 10 12  1  0  0  0  0
 10 13  1  0  0  0  0
 13 14  1  0  0  0  0
 13 15  1  0  0  0  0
 13 16  1  0  0  0  0
M  END
> <VConfSearch Rank>
946

> <Conf_Id>
20

> <Delta U+W>
-0.010

> <U+W>
-56.914

> <U>
8.277

> <W>
-65.191

> <W(PB)>
-67.081

> <W(SA)>
1.890

> <Valence>
6.513

> <Coulomb>
1.429

> <VdW>
0.335

> <VdW6>
-5.021

> <VdW12>
5.356

> <Bond>
0.092

> <Angle>
2.417

> <Pdih>
4.002

> <Idih>
0.001

> <Tether>
0.000

$$$$
VeraChem MOL file


 16 15  0  0  0  0  0  0  0  0999 V2000     
   19.0432   20.5596   20.7615 C   0  0  0  0  0  0  0  0  0  0  0  0
   19.1361   21.7646   20.8888 O   0  5  0  0  0  0  0  0  0  0  0  0
   18.0090   19.9947   20.4656 O   0  0  0  0  0  0  0  0  0  0  0  0
   20.3016   19.7168   20.9506 C   0  0  0  0  0  0  0  0  0  0  0  0
   21.0893   20.1651   20.3339 H   0  0  0  0  0  0  0  0  0  0  0  0
   20.1197   18.7162   20.5420 H   0  0  0  0  0  0  0  0  0  0  0  0
   20.7915   19.6266   22.4219 C   0  0  0  0  0  0  0  0  0  0  0  0
   21.7394   19.0726   22.4525 H   0  0  0  0  0  0  0  0  0  0  0  0
   21.0154   20.6403   22.7819 H   0  0  0  0  0  0  0  0  0  0  0  0
   19.7832   18.9637   23.3903 C   0  0  0  0  0  0  0  0  0  0  0  0
   18.8412   19.5296   23.3952 H   0  0  0  0  0  0  0  0  0  0  0  0
   20.1844   19.0227   24.4115 H   0  0  0  0  0  0  0  0  0  0  0  0
   19.4967   17.4851   23.0525 C   0  0  0  0  0  0  0  0  0  0  0  0
   18.9806   17.3899   22.0887 H   0  0  0  0  0  0  0  0  0  0  0  0
   18.8534   17.0343   23.8191 H   0  0  0  0  0  0  0  0  0  0  0  0
   20.4269   16.9040   23.0064 H   0  0  0  0  0  0  0  0  0  0  0  0
  1  2  1  0  0  0  0
  1  3  2  0  0  0  0
  1  4  1  0  0  0  0
  4  5  1  0  0  0  0
  4  6  1  0  0  0  0
  4  7  1  0  0  0  0
  7  8  1  0  0  0  0
  7  9  1  0  0  0  0
  7 10  1  0  0  0  0
 10 11  1  0  0  0  0
 10 12  1  0  0  0  0
 10 13  1  0  0  0  0
 13 14  1  0  0  0  0
 13 15  1  0  0  0  0
 13 16  1  0  0  0  0
M  END
> <VConfSearch Rank>
947

> <Conf_Id>
37

> <Delta U+W>
1.063

> <U+W>
-55.841

> <U>
9.719

> <W>
-65.560

> <W(PB)>
-67.414

> <W(SA)>
1.854

> <Valence>
7.002

> <Coulomb>
2.402

> <VdW>
0.314

> <VdW6>
-5.861

> <VdW12>
6.175

> <Bond>
0.134

> <Angle>
2.733

> <Pdih>
4.133

> <Idih>
0.002

> <Tether>
0.000

$$$$
VeraChem MOL file


 16 15  0  0  0  0  0  0  0  0999 V2000     
   19.2361   18.4319   23.9925 C   0  0  0  0  0  0  0  0  0  0  0  0
   19.6272   17.4495   24.5914 O   0  5  0  0  0  0  0  0  0  0  0  0
   18.9766   19.4880   24.5345 O   0  0  0  0  0  0  0  0  0  0  0  0
   19.0277   18.3200   22.4846 C   0  0  0  0  0  0  0  0  0  0  0  0
   18.4281   19.1734   22.1479 H   0  0  0  0  0  0  0  0  0  0  0  0
   18.4209   17.4247   22.3054 H   0  0  0  0  0  0  0  0  0  0  0  0
   20.3442   18.2191   21.6664 C   0  0  0  0  0  0  0  0  0  0  0  0
   20.8938   17.3248   21.9913 H   0  0  0  0  0  0  0  0  0  0  0  0
   20.0989   18.0619   20.6074 H   0  0  0  0  0  0  0  0  0  0  0  0
   21.2720   19.4505   21.7965 C   0  0  0  0  0  0  0  0  0  0  0  0
   22.2049   19.2479   21.2527 H   0  0  0  0  0  0  0  0  0  0  0  0
   21.5532   19.5980   22.8485 H   0  0  0  0  0  0  0  0  0  0  0  0
   20.6440   20.7470   21.2423 C   0  0  0  0  0  0  0  0  0  0  0  0
   20.3214   20.6150   20.2013 H   0  0  0  0  0  0  0  0  0  0  0  0
   21.3721   21.5680   21.2697 H   0  0  0  0  0  0  0  0  0  0  0  0
   19.7751   21.0546   21.8379 H   0  0  0  0  0  0  0  0  0  0  0  0
  1  2  1  0  0  0  0
  1  3  2  0  0  0  0
  1  4  1  0  0  0  0
  4  5  1  0  0  0  0
  4  6  1  0  0  0  0
  4  7  1  0  0  0  0
  7  8  1  0  0  0  0
  7  9  1  0  0  0  0
  7 10  1  0  0  0  0
 10 11  1  0  0  0  0
 10 12  1  0  0  0  0
 10 13  1  0  0  0  0
 13 14  1  0  0  0  0
 13 15  1  0  0  0  0
 13 16  1  0  0  0  0
M  END
> <VConfSearch Rank>
948

> <Conf_Id>
39

> <Delta U+W>
1.129

> <U+W>
-55.775

> <U>
9.718

> <W>
-65.493

> <W(PB)>
-67.361

> <W(SA)>
1.869

> <Valence>
7.002

> <Coulomb>
2.402

> <VdW>
0.314

> <VdW6>
-5.861

> <VdW12>
6.175

> <Bond>
0.134

> <Angle>
2.734

> <Pdih>
4.133

> <Idih>
0.002

> <Tether>
0.000

$$$$
VeraChem MOL file


 16 15  0  0  0  0  0  0  0  0999 V2000     
   18.4982   17.9943   23.1860 C   0  0  0  0  0  0  0  0  0  0  0  0
   17.8387   17.3611   22.3854 O   0  5  0  0  0  0  0  0  0  0  0  0
   18.0088   18.6624   24.0756 O   0  0  0  0  0  0  0  0  0  0  0  0
   20.0196   17.8708   23.1248 C   0  0  0  0  0  0  0  0  0  0  0  0
   20.2890   17.1742   22.3216 H   0  0  0  0  0  0  0  0  0  0  0  0
   20.3292   17.3997   24.0650 H   0  0  0  0  0  0  0  0  0  0  0  0
   20.7887   19.2112   22.9548 C   0  0  0  0  0  0  0  0  0  0  0  0
   20.3704   19.9711   23.6293 H   0  0  0  0  0  0  0  0  0  0  0  0
   21.8244   19.0517   23.2837 H   0  0  0  0  0  0  0  0  0  0  0  0
   20.8320   19.7529   21.5056 C   0  0  0  0  0  0  0  0  0  0  0  0
   21.2489   18.9896   20.8342 H   0  0  0  0  0  0  0  0  0  0  0  0
   21.5262   20.6041   21.4736 H   0  0  0  0  0  0  0  0  0  0  0  0
   19.4614   20.2199   20.9729 C   0  0  0  0  0  0  0  0  0  0  0  0
   18.7793   19.3732   20.8289 H   0  0  0  0  0  0  0  0  0  0  0  0
   19.5767   20.7194   20.0023 H   0  0  0  0  0  0  0  0  0  0  0  0
   18.9900   20.9291   21.6658 H   0  0  0  0  0  0  0  0  0  0  0  0
  1  2  1  0  0  0  0
  1  3  2  0  0  0  0
  1  4  1  0  0  0  0
  4  5  1  0  0  0  0
  4  6  1  0  0  0  0
  4  7  1  0  0  0  0
  7  8  1  0  0  0  0
  7  9  1  0  0  0  0
  7 10  1  0  0  0  0
 10 11  1  0  0  0  0
 10 12  1  0  0  0  0
 10 13  1  0  0  0  0
 13 14  1  0  0  0  0
 13 15  1  0  0  0  0
 13 16  1  0  0  0  0
M  END
> <VConfSearch Rank>
949

> <Conf_Id>
47

> <Delta U+W>
2.301

> <U+W>
-54.603

> <U>
11.258

> <W>
-65.861

> <W(PB)>
-67.702

> <W(SA)>
1.841

> <Valence>
8.169

> <Coulomb>
2.735

> <VdW>
0.355

> <VdW6>
-6.245

> <VdW12>
6.600

> <Bond>
0.149

> <Angle>
3.168

> <Pdih>
4.840

> <Idih>
0.011

> <Tether>
0.000

$$$$
VeraChem MOL file


 16 15  0  0  0  0  0  0  0  0999 V2000     
   19.4015   20.0137   23.9815 C   0  0  0  0  0  0  0  0  0  0  0  0
   19.7496   19.3019   24.9030 O   0  5  0  0  0  0  0  0  0  0  0  0
   18.3057   20.5349   23.9163 O   0  0  0  0  0  0  0  0  0  0  0  0
   20.4227   20.3437   22.8943 C   0  0  0  0  0  0  0  0  0  0  0  0
   21.2447   20.8709   23.3925 H   0  0  0  0  0  0  0  0  0  0  0  0
   19.9759   21.0551   22.1892 H   0  0  0  0  0  0  0  0  0  0  0  0
   20.9988   19.1187   22.1299 C   0  0  0  0  0  0  0  0  0  0  0  0
   21.9439   19.4251   21.6617 H   0  0  0  0  0  0  0  0  0  0  0  0
   21.2575   18.3216   22.8407 H   0  0  0  0  0  0  0  0  0  0  0  0
   20.0800   18.5602   21.0165 C   0  0  0  0  0  0  0  0  0  0  0  0
   20.6445   17.8119   20.4432 H   0  0  0  0  0  0  0  0  0  0  0  0
   19.8222   19.3605   20.3092 H   0  0  0  0  0  0  0  0  0  0  0  0
   18.7900   17.8995   21.5453 C   0  0  0  0  0  0  0  0  0  0  0  0
   18.2510   17.4019   20.7288 H   0  0  0  0  0  0  0  0  0  0  0  0
   18.1118   18.6416   21.9837 H   0  0  0  0  0  0  0  0  0  0  0  0
   19.0182   17.1458   22.3103 H   0  0  0  0  0  0  0  0  0  0  0  0
  1  2  1  0  0  0  0
  1  3  2  0  0  0  0
  1  4  1  0  0  0  0
  4  5  1  0  0  0  0
  4  6  1  0  0  0  0
  4  7  1  0  0  0  0
  7  8  1  0  0  0  0
  7  9  1  0  0  0  0
  7 10  1  0  0  0  0
 10 11  1  0  0  0  0
 10 12  1  0  0  0  0
 10 13  1  0  0  0  0
 13 14  1  0  0  0  0
 13 15  1  0  0  0  0
 13 16  1  0  0  0  0
M  END
> <VConfSearch Rank>
950

> <Conf_Id>
45

> <Delta U+W>
2.303

> <U+W>
-54.601

> <U>
11.258

> <W>
-65.860

> <W(PB)>
-67.709

> <W(SA)>
1.849

> <Valence>
8.169

> <Coulomb>
2.735

> <VdW>
0.355

> <VdW6>
-6.245

> <VdW12>
6.600

> <Bond>
0.149

> <Angle>
3.168

> <Pdih>
4.840

> <Idih>
0.011

> <Tether>
0.000

$$$$
VeraChem MOL file


 16 15  0  0  0  0  0  0  0  0999 V2000     
   20.3205   20.6029   24.2343 C   0  0  0  0  0  0  0  0  0  0  0  0
   19.7330   19.8078   24.9418 O   0  5  0  0  0  0  0  0  0  0  0  0
   20.7983   21.6371   24.6554 O   0  0  0  0  0  0  0  0  0  0  0  0
   20.4818   20.3165   22.7403 C   0  0  0  0  0  0  0  0  0  0  0  0
   21.5558   20.3235   22.5199 H   0  0  0  0  0  0  0  0  0  0  0  0
   20.0372   21.1581   22.1959 H   0  0  0  0  0  0  0  0  0  0  0  0
   19.8550   18.9849   22.2482 C   0  0  0  0  0  0  0  0  0  0  0  0
   20.3003   18.1460   22.8009 H   0  0  0  0  0  0  0  0  0  0  0  0
   18.7801   18.9815   22.4766 H   0  0  0  0  0  0  0  0  0  0  0  0
   20.0643   18.7778   20.7334 C   0  0  0  0  0  0  0  0  0  0  0  0
   21.1389   18.7792   20.5039 H   0  0  0  0  0  0  0  0  0  0  0  0
   19.6179   19.6152   20.1794 H   0  0  0  0  0  0  0  0  0  0  0  0
   19.4397   17.4538   20.2508 C   0  0  0  0  0  0  0  0  0  0  0  0
   19.8905   16.5958   20.7666 H   0  0  0  0  0  0  0  0  0  0  0  0
   19.5974   17.3221   19.1724 H   0  0  0  0  0  0  0  0  0  0  0  0
   18.3582   17.4379   20.4397 H   0  0  0  0  0  0  0  0  0  0  0  0
  1  2  1  0  0  0  0
  1  3  2  0  0  0  0
  1  4  1  0  0  0  0
  4  5  1  0  0  0  0
  4  6  1  0  0  0  0
  4  7  1  0  0  0  0
  7  8  1  0  0  0  0
  7  9  1  0  0  0  0
  7 10  1  0  0  0  0
 10 11  1  0  0  0  0
 10 12  1  0  0  0  0
 10 13  1  0  0  0  0
 13 14  1  0  0  0  0
 13 15  1  0  0  0  0
 13 16  1  0  0  0  0
M  END
> <VConfSearch Rank>
951

> <Conf_Id>
0

> <Delta U+W>
0.000

> <U+W>
-56.904

> <U>
7.329

> <W>
-64.233

> <W(PB)>
-66.148

> <W(SA)>
1.915

> <Valence>
6.755

> <Coulomb>
-0.421

> <VdW>
0.995

> <VdW6>
-4.495

> <VdW12>
5.490

> <Bond>
0.106

> <Angle>
2.715

> <Pdih>
3.934

> <Idih>
0.000

> <Tether>
0.000

$$$$
VeraChem MOL file


 16 15  0  0  0  0  0  0  0  0999 V2000     
   20.2915   16.4572   21.3959 C   0  0  0  0  0  0  0  0  0  0  0  0
   19.5759   16.0500   20.5027 O   0  5  0  0  0  0  0  0  0  0  0  0
   21.3828   15.9875   21.6497 O   0  0  0  0  0  0  0  0  0  0  0  0
   19.8011   17.6336   22.2326 C   0  0  0  0  0  0  0  0  0  0  0  0
   20.1981   17.5187   23.2485 H   0  0  0  0  0  0  0  0  0  0  0  0
   18.7084   17.5703   22.3027 H   0  0  0  0  0  0  0  0  0  0  0  0
   20.2198   19.0051   21.6479 C   0  0  0  0  0  0  0  0  0  0  0  0
   21.3152   19.0484   21.5724 H   0  0  0  0  0  0  0  0  0  0  0  0
   19.8256   19.1000   20.6266 H   0  0  0  0  0  0  0  0  0  0  0  0
   19.7114   20.1774   22.5127 C   0  0  0  0  0  0  0  0  0  0  0  0
   20.1059   20.0832   23.5339 H   0  0  0  0  0  0  0  0  0  0  0  0
   18.6159   20.1348   22.5879 H   0  0  0  0  0  0  0  0  0  0  0  0
   20.1317   21.5389   21.9248 C   0  0  0  0  0  0  0  0  0  0  0  0
   19.7240   21.6732   20.9142 H   0  0  0  0  0  0  0  0  0  0  0  0
   21.2251   21.6212   21.8673 H   0  0  0  0  0  0  0  0  0  0  0  0
   19.7624   22.3613   22.5513 H   0  0  0  0  0  0  0  0  0  0  0  0
  1  2  1  0  0  0  0
  1  3  2  0  0  0  0
  1  4  1  0  0  0  0
  4  5  1  0  0  0  0
  4  6  1  0  0  0  0
  4  7  1  0  0  0  0
  7  8  1  0  0  0  0
  7  9  1  0  0  0  0
  7 10  1  0  0  0  0
 10 11  1  0  0  0  0
 10 12  1  0  0  0  0
 10 13  1  0  0  0  0
 13 14  1  0  0  0  0
 13 15  1  0  0  0  0
 13 16  1  0  0  0  0
M  END
> <VConfSearch Rank>
952

> <Conf_Id>
22

> <Delta U+W>
-1.185

> <U+W>
-58.089

> <U>
6.298

> <W>
-64.387

> <W(PB)>
-66.329

> <W(SA)>
1.942

> <Valence>
6.246

> <Coulomb>
-0.408

> <VdW>
0.460

> <VdW6>
-4.207

> <VdW12>
4.667

> <Bond>
0.072

> <Angle>
2.246

> <Pdih>
3.928

> <Idih>
0.001

> <Tether>
0.000

$$$$
VeraChem MOL file


 16 15  0  0  0  0  0  0  0  0999 V2000     
   22.0547   18.0638   23.0658 C   0  0  0  0  0  0  0  0  0  0  0  0
   23.1751   18.2389   22.6298 O   0  5  0  0  0  0  0  0  0  0  0  0
   21.7484   17.1243   23.7725 O   0  0  0  0  0  0  0  0  0  0  0  0
   20.9700   19.0668   22.6888 C   0  0  0  0  0  0  0  0  0  0  0  0
   21.4402   20.0513   22.5784 H   0  0  0  0  0  0  0  0  0  0  0  0
   20.2695   19.1334   23.5290 H   0  0  0  0  0  0  0  0  0  0  0  0
   20.2227   18.6824   21.3854 C   0  0  0  0  0  0  0  0  0  0  0  0
   20.9610   18.5387   20.5843 H   0  0  0  0  0  0  0  0  0  0  0  0
   19.7207   17.7147   21.5225 H   0  0  0  0  0  0  0  0  0  0  0  0
   19.1952   19.7438   20.9294 C   0  0  0  0  0  0  0  0  0  0  0  0
   18.7939   19.4490   19.9499 H   0  0  0  0  0  0  0  0  0  0  0  0
   19.6992   20.7089   20.7808 H   0  0  0  0  0  0  0  0  0  0  0  0
   18.0211   19.9179   21.9163 C   0  0  0  0  0  0  0  0  0  0  0  0
   18.3622   20.3214   22.8779 H   0  0  0  0  0  0  0  0  0  0  0  0
   17.5193   18.9594   22.1029 H   0  0  0  0  0  0  0  0  0  0  0  0
   17.2774   20.6149   21.5087 H   0  0  0  0  0  0  0  0  0  0  0  0
  1  2  1  0  0  0  0
  1  3  2  0  0  0  0
  1  4  1  0  0  0  0
  4  5  1  0  0  0  0
  4  6  1  0  0  0  0
  4  7  1  0  0  0  0
  7  8  1  0  0  0  0
  7  9  1  0  0  0  0
  7 10  1  0  0  0  0
 10 11  1  0  0  0  0
 10 12  1  0  0  0  0
 10 13  1  0  0  0  0
 13 14  1  0  0  0  0
 13 15  1  0  0  0  0
 13 16  1  0  0  0  0
M  END
> <VConfSearch Rank>
953

> <Conf_Id>
36

> <Delta U+W>
-0.427

> <U+W>
-57.331

> <U>
7.263

> <W>
-64.594

> <W(PB)>
-66.513

> <W(SA)>
1.920

> <Valence>
6.734

> <Coulomb>
-0.068

> <VdW>
0.598

> <VdW6>
-4.819

> <VdW12>
5.417

> <Bond>
0.107

> <Angle>
2.469

> <Pdih>
4.157

> <Idih>
0.001

> <Tether>
0.000

$$$$
VeraChem MOL file


 16 15  0  0  0  0  0  0  0  0999 V2000     
   17.4800   18.4293   21.8484 C   0  0  0  0  0  0  0  0  0  0  0  0
   17.3253   17.2932   22.2499 O   0  5  0  0  0  0  0  0  0  0  0  0
   16.6765   19.0080   21.1445 O   0  0  0  0  0  0  0  0  0  0  0  0
   18.7610   19.1618   22.2319 C   0  0  0  0  0  0  0  0  0  0  0  0
   19.0572   18.8176   23.2293 H   0  0  0  0  0  0  0  0  0  0  0  0
   18.5309   20.2310   22.3117 H   0  0  0  0  0  0  0  0  0  0  0  0
   19.9095   18.9370   21.2144 C   0  0  0  0  0  0  0  0  0  0  0  0
   20.1600   17.8679   21.1747 H   0  0  0  0  0  0  0  0  0  0  0  0
   19.5517   19.2098   20.2119 H   0  0  0  0  0  0  0  0  0  0  0  0
   21.1802   19.7596   21.5291 C   0  0  0  0  0  0  0  0  0  0  0  0
   20.9323   20.8297   21.5573 H   0  0  0  0  0  0  0  0  0  0  0  0
   21.8982   19.6286   20.7078 H   0  0  0  0  0  0  0  0  0  0  0  0
   21.8587   19.3489   22.8535 C   0  0  0  0  0  0  0  0  0  0  0  0
   21.2185   19.5688   23.7170 H   0  0  0  0  0  0  0  0  0  0  0  0
   22.7994   19.8982   22.9890 H   0  0  0  0  0  0  0  0  0  0  0  0
   22.0901   18.2757   22.8601 H   0  0  0  0  0  0  0  0  0  0  0  0
  1  2  1  0  0  0  0
  1  3  2  0  0  0  0
  1  4  1  0  0  0  0
  4  5  1  0  0  0  0
  4  6  1  0  0  0  0
  4  7  1  0  0  0  0
  7  8  1  0  0  0  0
  7  9  1  0  0  0  0
  7 10  1  0  0  0  0
 10 11  1  0  0  0  0
 10 12  1  0  0  0  0
 10 13  1  0  0  0  0
 13 14  1  0  0  0  0
 13 15  1  0  0  0  0
 13 16  1  0  0  0  0
M  END
> <VConfSearch Rank>
954

> <Conf_Id>
17

> <Delta U+W>
-0.432

> <U+W>
-57.336

> <U>
7.263

> <W>
-64.599

> <W(PB)>
-66.503

> <W(SA)>
1.904

> <Valence>
6.734

> <Coulomb>
-0.068

> <VdW>
0.598

> <VdW6>
-4.819

> <VdW12>
5.417

> <Bond>
0.107

> <Angle>
2.469

> <Pdih>
4.157

> <Idih>
0.001

> <Tether>
0.000

$$$$
VeraChem MOL file


 16 15  0  0  0  0  0  0  0  0999 V2000     
   19.3843   21.2739   21.4055 C   0  0  0  0  0  0  0  0  0  0  0  0
   18.3689   21.2420   20.7389 O   0  5  0  0  0  0  0  0  0  0  0  0
   19.5397   22.0140   22.3565 O   0  0  0  0  0  0  0  0  0  0  0  0
   20.5340   20.3511   21.0104 C   0  0  0  0  0  0  0  0  0  0  0  0
   21.4597   20.7327   21.4584 H   0  0  0  0  0  0  0  0  0  0  0  0
   20.6546   20.4240   19.9231 H   0  0  0  0  0  0  0  0  0  0  0  0
   20.3193   18.8677   21.4085 C   0  0  0  0  0  0  0  0  0  0  0  0
   19.3750   18.5079   20.9767 H   0  0  0  0  0  0  0  0  0  0  0  0
   21.1207   18.2605   20.9664 H   0  0  0  0  0  0  0  0  0  0  0  0
   20.3078   18.6590   22.9383 C   0  0  0  0  0  0  0  0  0  0  0  0
   19.4961   19.2464   23.3897 H   0  0  0  0  0  0  0  0  0  0  0  0
   21.2474   19.0306   23.3701 H   0  0  0  0  0  0  0  0  0  0  0  0
   20.1268   17.1729   23.3058 C   0  0  0  0  0  0  0  0  0  0  0  0
   19.1787   16.7839   22.9118 H   0  0  0  0  0  0  0  0  0  0  0  0
   20.1201   17.0422   24.3957 H   0  0  0  0  0  0  0  0  0  0  0  0
   20.9439   16.5644   22.8965 H   0  0  0  0  0  0  0  0  0  0  0  0
  1  2  1  0  0  0  0
  1  3  2  0  0  0  0
  1  4  1  0  0  0  0
  4  5  1  0  0  0  0
  4  6  1  0  0  0  0
  4  7  1  0  0  0  0
  7  8  1  0  0  0  0
  7  9  1  0  0  0  0
  7 10  1  0  0  0  0
 10 11  1  0  0  0  0
 10 12  1  0  0  0  0
 10 13  1  0  0  0  0
 13 14  1  0  0  0  0
 13 15  1  0  0  0  0
 13 16  1  0  0  0  0
M  END
> <VConfSearch Rank>
955

> <Conf_Id>
19

> <Delta U+W>
0.048

> <U+W>
-56.856

> <U>
8.276

> <W>
-65.132

> <W(PB)>
-67.031

> <W(SA)>
1.899

> <Valence>
6.513

> <Coulomb>
1.428

> <VdW>
0.335

> <VdW6>
-5.021

> <VdW12>
5.356

> <Bond>
0.092

> <Angle>
2.417

> <Pdih>
4.003

> <Idih>
0.001

> <Tether>
0.000

$$$$
VeraChem MOL file


 16 15  0  0  0  0  0  0  0  0999 V2000     
   20.0654   21.1723   23.3240 C   0  0  0  0  0  0  0  0  0  0  0  0
   20.5038   21.0128   24.4459 O   0  5  0  0  0  0  0  0  0  0  0  0
   19.0713   21.8265   23.0787 O   0  0  0  0  0  0  0  0  0  0  0  0
   20.8187   20.5353   22.1595 C   0  0  0  0  0  0  0  0  0  0  0  0
   21.8855   20.7416   22.3066 H   0  0  0  0  0  0  0  0  0  0  0  0
   20.5229   21.0408   21.2321 H   0  0  0  0  0  0  0  0  0  0  0  0
   20.6014   19.0054   22.0273 C   0  0  0  0  0  0  0  0  0  0  0  0
   21.2826   18.6137   21.2599 H   0  0  0  0  0  0  0  0  0  0  0  0
   20.8746   18.5159   22.9725 H   0  0  0  0  0  0  0  0  0  0  0  0
   19.1485   18.6423   21.6511 C   0  0  0  0  0  0  0  0  0  0  0  0
   18.8727   19.1424   20.7124 H   0  0  0  0  0  0  0  0  0  0  0  0
   18.4590   19.0118   22.4230 H   0  0  0  0  0  0  0  0  0  0  0  0
   18.9682   17.1195   21.4933 C   0  0  0  0  0  0  0  0  0  0  0  0
   19.6211   16.7261   20.7031 H   0  0  0  0  0  0  0  0  0  0  0  0
   17.9309   16.8785   21.2270 H   0  0  0  0  0  0  0  0  0  0  0  0
   19.2083   16.5969   22.4286 H   0  0  0  0  0  0  0  0  0  0  0  0
  1  2  1  0  0  0  0
  1  3  2  0  0  0  0
  1  4  1  0  0  0  0
  4  5  1  0  0  0  0
  4  6  1  0  0  0  0
  4  7  1  0  0  0  0
  7  8  1  0  0  0  0
  7  9  1  0  0  0  0
  7 10  1  0  0  0  0
 10 11  1  0  0  0  0
 10 12  1  0  0  0  0
 10 13  1  0  0  0  0
 13 14  1  0  0  0  0
 13 15  1  0  0  0  0
 13 16  1  0  0  0  0
M  END
> <VConfSearch Rank>
956

> <Conf_Id>
20

> <Delta U+W>
-0.010

> <U+W>
-56.914

> <U>
8.277

> <W>
-65.191

> <W(PB)>
-67.081

> <W(SA)>
1.890

> <Valence>
6.513

> <Coulomb>
1.429

> <VdW>
0.335

> <VdW6>
-5.021

> <VdW12>
5.356

> <Bond>
0.092

> <Angle>
2.417

> <Pdih>
4.002

> <Idih>
0.001

> <Tether>
0.000

$$$$
VeraChem MOL file


 16 15  0  0  0  0  0  0  0  0999 V2000     
   17.8107   18.5934   22.4598 C   0  0  0  0  0  0  0  0  0  0  0  0
   16.8930   19.3901   22.4522 O   0  5  0  0  0  0  0  0  0  0  0  0
   17.9369   17.7244   23.2995 O   0  0  0  0  0  0  0  0  0  0  0  0
   18.8391   18.6694   21.3344 C   0  0  0  0  0  0  0  0  0  0  0  0
   18.2853   18.6940   20.3886 H   0  0  0  0  0  0  0  0  0  0  0  0
   19.4228   17.7419   21.3279 H   0  0  0  0  0  0  0  0  0  0  0  0
   19.7763   19.9057   21.4118 C   0  0  0  0  0  0  0  0  0  0  0  0
   20.4250   19.9219   20.5256 H   0  0  0  0  0  0  0  0  0  0  0  0
   19.1637   20.8165   21.3618 H   0  0  0  0  0  0  0  0  0  0  0  0
   20.6532   19.9625   22.6853 C   0  0  0  0  0  0  0  0  0  0  0  0
   20.0144   19.9820   23.5793 H   0  0  0  0  0  0  0  0  0  0  0  0
   21.2138   20.9074   22.6854 H   0  0  0  0  0  0  0  0  0  0  0  0
   21.6525   18.7907   22.7891 C   0  0  0  0  0  0  0  0  0  0  0  0
   21.1313   17.8332   22.9159 H   0  0  0  0  0  0  0  0  0  0  0  0
   22.3133   18.9257   23.6551 H   0  0  0  0  0  0  0  0  0  0  0  0
   22.2801   18.7272   21.8907 H   0  0  0  0  0  0  0  0  0  0  0  0
  1  2  1  0  0  0  0
  1  3  2  0  0  0  0
  1  4  1  0  0  0  0
  4  5  1  0  0  0  0
  4  6  1  0  0  0  0
  4  7  1  0  0  0  0
  7  8  1  0  0  0  0
  7  9  1  0  0  0  0
  7 10  1  0  0  0  0
 10 11  1  0  0  0  0
 10 12  1  0  0  0  0
 10 13  1  0  0  0  0
 13 14  1  0  0  0  0
 13 15  1  0  0  0  0
 13 16  1  0  0  0  0
M  END
> <VConfSearch Rank>
957

> <Conf_Id>
37

> <Delta U+W>
1.063

> <U+W>
-55.841

> <U>
9.719

> <W>
-65.560

> <W(PB)>
-67.414

> <W(SA)>
1.854

> <Valence>
7.002

> <Coulomb>
2.402

> <VdW>
0.314

> <VdW6>
-5.861

> <VdW12>
6.175

> <Bond>
0.134

> <Angle>
2.733

> <Pdih>
4.133

> <Idih>
0.002

> <Tether>
0.000

$$$$
VeraChem MOL file


 16 15  0  0  0  0  0  0  0  0999 V2000     
   18.4701   18.0665   21.3396 C   0  0  0  0  0  0  0  0  0  0  0  0
   18.4856   17.5711   20.2301 O   0  5  0  0  0  0  0  0  0  0  0  0
   18.0625   17.4871   22.3268 O   0  0  0  0  0  0  0  0  0  0  0  0
   18.9567   19.5052   21.4923 C   0  0  0  0  0  0  0  0  0  0  0  0
   18.6291   19.8860   22.4664 H   0  0  0  0  0  0  0  0  0  0  0  0
   18.4397   20.1057   20.7347 H   0  0  0  0  0  0  0  0  0  0  0  0
   20.4911   19.6787   21.3245 C   0  0  0  0  0  0  0  0  0  0  0  0
   20.7768   19.3381   20.3196 H   0  0  0  0  0  0  0  0  0  0  0  0
   20.7397   20.7476   21.3695 H   0  0  0  0  0  0  0  0  0  0  0  0
   21.3375   18.9149   22.3705 C   0  0  0  0  0  0  0  0  0  0  0  0
   22.4003   19.0329   22.1180 H   0  0  0  0  0  0  0  0  0  0  0  0
   21.1235   17.8387   22.3118 H   0  0  0  0  0  0  0  0  0  0  0  0
   21.1111   19.4093   23.8151 C   0  0  0  0  0  0  0  0  0  0  0  0
   21.2843   20.4905   23.8933 H   0  0  0  0  0  0  0  0  0  0  0  0
   21.7997   18.9051   24.5054 H   0  0  0  0  0  0  0  0  0  0  0  0
   20.0887   19.1969   24.1528 H   0  0  0  0  0  0  0  0  0  0  0  0
  1  2  1  0  0  0  0
  1  3  2  0  0  0  0
  1  4  1  0  0  0  0
  4  5  1  0  0  0  0
  4  6  1  0  0  0  0
  4  7  1  0  0  0  0
  7  8  1  0  0  0  0
  7  9  1  0  0  0  0
  7 10  1  0  0  0  0
 10 11  1  0  0  0  0
 10 12  1  0  0  0  0
 10 13  1  0  0  0  0
 13 14  1  0  0  0  0
 13 15  1  0  0  0  0
 13 16  1  0  0  0  0
M  END
> <VConfSearch Rank>
958

> <Conf_Id>
39

> <Delta U+W>
1.129

> <U+W>
-55.775

> <U>
9.718

> <W>
-65.493

> <W(PB)>
-67.361

> <W(SA)>
1.869

> <Valence>
7.002

> <Coulomb>
2.402

> <VdW>
0.314

> <VdW6>
-5.861

> <VdW12>
6.175

> <Bond>
0.134

> <Angle>
2.734

> <Pdih>
4.133

> <Idih>
0.002

> <Tether>
0.000

$$$$
VeraChem MOL file


 16 15  0  0  0  0  0  0  0  0999 V2000     
   18.3034   18.6410   21.1544 C   0  0  0  0  0  0  0  0  0  0  0  0
   18.5355   17.7178   20.3990 O   0  5  0  0  0  0  0  0  0  0  0  0
   17.7790   19.6788   20.8006 O   0  0  0  0  0  0  0  0  0  0  0  0
   18.6046   18.4503   22.6398 C   0  0  0  0  0  0  0  0  0  0  0  0
   18.9971   17.4383   22.7973 H   0  0  0  0  0  0  0  0  0  0  0  0
   17.6401   18.4964   23.1589 H   0  0  0  0  0  0  0  0  0  0  0  0
   19.5642   19.5024   23.2637 C   0  0  0  0  0  0  0  0  0  0  0  0
   19.2815   20.5108   22.9311 H   0  0  0  0  0  0  0  0  0  0  0  0
   19.4184   19.4908   24.3523 H   0  0  0  0  0  0  0  0  0  0  0  0
   21.0663   19.2530   22.9861 C   0  0  0  0  0  0  0  0  0  0  0  0
   21.3445   18.2432   23.3182 H   0  0  0  0  0  0  0  0  0  0  0  0
   21.6533   19.9515   23.5983 H   0  0  0  0  0  0  0  0  0  0  0  0
   21.4675   19.4423   21.5084 C   0  0  0  0  0  0  0  0  0  0  0  0
   21.0342   18.6599   20.8735 H   0  0  0  0  0  0  0  0  0  0  0  0
   22.5583   19.3908   21.3971 H   0  0  0  0  0  0  0  0  0  0  0  0
   21.1334   20.4176   21.1311 H   0  0  0  0  0  0  0  0  0  0  0  0
  1  2  1  0  0  0  0
  1  3  2  0  0  0  0
  1  4  1  0  0  0  0
  4  5  1  0  0  0  0
  4  6  1  0  0  0  0
  4  7  1  0  0  0  0
  7  8  1  0  0  0  0
  7  9  1  0  0  0  0
  7 10  1  0  0  0  0
 10 11  1  0  0  0  0
 10 12  1  0  0  0  0
 10 13  1  0  0  0  0
 13 14  1  0  0  0  0
 13 15  1  0  0  0  0
 13 16  1  0  0  0  0
M  END
> <VConfSearch Rank>
959

> <Conf_Id>
47

> <Delta U+W>
2.301

> <U+W>
-54.603

> <U>
11.258

> <W>
-65.861

> <W(PB)>
-67.702

> <W(SA)>
1.841

> <Valence>
8.169

> <Coulomb>
2.735

> <VdW>
0.355

> <VdW6>
-6.245

> <VdW12>
6.600

> <Bond>
0.149

> <Angle>
3.168

> <Pdih>
4.840

> <Idih>
0.011

> <Tether>
0.000

$$$$
VeraChem MOL file


 16 15  0  0  0  0  0  0  0  0999 V2000     
   18.1980   18.3624   23.0414 C   0  0  0  0  0  0  0  0  0  0  0  0
   17.2843   18.5735   22.2684 O   0  5  0  0  0  0  0  0  0  0  0  0
   18.1285   18.5820   24.2346 O   0  0  0  0  0  0  0  0  0  0  0  0
   19.4666   17.7039   22.5021 C   0  0  0  0  0  0  0  0  0  0  0  0
   19.1646   16.7245   22.1130 H   0  0  0  0  0  0  0  0  0  0  0  0
   20.1515   17.5118   23.3370 H   0  0  0  0  0  0  0  0  0  0  0  0
   20.1969   18.4905   21.3775 C   0  0  0  0  0  0  0  0  0  0  0  0
   20.8431   17.7863   20.8361 H   0  0  0  0  0  0  0  0  0  0  0  0
   19.4670   18.8578   20.6427 H   0  0  0  0  0  0  0  0  0  0  0  0
   21.0835   19.6576   21.8750 C   0  0  0  0  0  0  0  0  0  0  0  0
   21.6694   20.0350   21.0256 H   0  0  0  0  0  0  0  0  0  0  0  0
   21.8105   19.2865   22.6105 H   0  0  0  0  0  0  0  0  0  0  0  0
   20.2868   20.8323   22.4796 C   0  0  0  0  0  0  0  0  0  0  0  0
   20.9512   21.6817   22.6842 H   0  0  0  0  0  0  0  0  0  0  0  0
   19.8137   20.5482   23.4275 H   0  0  0  0  0  0  0  0  0  0  0  0
   19.5027   21.1728   21.7907 H   0  0  0  0  0  0  0  0  0  0  0  0
  1  2  1  0  0  0  0
  1  3  2  0  0  0  0
  1  4  1  0  0  0  0
  4  5  1  0  0  0  0
  4  6  1  0  0  0  0
  4  7  1  0  0  0  0
  7  8  1  0  0  0  0
  7  9  1  0  0  0  0
  7 10  1  0  0  0  0
 10 11  1  0  0  0  0
 10 12  1  0  0  0  0
 10 13  1  0  0  0  0
 13 14  1  0  0  0  0
 13 15  1  0  0  0  0
 13 16  1  0  0  0  0
M  END
> <VConfSearch Rank>
960

> <Conf_Id>
45

> <Delta U+W>
2.303

> <U+W>
-54.601

> <U>
11.258

> <W>
-65.860

> <W(PB)>
-67.709

> <W(SA)>
1.849

> <Valence>
8.169

> <Coulomb>
2.735

> <VdW>
0.355

> <VdW6>
-6.245

> <VdW12>
6.600

> <Bond>
0.149

> <Angle>
3.168

> <Pdih>
4.840

> <Idih>
0.011

> <Tether>
0.000

$$$$
VeraChem MOL file


 16 15  0  0  0  0  0  0  0  0999 V2000     
   17.2953   19.3989   21.4466 C   0  0  0  0  0  0  0  0  0  0  0  0
   17.2461   20.5490   21.8374 O   0  5  0  0  0  0  0  0  0  0  0  0
   16.3248   18.7991   21.0297 O   0  0  0  0  0  0  0  0  0  0  0  0
   18.6260   18.6449   21.4683 C   0  0  0  0  0  0  0  0  0  0  0  0
   18.8308   18.3129   20.4436 H   0  0  0  0  0  0  0  0  0  0  0  0
   18.4813   17.7430   22.0747 H   0  0  0  0  0  0  0  0  0  0  0  0
   19.8368   19.4509   22.0093 C   0  0  0  0  0  0  0  0  0  0  0  0
   19.9735   20.3559   21.4013 H   0  0  0  0  0  0  0  0  0  0  0  0
   19.6236   19.7854   23.0341 H   0  0  0  0  0  0  0  0  0  0  0  0
   21.1342   18.6154   21.9954 C   0  0  0  0  0  0  0  0  0  0  0  0
   21.3495   18.2817   20.9708 H   0  0  0  0  0  0  0  0  0  0  0  0
   20.9994   17.7109   22.6046 H   0  0  0  0  0  0  0  0  0  0  0  0
   22.3330   19.4212   22.5338 C   0  0  0  0  0  0  0  0  0  0  0  0
   22.5103   20.3164   21.9234 H   0  0  0  0  0  0  0  0  0  0  0  0
   23.2467   18.8130   22.5171 H   0  0  0  0  0  0  0  0  0  0  0  0
   22.1577   19.7414   23.5693 H   0  0  0  0  0  0  0  0  0  0  0  0
  1  2  1  0  0  0  0
  1  3  2  0  0  0  0
  1  4  1  0  0  0  0
  4  5  1  0  0  0  0
  4  6  1  0  0  0  0
  4  7  1  0  0  0  0
  7  8  1  0  0  0  0
  7  9  1  0  0  0  0
  7 10  1  0  0  0  0
 10 11  1  0  0  0  0
 10 12  1  0  0  0  0
 10 13  1  0  0  0  0
 13 14  1  0  0  0  0
 13 15  1  0  0  0  0
 13 16  1  0  0  0  0
M  END
> <VConfSearch Rank>
961

> <Conf_Id>
0

> <Delta U+W>
0.000

> <U+W>
-56.904

> <U>
7.329

> <W>
-64.233

> <W(PB)>
-66.148

> <W(SA)>
1.915

> <Valence>
6.755

> <Coulomb>
-0.421

> <VdW>
0.995

> <VdW6>
-4.495

> <VdW12>
5.490

> <Bond>
0.106

> <Angle>
2.715

> <Pdih>
3.934

> <Idih>
0.000

> <Tether>
0.000

$$$$
VeraChem MOL file


 16 15  0  0  0  0  0  0  0  0999 V2000     
   19.4627   17.7182   19.6693 C   0  0  0  0  0  0  0  0  0  0  0  0
   18.6532   16.8241   19.8143 O   0  5  0  0  0  0  0  0  0  0  0  0
   19.5940   18.3449   18.6369 O   0  0  0  0  0  0  0  0  0  0  0  0
   20.3500   18.0861   20.8533 C   0  0  0  0  0  0  0  0  0  0  0  0
   21.3158   18.4286   20.4624 H   0  0  0  0  0  0  0  0  0  0  0  0
   20.5401   17.1748   21.4332 H   0  0  0  0  0  0  0  0  0  0  0  0
   19.7246   19.1749   21.7598 C   0  0  0  0  0  0  0  0  0  0  0  0
   19.5289   20.0762   21.1624 H   0  0  0  0  0  0  0  0  0  0  0  0
   18.7531   18.8224   22.1332 H   0  0  0  0  0  0  0  0  0  0  0  0
   20.6418   19.5283   22.9491 C   0  0  0  0  0  0  0  0  0  0  0  0
   21.6132   19.8815   22.5761 H   0  0  0  0  0  0  0  0  0  0  0  0
   20.8373   18.6273   23.5471 H   0  0  0  0  0  0  0  0  0  0  0  0
   20.0131   20.6123   23.8467 C   0  0  0  0  0  0  0  0  0  0  0  0
   19.0538   20.2729   24.2592 H   0  0  0  0  0  0  0  0  0  0  0  0
   19.8355   21.5363   23.2810 H   0  0  0  0  0  0  0  0  0  0  0  0
   20.6776   20.8518   24.6871 H   0  0  0  0  0  0  0  0  0  0  0  0
  1  2  1  0  0  0  0
  1  3  2  0  0  0  0
  1  4  1  0  0  0  0
  4  5  1  0  0  0  0
  4  6  1  0  0  0  0
  4  7  1  0  0  0  0
  7  8  1  0  0  0  0
  7  9  1  0  0  0  0
  7 10  1  0  0  0  0
 10 11  1  0  0  0  0
 10 12  1  0  0  0  0
 10 13  1  0  0  0  0
 13 14  1  0  0  0  0
 13 15  1  0  0  0  0
 13 16  1  0  0  0  0
M  END
> <VConfSearch Rank>
962

> <Conf_Id>
22

> <Delta U+W>
-1.185

> <U+W>
-58.089

> <U>
6.298

> <W>
-64.387

> <W(PB)>
-66.329

> <W(SA)>
1.942

> <Valence>
6.246

> <Coulomb>
-0.408

> <VdW>
0.460

> <VdW6>
-4.207

> <VdW12>
4.667

> <Bond>
0.072

> <Angle>
2.246

> <Pdih>
3.928

> <Idih>
0.001

> <Tether>
0.000

$$$$
VeraChem MOL file


 16 15  0  0  0  0  0  0  0  0999 V2000     
   20.8516   21.5755   21.8998 C   0  0  0  0  0  0  0  0  0  0  0  0
   21.7578   21.9103   21.1632 O   0  5  0  0  0  0  0  0  0  0  0  0
   20.5272   22.1982   22.8912 O   0  0  0  0  0  0  0  0  0  0  0  0
   20.0937   20.2935   21.5731 C   0  0  0  0  0  0  0  0  0  0  0  0
   20.0748   20.1776   20.4828 H   0  0  0  0  0  0  0  0  0  0  0  0
   19.0572   20.4242   21.9042 H   0  0  0  0  0  0  0  0  0  0  0  0
   20.7224   19.0388   22.2329 C   0  0  0  0  0  0  0  0  0  0  0  0
   21.7830   18.9852   21.9505 H   0  0  0  0  0  0  0  0  0  0  0  0
   20.6970   19.1478   23.3259 H   0  0  0  0  0  0  0  0  0  0  0  0
   20.0321   17.7172   21.8237 C   0  0  0  0  0  0  0  0  0  0  0  0
   20.6018   16.8765   22.2433 H   0  0  0  0  0  0  0  0  0  0  0  0
   20.0678   17.6023   20.7315 H   0  0  0  0  0  0  0  0  0  0  0  0
   18.5699   17.6188   22.3086 C   0  0  0  0  0  0  0  0  0  0  0  0
   17.9357   18.3725   21.8254 H   0  0  0  0  0  0  0  0  0  0  0  0
   18.5061   17.7596   23.3955 H   0  0  0  0  0  0  0  0  0  0  0  0
   18.1525   16.6317   22.0708 H   0  0  0  0  0  0  0  0  0  0  0  0
  1  2  1  0  0  0  0
  1  3  2  0  0  0  0
  1  4  1  0  0  0  0
  4  5  1  0  0  0  0
  4  6  1  0  0  0  0
  4  7  1  0  0  0  0
  7  8  1  0  0  0  0
  7  9  1  0  0  0  0
  7 10  1  0  0  0  0
 10 11  1  0  0  0  0
 10 12  1  0  0  0  0
 10 13  1  0  0  0  0
 13 14  1  0  0  0  0
 13 15  1  0  0  0  0
 13 16  1  0  0  0  0
M  END
> <VConfSearch Rank>
963

> <Conf_Id>
36

> <Delta U+W>
-0.427

> <U+W>
-57.331

> <U>
7.263

> <W>
-64.594

> <W(PB)>
-66.513

> <W(SA)>
1.920

> <Valence>
6.734

> <Coulomb>
-0.068

> <VdW>
0.598

> <VdW6>
-4.819

> <VdW12>
5.417

> <Bond>
0.107

> <Angle>
2.469

> <Pdih>
4.157

> <Idih>
0.001

> <Tether>
0.000

$$$$
VeraChem MOL file


 16 15  0  0  0  0  0  0  0  0999 V2000     
   20.7259   20.3642   24.1399 C   0  0  0  0  0  0  0  0  0  0  0  0
   21.2741   21.4159   23.8766 O   0  5  0  0  0  0  0  0  0  0  0  0
   20.8464   19.7924   25.2050 O   0  0  0  0  0  0  0  0  0  0  0  0
   19.8555   19.7163   23.0688 C   0  0  0  0  0  0  0  0  0  0  0  0
   19.3941   20.5190   22.4822 H   0  0  0  0  0  0  0  0  0  0  0  0
   19.0456   19.1734   23.5706 H   0  0  0  0  0  0  0  0  0  0  0  0
   20.6514   18.7561   22.1471 C   0  0  0  0  0  0  0  0  0  0  0  0
   21.4322   19.3195   21.6177 H   0  0  0  0  0  0  0  0  0  0  0  0
   21.1713   18.0168   22.7720 H   0  0  0  0  0  0  0  0  0  0  0  0
   19.7644   18.0073   21.1259 C   0  0  0  0  0  0  0  0  0  0  0  0
   18.9907   17.4345   21.6557 H   0  0  0  0  0  0  0  0  0  0  0  0
   20.3834   17.2732   20.5918 H   0  0  0  0  0  0  0  0  0  0  0  0
   19.1012   18.9441   20.0936 C   0  0  0  0  0  0  0  0  0  0  0  0
   18.3843   19.6236   20.5712 H   0  0  0  0  0  0  0  0  0  0  0  0
   18.5549   18.3604   19.3413 H   0  0  0  0  0  0  0  0  0  0  0  0
   19.8540   19.5486   19.5710 H   0  0  0  0  0  0  0  0  0  0  0  0
  1  2  1  0  0  0  0
  1  3  2  0  0  0  0
  1  4  1  0  0  0  0
  4  5  1  0  0  0  0
  4  6  1  0  0  0  0
  4  7  1  0  0  0  0
  7  8  1  0  0  0  0
  7  9  1  0  0  0  0
  7 10  1  0  0  0  0
 10 11  1  0  0  0  0
 10 12  1  0  0  0  0
 10 13  1  0  0  0  0
 13 14  1  0  0  0  0
 13 15  1  0  0  0  0
 13 16  1  0  0  0  0
M  END
> <VConfSearch Rank>
964

> <Conf_Id>
17

> <Delta U+W>
-0.432

> <U+W>
-57.336

> <U>
7.263

> <W>
-64.599

> <W(PB)>
-66.503

> <W(SA)>
1.904

> <Valence>
6.734

> <Coulomb>
-0.068

> <VdW>
0.598

> <VdW6>
-4.819

> <VdW12>
5.417

> <Bond>
0.107

> <Angle>
2.469

> <Pdih>
4.157

> <Idih>
0.001

> <Tether>
0.000

$$$$
VeraChem MOL file


 16 15  0  0  0  0  0  0  0  0999 V2000     
   22.4279   19.6237   21.7506 C   0  0  0  0  0  0  0  0  0  0  0  0
   23.1533   18.6555   21.8632 O   0  5  0  0  0  0  0  0  0  0  0  0
   22.4796   20.3956   20.8137 O   0  0  0  0  0  0  0  0  0  0  0  0
   21.4144   19.8965   22.8587 C   0  0  0  0  0  0  0  0  0  0  0  0
   21.1002   20.9455   22.7960 H   0  0  0  0  0  0  0  0  0  0  0  0
   21.9353   19.7784   23.8163 H   0  0  0  0  0  0  0  0  0  0  0  0
   20.1754   18.9643   22.8256 C   0  0  0  0  0  0  0  0  0  0  0  0
   20.5066   17.9171   22.8603 H   0  0  0  0  0  0  0  0  0  0  0  0
   19.5758   19.1363   23.7297 H   0  0  0  0  0  0  0  0  0  0  0  0
   19.2934   19.1929   21.5791 C   0  0  0  0  0  0  0  0  0  0  0  0
   19.8778   19.0035   20.6678 H   0  0  0  0  0  0  0  0  0  0  0  0
   18.9732   20.2432   21.5391 H   0  0  0  0  0  0  0  0  0  0  0  0
   18.0524   18.2784   21.5880 C   0  0  0  0  0  0  0  0  0  0  0  0
   18.3449   17.2201   21.5967 H   0  0  0  0  0  0  0  0  0  0  0  0
   17.4373   18.4527   20.6957 H   0  0  0  0  0  0  0  0  0  0  0  0
   17.4296   18.4696   22.4717 H   0  0  0  0  0  0  0  0  0  0  0  0
  1  2  1  0  0  0  0
  1  3  2  0  0  0  0
  1  4  1  0  0  0  0
  4  5  1  0  0  0  0
  4  6  1  0  0  0  0
  4  7  1  0  0  0  0
  7  8  1  0  0  0  0
  7  9  1  0  0  0  0
  7 10  1  0  0  0  0
 10 11  1  0  0  0  0
 10 12  1  0  0  0  0
 10 13  1  0  0  0  0
 13 14  1  0  0  0  0
 13 15  1  0  0  0  0
 13 16  1  0  0  0  0
M  END
> <VConfSearch Rank>
965

> <Conf_Id>
19

> <Delta U+W>
0.048

> <U+W>
-56.856

> <U>
8.276

> <W>
-65.132

> <W(PB)>
-67.031

> <W(SA)>
1.899

> <Valence>
6.513

> <Coulomb>
1.428

> <VdW>
0.335

> <VdW6>
-5.021

> <VdW12>
5.356

> <Bond>
0.092

> <Angle>
2.417

> <Pdih>
4.003

> <Idih>
0.001

> <Tether>
0.000

$$$$
VeraChem MOL file


 16 15  0  0  0  0  0  0  0  0999 V2000     
   21.9403   18.1660   21.5358 C   0  0  0  0  0  0  0  0  0  0  0  0
   21.8720   16.9661   21.3578 O   0  5  0  0  0  0  0  0  0  0  0  0
   22.7743   18.6928   22.2451 O   0  0  0  0  0  0  0  0  0  0  0  0
   20.9383   19.0596   20.8098 C   0  0  0  0  0  0  0  0  0  0  0  0
   20.8865   18.7170   19.7696 H   0  0  0  0  0  0  0  0  0  0  0  0
   21.3329   20.0827   20.7874 H   0  0  0  0  0  0  0  0  0  0  0  0
   19.5165   19.0482   21.4293 C   0  0  0  0  0  0  0  0  0  0  0  0
   18.8355   19.6015   20.7685 H   0  0  0  0  0  0  0  0  0  0  0  0
   19.1460   18.0145   21.4715 H   0  0  0  0  0  0  0  0  0  0  0  0
   19.4782   19.6755   22.8397 C   0  0  0  0  0  0  0  0  0  0  0  0
   19.8606   20.7047   22.7980 H   0  0  0  0  0  0  0  0  0  0  0  0
   20.1410   19.1169   23.5153 H   0  0  0  0  0  0  0  0  0  0  0  0
   18.0492   19.6821   23.4178 C   0  0  0  0  0  0  0  0  0  0  0  0
   17.3699   20.2632   22.7804 H   0  0  0  0  0  0  0  0  0  0  0  0
   18.0397   20.1299   24.4200 H   0  0  0  0  0  0  0  0  0  0  0  0
   17.6540   18.6609   23.4991 H   0  0  0  0  0  0  0  0  0  0  0  0
  1  2  1  0  0  0  0
  1  3  2  0  0  0  0
  1  4  1  0  0  0  0
  4  5  1  0  0  0  0
  4  6  1  0  0  0  0
  4  7  1  0  0  0  0
  7  8  1  0  0  0  0
  7  9  1  0  0  0  0
  7 10  1  0  0  0  0
 10 11  1  0  0  0  0
 10 12  1  0  0  0  0
 10 13  1  0  0  0  0
 13 14  1  0  0  0  0
 13 15  1  0  0  0  0
 13 16  1  0  0  0  0
M  END
> <VConfSearch Rank>
966

> <Conf_Id>
20

> <Delta U+W>
-0.010

> <U+W>
-56.914

> <U>
8.277

> <W>
-65.191

> <W(PB)>
-67.081

> <W(SA)>
1.890

> <Valence>
6.513

> <Coulomb>
1.429

> <VdW>
0.335

> <VdW6>
-5.021

> <VdW12>
5.356

> <Bond>
0.092

> <Angle>
2.417

> <Pdih>
4.002

> <Idih>
0.001

> <Tether>
0.000

$$$$
VeraChem MOL file


 16 15  0  0  0  0  0  0  0  0999 V2000     
   20.8048   17.9100   20.7013 C   0  0  0  0  0  0  0  0  0  0  0  0
   20.4863   16.7528   20.5107 O   0  5  0  0  0  0  0  0  0  0  0  0
   21.9579   18.2800   20.8010 O   0  0  0  0  0  0  0  0  0  0  0  0
   19.6973   18.9568   20.7855 C   0  0  0  0  0  0  0  0  0  0  0  0
   19.0498   18.8167   19.9120 H   0  0  0  0  0  0  0  0  0  0  0  0
   20.1450   19.9520   20.6830 H   0  0  0  0  0  0  0  0  0  0  0  0
   18.8397   18.8729   22.0778 C   0  0  0  0  0  0  0  0  0  0  0  0
   18.0233   19.6051   22.0165 H   0  0  0  0  0  0  0  0  0  0  0  0
   18.3634   17.8836   22.1215 H   0  0  0  0  0  0  0  0  0  0  0  0
   19.6331   19.1037   23.3859 C   0  0  0  0  0  0  0  0  0  0  0  0
   20.4322   18.3547   23.4764 H   0  0  0  0  0  0  0  0  0  0  0  0
   18.9603   18.9424   24.2394 H   0  0  0  0  0  0  0  0  0  0  0  0
   20.2378   20.5201   23.4892 C   0  0  0  0  0  0  0  0  0  0  0  0
   21.0095   20.6801   22.7254 H   0  0  0  0  0  0  0  0  0  0  0  0
   20.7074   20.6660   24.4706 H   0  0  0  0  0  0  0  0  0  0  0  0
   19.4639   21.2889   23.3663 H   0  0  0  0  0  0  0  0  0  0  0  0
  1  2  1  0  0  0  0
  1  3  2  0  0  0  0
  1  4  1  0  0  0  0
  4  5  1  0  0  0  0
  4  6  1  0  0  0  0
  4  7  1  0  0  0  0
  7  8  1  0  0  0  0
  7  9  1  0  0  0  0
  7 10  1  0  0  0  0
 10 11  1  0  0  0  0
 10 12  1  0  0  0  0
 10 13  1  0  0  0  0
 13 14  1  0  0  0  0
 13 15  1  0  0  0  0
 13 16  1  0  0  0  0
M  END
> <VConfSearch Rank>
967

> <Conf_Id>
37

> <Delta U+W>
1.063

> <U+W>
-55.841

> <U>
9.719

> <W>
-65.560

> <W(PB)>
-67.414

> <W(SA)>
1.854

> <Valence>
7.002

> <Coulomb>
2.402

> <VdW>
0.314

> <VdW6>
-5.861

> <VdW12>
6.175

> <Bond>
0.134

> <Angle>
2.733

> <Pdih>
4.133

> <Idih>
0.002

> <Tether>
0.000

$$$$
VeraChem MOL file


 16 15  0  0  0  0  0  0  0  0999 V2000     
   18.9908   17.4721   22.9047 C   0  0  0  0  0  0  0  0  0  0  0  0
   18.2624   17.5420   23.8749 O   0  5  0  0  0  0  0  0  0  0  0  0
   18.6638   16.9505   21.8573 O   0  0  0  0  0  0  0  0  0  0  0  0
   20.4028   18.0397   23.0226 C   0  0  0  0  0  0  0  0  0  0  0  0
   21.0045   17.6625   22.1878 H   0  0  0  0  0  0  0  0  0  0  0  0
   20.8451   17.6250   23.9360 H   0  0  0  0  0  0  0  0  0  0  0  0
   20.4618   19.5907   23.0831 C   0  0  0  0  0  0  0  0  0  0  0  0
   19.8944   19.9313   23.9602 H   0  0  0  0  0  0  0  0  0  0  0  0
   21.5011   19.9054   23.2475 H   0  0  0  0  0  0  0  0  0  0  0  0
   19.9085   20.2995   21.8239 C   0  0  0  0  0  0  0  0  0  0  0  0
   19.9171   21.3844   21.9978 H   0  0  0  0  0  0  0  0  0  0  0  0
   18.8573   20.0197   21.6681 H   0  0  0  0  0  0  0  0  0  0  0  0
   20.7199   19.9935   20.5471 C   0  0  0  0  0  0  0  0  0  0  0  0
   21.7822   20.2314   20.6887 H   0  0  0  0  0  0  0  0  0  0  0  0
   20.3485   20.5905   19.7043 H   0  0  0  0  0  0  0  0  0  0  0  0
   20.6363   18.9358   20.2663 H   0  0  0  0  0  0  0  0  0  0  0  0
  1  2  1  0  0  0  0
  1  3  2  0  0  0  0
  1  4  1  0  0  0  0
  4  5  1  0  0  0  0
  4  6  1  0  0  0  0
  4  7  1  0  0  0  0
  7  8  1  0  0  0  0
  7  9  1  0  0  0  0
  7 10  1  0  0  0  0
 10 11  1  0  0  0  0
 10 12  1  0  0  0  0
 10 13  1  0  0  0  0
 13 14  1  0  0  0  0
 13 15  1  0  0  0  0
 13 16  1  0  0  0  0
M  END
> <VConfSearch Rank>
968

> <Conf_Id>
39

> <Delta U+W>
1.129

> <U+W>
-55.775

> <U>
9.718

> <W>
-65.493

> <W(PB)>
-67.361

> <W(SA)>
1.869

> <Valence>
7.002

> <Coulomb>
2.402

> <VdW>
0.314

> <VdW6>
-5.861

> <VdW12>
6.175

> <Bond>
0.134

> <Angle>
2.734

> <Pdih>
4.133

> <Idih>
0.002

> <Tether>
0.000

$$$$
VeraChem MOL file


 16 15  0  0  0  0  0  0  0  0999 V2000     
   20.6047   17.2991   22.8266 C   0  0  0  0  0  0  0  0  0  0  0  0
   20.2629   16.4283   22.0510 O   0  5  0  0  0  0  0  0  0  0  0  0
   20.4983   17.1992   24.0332 O   0  0  0  0  0  0  0  0  0  0  0  0
   21.2849   18.5437   22.2592 C   0  0  0  0  0  0  0  0  0  0  0  0
   21.3717   18.4381   21.1709 H   0  0  0  0  0  0  0  0  0  0  0  0
   22.3067   18.5452   22.6561 H   0  0  0  0  0  0  0  0  0  0  0  0
   20.6029   19.8945   22.6158 C   0  0  0  0  0  0  0  0  0  0  0  0
   20.3327   19.9079   23.6808 H   0  0  0  0  0  0  0  0  0  0  0  0
   21.3439   20.6941   22.4815 H   0  0  0  0  0  0  0  0  0  0  0  0
   19.3688   20.2447   21.7499 C   0  0  0  0  0  0  0  0  0  0  0  0
   19.6426   20.2283   20.6860 H   0  0  0  0  0  0  0  0  0  0  0  0
   19.0682   21.2773   21.9751 H   0  0  0  0  0  0  0  0  0  0  0  0
   18.1569   19.3201   21.9882 C   0  0  0  0  0  0  0  0  0  0  0  0
   18.3515   18.3044   21.6229 H   0  0  0  0  0  0  0  0  0  0  0  0
   17.2747   19.6986   21.4560 H   0  0  0  0  0  0  0  0  0  0  0  0
   17.9098   19.2614   23.0563 H   0  0  0  0  0  0  0  0  0  0  0  0
  1  2  1  0  0  0  0
  1  3  2  0  0  0  0
  1  4  1  0  0  0  0
  4  5  1  0  0  0  0
  4  6  1  0  0  0  0
  4  7  1  0  0  0  0
  7  8  1  0  0  0  0
  7  9  1  0  0  0  0
  7 10  1  0  0  0  0
 10 11  1  0  0  0  0
 10 12  1  0  0  0  0
 10 13  1  0  0  0  0
 13 14  1  0  0  0  0
 13 15  1  0  0  0  0
 13 16  1  0  0  0  0
M  END
> <VConfSearch Rank>
969

> <Conf_Id>
47

> <Delta U+W>
2.301

> <U+W>
-54.603

> <U>
11.258

> <W>
-65.861

> <W(PB)>
-67.702

> <W(SA)>
1.841

> <Valence>
8.169

> <Coulomb>
2.735

> <VdW>
0.355

> <VdW6>
-6.245

> <VdW12>
6.600

> <Bond>
0.149

> <Angle>
3.168

> <Pdih>
4.840

> <Idih>
0.011

> <Tether>
0.000

$$$$
VeraChem MOL file


 16 15  0  0  0  0  0  0  0  0999 V2000     
   21.5849   18.6969   21.3228 C   0  0  0  0  0  0  0  0  0  0  0  0
   21.9196   19.6709   20.6774 O   0  5  0  0  0  0  0  0  0  0  0  0
   21.5757   17.5679   20.8731 O   0  0  0  0  0  0  0  0  0  0  0  0
   21.2446   18.8876   22.7997 C   0  0  0  0  0  0  0  0  0  0  0  0
   22.1525   19.2727   23.2786 H   0  0  0  0  0  0  0  0  0  0  0  0
   21.0450   17.9073   23.2494 H   0  0  0  0  0  0  0  0  0  0  0  0
   20.0687   19.8621   23.0902 C   0  0  0  0  0  0  0  0  0  0  0  0
   20.1540   20.1949   24.1335 H   0  0  0  0  0  0  0  0  0  0  0  0
   20.1711   20.7666   22.4746 H   0  0  0  0  0  0  0  0  0  0  0  0
   18.6596   19.2495   22.9041 C   0  0  0  0  0  0  0  0  0  0  0  0
   17.9171   19.9638   23.2859 H   0  0  0  0  0  0  0  0  0  0  0  0
   18.5619   18.3446   23.5197 H   0  0  0  0  0  0  0  0  0  0  0  0
   18.3114   18.9197   21.4378 C   0  0  0  0  0  0  0  0  0  0  0  0
   17.2584   18.6223   21.3507 H   0  0  0  0  0  0  0  0  0  0  0  0
   18.9206   18.0897   21.0595 H   0  0  0  0  0  0  0  0  0  0  0  0
   18.4730   19.7904   20.7888 H   0  0  0  0  0  0  0  0  0  0  0  0
  1  2  1  0  0  0  0
  1  3  2  0  0  0  0
  1  4  1  0  0  0  0
  4  5  1  0  0  0  0
  4  6  1  0  0  0  0
  4  7  1  0  0  0  0
  7  8  1  0  0  0  0
  7  9  1  0  0  0  0
  7 10  1  0  0  0  0
 10 11  1  0  0  0  0
 10 12  1  0  0  0  0
 10 13  1  0  0  0  0
 13 14  1  0  0  0  0
 13 15  1  0  0  0  0
 13 16  1  0  0  0  0
M  END
> <VConfSearch Rank>
970

> <Conf_Id>
45

> <Delta U+W>
2.303

> <U+W>
-54.601

> <U>
11.258

> <W>
-65.860

> <W(PB)>
-67.709

> <W(SA)>
1.849

> <Valence>
8.169

> <Coulomb>
2.735

> <VdW>
0.355

> <VdW6>
-6.245

> <VdW12>
6.600

> <Bond>
0.149

> <Angle>
3.168

> <Pdih>
4.840

> <Idih>
0.011

> <Tether>
0.000

$$$$
VeraChem MOL file


 16 15  0  0  0  0  0  0  0  0999 V2000     
   18.5208   19.8448   24.1443 C   0  0  0  0  0  0  0  0  0  0  0  0
   19.3265   19.4086   24.9431 O   0  5  0  0  0  0  0  0  0  0  0  0
   17.4815   20.3788   24.4763 O   0  0  0  0  0  0  0  0  0  0  0  0
   18.7992   19.7311   22.6445 C   0  0  0  0  0  0  0  0  0  0  0  0
   18.7765   20.7457   22.2295 H   0  0  0  0  0  0  0  0  0  0  0  0
   17.9619   19.1827   22.1968 H   0  0  0  0  0  0  0  0  0  0  0  0
   20.1376   19.0414   22.2683 C   0  0  0  0  0  0  0  0  0  0  0  0
   20.9722   19.5921   22.7240 H   0  0  0  0  0  0  0  0  0  0  0  0
   20.1568   18.0274   22.6913 H   0  0  0  0  0  0  0  0  0  0  0  0
   20.3361   18.9700   20.7396 C   0  0  0  0  0  0  0  0  0  0  0  0
   20.3188   19.9836   20.3156 H   0  0  0  0  0  0  0  0  0  0  0  0
   19.5029   18.4180   20.2828 H   0  0  0  0  0  0  0  0  0  0  0  0
   21.6668   18.2841   20.3724 C   0  0  0  0  0  0  0  0  0  0  0  0
   22.5204   18.8336   20.7907 H   0  0  0  0  0  0  0  0  0  0  0  0
   21.7923   18.2416   19.2826 H   0  0  0  0  0  0  0  0  0  0  0  0
   21.6985   17.2565   20.7577 H   0  0  0  0  0  0  0  0  0  0  0  0
  1  2  1  0  0  0  0
  1  3  2  0  0  0  0
  1  4  1  0  0  0  0
  4  5  1  0  0  0  0
  4  6  1  0  0  0  0
  4  7  1  0  0  0  0
  7  8  1  0  0  0  0
  7  9  1  0  0  0  0
  7 10  1  0  0  0  0
 10 11  1  0  0  0  0
 10 12  1  0  0  0  0
 10 13  1  0  0  0  0
 13 14  1  0  0  0  0
 13 15  1  0  0  0  0
 13 16  1  0  0  0  0
M  END
> <VConfSearch Rank>
971

> <Conf_Id>
0

> <Delta U+W>
0.000

> <U+W>
-56.904

> <U>
7.329

> <W>
-64.233

> <W(PB)>
-66.148

> <W(SA)>
1.915

> <Valence>
6.755

> <Coulomb>
-0.421

> <VdW>
0.995

> <VdW6>
-4.495

> <VdW12>
5.490

> <Bond>
0.106

> <Angle>
2.715

> <Pdih>
3.934

> <Idih>
0.000

> <Tether>
0.000

$$$$
VeraChem MOL file


 16 15  0  0  0  0  0  0  0  0999 V2000     
   17.7078   19.7259   20.6469 C   0  0  0  0  0  0  0  0  0  0  0  0
   17.6741   19.3940   19.4788 O   0  5  0  0  0  0  0  0  0  0  0  0
   16.7260   19.7728   21.3608 O   0  0  0  0  0  0  0  0  0  0  0  0
   19.0588   20.0859   21.2551 C   0  0  0  0  0  0  0  0  0  0  0  0
   18.8943   20.8525   22.0220 H   0  0  0  0  0  0  0  0  0  0  0  0
   19.6760   20.5400   20.4704 H   0  0  0  0  0  0  0  0  0  0  0  0
   19.7882   18.8652   21.8683 C   0  0  0  0  0  0  0  0  0  0  0  0
   19.1528   18.4143   22.6433 H   0  0  0  0  0  0  0  0  0  0  0  0
   19.9345   18.1018   21.0916 H   0  0  0  0  0  0  0  0  0  0  0  0
   21.1512   19.2566   22.4762 C   0  0  0  0  0  0  0  0  0  0  0  0
   21.0053   20.0196   23.2535 H   0  0  0  0  0  0  0  0  0  0  0  0
   21.7872   19.7070   21.7014 H   0  0  0  0  0  0  0  0  0  0  0  0
   21.8713   18.0370   23.0846 C   0  0  0  0  0  0  0  0  0  0  0  0
   22.0583   17.2702   22.3213 H   0  0  0  0  0  0  0  0  0  0  0  0
   21.2707   17.5851   23.8848 H   0  0  0  0  0  0  0  0  0  0  0  0
   22.8383   18.3325   23.5122 H   0  0  0  0  0  0  0  0  0  0  0  0
  1  2  1  0  0  0  0
  1  3  2  0  0  0  0
  1  4  1  0  0  0  0
  4  5  1  0  0  0  0
  4  6  1  0  0  0  0
  4  7  1  0  0  0  0
  7  8  1  0  0  0  0
  7  9  1  0  0  0  0
  7 10  1  0  0  0  0
 10 11  1  0  0  0  0
 10 12  1  0  0  0  0
 10 13  1  0  0  0  0
 13 14  1  0  0  0  0
 13 15  1  0  0  0  0
 13 16  1  0  0  0  0
M  END
> <VConfSearch Rank>
972

> <Conf_Id>
22

> <Delta U+W>
-1.185

> <U+W>
-58.089

> <U>
6.298

> <W>
-64.387

> <W(PB)>
-66.329

> <W(SA)>
1.942

> <Valence>
6.246

> <Coulomb>
-0.408

> <VdW>
0.460

> <VdW6>
-4.207

> <VdW12>
4.667

> <Bond>
0.072

> <Angle>
2.246

> <Pdih>
3.928

> <Idih>
0.001

> <Tether>
0.000

$$$$
VeraChem MOL file


 16 15  0  0  0  0  0  0  0  0999 V2000     
   20.8757   17.8147   24.0131 C   0  0  0  0  0  0  0  0  0  0  0  0
   21.8698   17.1201   23.9404 O   0  5  0  0  0  0  0  0  0  0  0  0
   20.0253   17.6824   24.8707 O   0  0  0  0  0  0  0  0  0  0  0  0
   20.6748   18.8978   22.9591 C   0  0  0  0  0  0  0  0  0  0  0  0
   21.6625   19.2671   22.6579 H   0  0  0  0  0  0  0  0  0  0  0  0
   20.1465   19.7325   23.4337 H   0  0  0  0  0  0  0  0  0  0  0  0
   19.8925   18.3922   21.7191 C   0  0  0  0  0  0  0  0  0  0  0  0
   20.4005   17.5037   21.3192 H   0  0  0  0  0  0  0  0  0  0  0  0
   18.8898   18.0648   22.0268 H   0  0  0  0  0  0  0  0  0  0  0  0
   19.7753   19.4460   20.5938 C   0  0  0  0  0  0  0  0  0  0  0  0
   19.3082   18.9761   19.7173 H   0  0  0  0  0  0  0  0  0  0  0  0
   20.7782   19.7649   20.2778 H   0  0  0  0  0  0  0  0  0  0  0  0
   18.9420   20.6802   21.0001 C   0  0  0  0  0  0  0  0  0  0  0  0
   19.4311   21.2481   21.8014 H   0  0  0  0  0  0  0  0  0  0  0  0
   17.9438   20.3833   21.3475 H   0  0  0  0  0  0  0  0  0  0  0  0
   18.8147   21.3558   20.1443 H   0  0  0  0  0  0  0  0  0  0  0  0
  1  2  1  0  0  0  0
  1  3  2  0  0  0  0
  1  4  1  0  0  0  0
  4  5  1  0  0  0  0
  4  6  1  0  0  0  0
  4  7  1  0  0  0  0
  7  8  1  0  0  0  0
  7  9  1  0  0  0  0
  7 10  1  0  0  0  0
 10 11  1  0  0  0  0
 10 12  1  0  0  0  0
 10 13  1  0  0  0  0
 13 14  1  0  0  0  0
 13 15  1  0  0  0  0
 13 16  1  0  0  0  0
M  END
> <VConfSearch Rank>
973

> <Conf_Id>
36

> <Delta U+W>
-0.427

> <U+W>
-57.331

> <U>
7.263

> <W>
-64.594

> <W(PB)>
-66.513

> <W(SA)>
1.920

> <Valence>
6.734

> <Coulomb>
-0.068

> <VdW>
0.598

> <VdW6>
-4.819

> <VdW12>
5.417

> <Bond>
0.107

> <Angle>
2.469

> <Pdih>
4.157

> <Idih>
0.001

> <Tether>
0.000

$$$$
VeraChem MOL file


 16 15  0  0  0  0  0  0  0  0999 V2000     
   21.2671   18.8491   24.2067 C   0  0  0  0  0  0  0  0  0  0  0  0
   21.6097   19.9230   24.6599 O   0  5  0  0  0  0  0  0  0  0  0  0
   21.7711   17.7921   24.5303 O   0  0  0  0  0  0  0  0  0  0  0  0
   20.1583   18.8282   23.1605 C   0  0  0  0  0  0  0  0  0  0  0  0
   19.4663   19.6464   23.3902 H   0  0  0  0  0  0  0  0  0  0  0  0
   19.6016   17.8901   23.2730 H   0  0  0  0  0  0  0  0  0  0  0  0
   20.6961   18.9598   21.7119 C   0  0  0  0  0  0  0  0  0  0  0  0
   21.2147   19.9219   21.5994 H   0  0  0  0  0  0  0  0  0  0  0  0
   21.4502   18.1787   21.5428 H   0  0  0  0  0  0  0  0  0  0  0  0
   19.5962   18.8302   20.6330 C   0  0  0  0  0  0  0  0  0  0  0  0
   19.0853   17.8631   20.7380 H   0  0  0  0  0  0  0  0  0  0  0  0
   20.0720   18.8244   19.6426 H   0  0  0  0  0  0  0  0  0  0  0  0
   18.5595   19.9729   20.6805 C   0  0  0  0  0  0  0  0  0  0  0  0
   17.9780   19.9484   21.6106 H   0  0  0  0  0  0  0  0  0  0  0  0
   17.8531   19.8849   19.8448 H   0  0  0  0  0  0  0  0  0  0  0  0
   19.0503   20.9521   20.6062 H   0  0  0  0  0  0  0  0  0  0  0  0
  1  2  1  0  0  0  0
  1  3  2  0  0  0  0
  1  4  1  0  0  0  0
  4  5  1  0  0  0  0
  4  6  1  0  0  0  0
  4  7  1  0  0  0  0
  7  8  1  0  0  0  0
  7  9  1  0  0  0  0
  7 10  1  0  0  0  0
 10 11  1  0  0  0  0
 10 12  1  0  0  0  0
 10 13  1  0  0  0  0
 13 14  1  0  0  0  0
 13 15  1  0  0  0  0
 13 16  1  0  0  0  0
M  END
> <VConfSearch Rank>
974

> <Conf_Id>
17

> <Delta U+W>
-0.432

> <U+W>
-57.336

> <U>
7.263

> <W>
-64.599

> <W(PB)>
-66.503

> <W(SA)>
1.904

> <Valence>
6.734

> <Coulomb>
-0.068

> <VdW>
0.598

> <VdW6>
-4.819

> <VdW12>
5.417

> <Bond>
0.107

> <Angle>
2.469

> <Pdih>
4.157

> <Idih>
0.001

> <Tether>
0.000

$$$$
VeraChem MOL file


 16 15  0  0  0  0  0  0  0  0999 V2000     
   18.9152   21.1620   21.9889 C   0  0  0  0  0  0  0  0  0  0  0  0
   18.4938   21.4207   20.8791 O   0  5  0  0  0  0  0  0  0  0  0  0
   18.2316   21.2021   22.9926 O   0  0  0  0  0  0  0  0  0  0  0  0
   20.3887   20.7902   22.1308 C   0  0  0  0  0  0  0  0  0  0  0  0
   20.6864   20.9299   23.1772 H   0  0  0  0  0  0  0  0  0  0  0  0
   20.9671   21.5089   21.5381 H   0  0  0  0  0  0  0  0  0  0  0  0
   20.7244   19.3489   21.6671 C   0  0  0  0  0  0  0  0  0  0  0  0
   20.3950   19.2148   20.6274 H   0  0  0  0  0  0  0  0  0  0  0  0
   21.8149   19.2176   21.6727 H   0  0  0  0  0  0  0  0  0  0  0  0
   20.0777   18.2709   22.5637 C   0  0  0  0  0  0  0  0  0  0  0  0
   18.9842   18.3798   22.5496 H   0  0  0  0  0  0  0  0  0  0  0  0
   20.3982   18.4138   23.6050 H   0  0  0  0  0  0  0  0  0  0  0  0
   20.4545   16.8493   22.1016 C   0  0  0  0  0  0  0  0  0  0  0  0
   20.1175   16.6691   21.0723 H   0  0  0  0  0  0  0  0  0  0  0  0
   19.9864   16.0958   22.7483 H   0  0  0  0  0  0  0  0  0  0  0  0
   21.5415   16.6993   22.1381 H   0  0  0  0  0  0  0  0  0  0  0  0
  1  2  1  0  0  0  0
  1  3  2  0  0  0  0
  1  4  1  0  0  0  0
  4  5  1  0  0  0  0
  4  6  1  0  0  0  0
  4  7  1  0  0  0  0
  7  8  1  0  0  0  0
  7  9  1  0  0  0  0
  7 10  1  0  0  0  0
 10 11  1  0  0  0  0
 10 12  1  0  0  0  0
 10 13  1  0  0  0  0
 13 14  1  0  0  0  0
 13 15  1  0  0  0  0
 13 16  1  0  0  0  0
M  END
> <VConfSearch Rank>
975

> <Conf_Id>
19

> <Delta U+W>
0.048

> <U+W>
-56.856

> <U>
8.276

> <W>
-65.132

> <W(PB)>
-67.031

> <W(SA)>
1.899

> <Valence>
6.513

> <Coulomb>
1.428

> <VdW>
0.335

> <VdW6>
-5.021

> <VdW12>
5.356

> <Bond>
0.092

> <Angle>
2.417

> <Pdih>
4.003

> <Idih>
0.001

> <Tether>
0.000

$$$$
VeraChem MOL file


 16 15  0  0  0  0  0  0  0  0999 V2000     
   22.1923   18.8431   22.3856 C   0  0  0  0  0  0  0  0  0  0  0  0
   22.7343   18.3100   21.4377 O   0  5  0  0  0  0  0  0  0  0  0  0
   22.3467   18.4840   23.5360 O   0  0  0  0  0  0  0  0  0  0  0  0
   21.2878   20.0426   22.1166 C   0  0  0  0  0  0  0  0  0  0  0  0
   21.8149   20.7003   21.4153 H   0  0  0  0  0  0  0  0  0  0  0  0
   21.1663   20.6063   23.0496 H   0  0  0  0  0  0  0  0  0  0  0  0
   19.9004   19.6697   21.5324 C   0  0  0  0  0  0  0  0  0  0  0  0
   19.3766   20.5907   21.2424 H   0  0  0  0  0  0  0  0  0  0  0  0
   20.0380   19.0816   20.6144 H   0  0  0  0  0  0  0  0  0  0  0  0
   19.0273   18.8814   22.5326 C   0  0  0  0  0  0  0  0  0  0  0  0
   18.9009   19.4655   23.4547 H   0  0  0  0  0  0  0  0  0  0  0  0
   19.5327   17.9472   22.8145 H   0  0  0  0  0  0  0  0  0  0  0  0
   17.6428   18.5532   21.9395 C   0  0  0  0  0  0  0  0  0  0  0  0
   17.0989   19.4708   21.6796 H   0  0  0  0  0  0  0  0  0  0  0  0
   17.0357   17.9925   22.6622 H   0  0  0  0  0  0  0  0  0  0  0  0
   17.7393   17.9428   21.0320 H   0  0  0  0  0  0  0  0  0  0  0  0
  1  2  1  0  0  0  0
  1  3  2  0  0  0  0
  1  4  1  0  0  0  0
  4  5  1  0  0  0  0
  4  6  1  0  0  0  0
  4  7  1  0  0  0  0
  7  8  1  0  0  0  0
  7  9  1  0  0  0  0
  7 10  1  0  0  0  0
 10 11  1  0  0  0  0
 10 12  1  0  0  0  0
 10 13  1  0  0  0  0
 13 14  1  0  0  0  0
 13 15  1  0  0  0  0
 13 16  1  0  0  0  0
M  END
> <VConfSearch Rank>
976

> <Conf_Id>
20

> <Delta U+W>
-0.010

> <U+W>
-56.914

> <U>
8.277

> <W>
-65.191

> <W(PB)>
-67.081

> <W(SA)>
1.890

> <Valence>
6.513

> <Coulomb>
1.429

> <VdW>
0.335

> <VdW6>
-5.021

> <VdW12>
5.356

> <Bond>
0.092

> <Angle>
2.417

> <Pdih>
4.002

> <Idih>
0.001

> <Tether>
0.000

$$$$
VeraChem MOL file


 16 15  0  0  0  0  0  0  0  0999 V2000     
   18.3198   18.9224   23.6487 C   0  0  0  0  0  0  0  0  0  0  0  0
   17.2079   19.3985   23.5311 O   0  5  0  0  0  0  0  0  0  0  0  0
   18.9757   18.9954   24.6688 O   0  0  0  0  0  0  0  0  0  0  0  0
   18.9070   18.1637   22.4615 C   0  0  0  0  0  0  0  0  0  0  0  0
   18.1515   17.4412   22.1311 H   0  0  0  0  0  0  0  0  0  0  0  0
   19.7657   17.5775   22.8084 H   0  0  0  0  0  0  0  0  0  0  0  0
   19.3093   19.0683   21.2647 C   0  0  0  0  0  0  0  0  0  0  0  0
   19.6441   18.4356   20.4316 H   0  0  0  0  0  0  0  0  0  0  0  0
   18.4160   19.5996   20.9082 H   0  0  0  0  0  0  0  0  0  0  0  0
   20.4105   20.1051   21.5907 C   0  0  0  0  0  0  0  0  0  0  0  0
   20.0734   20.7674   22.4003 H   0  0  0  0  0  0  0  0  0  0  0  0
   20.5633   20.7454   20.7111 H   0  0  0  0  0  0  0  0  0  0  0  0
   21.7584   19.4602   21.9774 C   0  0  0  0  0  0  0  0  0  0  0  0
   21.6793   18.9094   22.9234 H   0  0  0  0  0  0  0  0  0  0  0  0
   22.5294   20.2308   22.1061 H   0  0  0  0  0  0  0  0  0  0  0  0
   22.1005   18.7654   21.1994 H   0  0  0  0  0  0  0  0  0  0  0  0
  1  2  1  0  0  0  0
  1  3  2  0  0  0  0
  1  4  1  0  0  0  0
  4  5  1  0  0  0  0
  4  6  1  0  0  0  0
  4  7  1  0  0  0  0
  7  8  1  0  0  0  0
  7  9  1  0  0  0  0
  7 10  1  0  0  0  0
 10 11  1  0  0  0  0
 10 12  1  0  0  0  0
 10 13  1  0  0  0  0
 13 14  1  0  0  0  0
 13 15  1  0  0  0  0
 13 16  1  0  0  0  0
M  END
> <VConfSearch Rank>
977

> <Conf_Id>
37

> <Delta U+W>
1.063

> <U+W>
-55.841

> <U>
9.719

> <W>
-65.560

> <W(PB)>
-67.414

> <W(SA)>
1.854

> <Valence>
7.002

> <Coulomb>
2.402

> <VdW>
0.314

> <VdW6>
-5.861

> <VdW12>
6.175

> <Bond>
0.134

> <Angle>
2.733

> <Pdih>
4.133

> <Idih>
0.002

> <Tether>
0.000

$$$$
VeraChem MOL file


 16 15  0  0  0  0  0  0  0  0999 V2000     
   22.0660   18.5770   22.9381 C   0  0  0  0  0  0  0  0  0  0  0  0
   22.6490   17.5665   22.5976 O   0  5  0  0  0  0  0  0  0  0  0  0
   22.5996   19.6661   23.0114 O   0  0  0  0  0  0  0  0  0  0  0  0
   20.5945   18.4625   23.3269 C   0  0  0  0  0  0  0  0  0  0  0  0
   20.2990   19.3743   23.8585 H   0  0  0  0  0  0  0  0  0  0  0  0
   20.5115   17.6419   24.0491 H   0  0  0  0  0  0  0  0  0  0  0  0
   19.6401   18.1919   22.1317 C   0  0  0  0  0  0  0  0  0  0  0  0
   19.9307   17.2452   21.6556 H   0  0  0  0  0  0  0  0  0  0  0  0
   18.6200   18.0451   22.5115 H   0  0  0  0  0  0  0  0  0  0  0  0
   19.6284   19.3074   21.0596 C   0  0  0  0  0  0  0  0  0  0  0  0
   18.9919   18.9862   20.2236 H   0  0  0  0  0  0  0  0  0  0  0  0
   20.6379   19.4402   20.6463 H   0  0  0  0  0  0  0  0  0  0  0  0
   19.1058   20.6584   21.5927 C   0  0  0  0  0  0  0  0  0  0  0  0
   18.1114   20.5461   22.0438 H   0  0  0  0  0  0  0  0  0  0  0  0
   19.0270   21.3882   20.7765 H   0  0  0  0  0  0  0  0  0  0  0  0
   19.7834   21.0774   22.3476 H   0  0  0  0  0  0  0  0  0  0  0  0
  1  2  1  0  0  0  0
  1  3  2  0  0  0  0
  1  4  1  0  0  0  0
  4  5  1  0  0  0  0
  4  6  1  0  0  0  0
  4  7  1  0  0  0  0
  7  8  1  0  0  0  0
  7  9  1  0  0  0  0
  7 10  1  0  0  0  0
 10 11  1  0  0  0  0
 10 12  1  0  0  0  0
 10 13  1  0  0  0  0
 13 14  1  0  0  0  0
 13 15  1  0  0  0  0
 13 16  1  0  0  0  0
M  END
> <VConfSearch Rank>
978

> <Conf_Id>
39

> <Delta U+W>
1.129

> <U+W>
-55.775

> <U>
9.718

> <W>
-65.493

> <W(PB)>
-67.361

> <W(SA)>
1.869

> <Valence>
7.002

> <Coulomb>
2.402

> <VdW>
0.314

> <VdW6>
-5.861

> <VdW12>
6.175

> <Bond>
0.134

> <Angle>
2.734

> <Pdih>
4.133

> <Idih>
0.002

> <Tether>
0.000

$$$$
VeraChem MOL file


 16 15  0  0  0  0  0  0  0  0999 V2000     
   18.0498   18.7410   22.9383 C   0  0  0  0  0  0  0  0  0  0  0  0
   18.0673   18.1308   23.9891 O   0  5  0  0  0  0  0  0  0  0  0  0
   17.3467   18.4309   21.9967 O   0  0  0  0  0  0  0  0  0  0  0  0
   18.8873   20.0140   22.8299 C   0  0  0  0  0  0  0  0  0  0  0  0
   19.3942   20.1903   23.7864 H   0  0  0  0  0  0  0  0  0  0  0  0
   18.1785   20.8393   22.6943 H   0  0  0  0  0  0  0  0  0  0  0  0
   19.9158   20.0354   21.6642 C   0  0  0  0  0  0  0  0  0  0  0  0
   19.4470   19.6594   20.7442 H   0  0  0  0  0  0  0  0  0  0  0  0
   20.1789   21.0828   21.4635 H   0  0  0  0  0  0  0  0  0  0  0  0
   21.2283   19.2648   21.9452 C   0  0  0  0  0  0  0  0  0  0  0  0
   21.6927   19.6423   22.8666 H   0  0  0  0  0  0  0  0  0  0  0  0
   21.9369   19.4780   21.1330 H   0  0  0  0  0  0  0  0  0  0  0  0
   21.0450   17.7361   22.0451 C   0  0  0  0  0  0  0  0  0  0  0  0
   20.4776   17.4596   22.9421 H   0  0  0  0  0  0  0  0  0  0  0  0
   22.0201   17.2356   22.1043 H   0  0  0  0  0  0  0  0  0  0  0  0
   20.5151   17.3444   21.1669 H   0  0  0  0  0  0  0  0  0  0  0  0
  1  2  1  0  0  0  0
  1  3  2  0  0  0  0
  1  4  1  0  0  0  0
  4  5  1  0  0  0  0
  4  6  1  0  0  0  0
  4  7  1  0  0  0  0
  7  8  1  0  0  0  0
  7  9  1  0  0  0  0
  7 10  1  0  0  0  0
 10 11  1  0  0  0  0
 10 12  1  0  0  0  0
 10 13  1  0  0  0  0
 13 14  1  0  0  0  0
 13 15  1  0  0  0  0
 13 16  1  0  0  0  0
M  END
> <VConfSearch Rank>
979

> <Conf_Id>
47

> <Delta U+W>
2.301

> <U+W>
-54.603

> <U>
11.258

> <W>
-65.861

> <W(PB)>
-67.702

> <W(SA)>
1.841

> <Valence>
8.169

> <Coulomb>
2.735

> <VdW>
0.355

> <VdW6>
-6.245

> <VdW12>
6.600

> <Bond>
0.149

> <Angle>
3.168

> <Pdih>
4.840

> <Idih>
0.011

> <Tether>
0.000

$$$$
VeraChem MOL file


 16 15  0  0  0  0  0  0  0  0999 V2000     
   21.3620   18.6237   21.0267 C   0  0  0  0  0  0  0  0  0  0  0  0
   22.2702   19.4172   21.1771 O   0  5  0  0  0  0  0  0  0  0  0  0
   20.9361   18.2936   19.9374 O   0  0  0  0  0  0  0  0  0  0  0  0
   20.7861   17.9377   22.2642 C   0  0  0  0  0  0  0  0  0  0  0  0
   21.6105   17.3746   22.7169 H   0  0  0  0  0  0  0  0  0  0  0  0
   20.0390   17.1997   21.9479 H   0  0  0  0  0  0  0  0  0  0  0  0
   20.1808   18.8922   23.3318 C   0  0  0  0  0  0  0  0  0  0  0  0
   20.1422   18.3513   24.2870 H   0  0  0  0  0  0  0  0  0  0  0  0
   20.8527   19.7464   23.4944 H   0  0  0  0  0  0  0  0  0  0  0  0
   18.7511   19.3935   23.0152 C   0  0  0  0  0  0  0  0  0  0  0  0
   18.3648   19.9214   23.8980 H   0  0  0  0  0  0  0  0  0  0  0  0
   18.0830   18.5367   22.8515 H   0  0  0  0  0  0  0  0  0  0  0  0
   18.6782   20.3472   21.8047 C   0  0  0  0  0  0  0  0  0  0  0  0
   17.6723   20.7771   21.7147 H   0  0  0  0  0  0  0  0  0  0  0  0
   18.8965   19.8207   20.8676 H   0  0  0  0  0  0  0  0  0  0  0  0
   19.3926   21.1741   21.9107 H   0  0  0  0  0  0  0  0  0  0  0  0
  1  2  1  0  0  0  0
  1  3  2  0  0  0  0
  1  4  1  0  0  0  0
  4  5  1  0  0  0  0
  4  6  1  0  0  0  0
  4  7  1  0  0  0  0
  7  8  1  0  0  0  0
  7  9  1  0  0  0  0
  7 10  1  0  0  0  0
 10 11  1  0  0  0  0
 10 12  1  0  0  0  0
 10 13  1  0  0  0  0
 13 14  1  0  0  0  0
 13 15  1  0  0  0  0
 13 16  1  0  0  0  0
M  END
> <VConfSearch Rank>
980

> <Conf_Id>
45

> <Delta U+W>
2.303

> <U+W>
-54.601

> <U>
11.258

> <W>
-65.860

> <W(PB)>
-67.709

> <W(SA)>
1.849

> <Valence>
8.169

> <Coulomb>
2.735

> <VdW>
0.355

> <VdW6>
-6.245

> <VdW12>
6.600

> <Bond>
0.149

> <Angle>
3.168

> <Pdih>
4.840

> <Idih>
0.011

> <Tether>
0.000

$$$$
VeraChem MOL file


 16 15  0  0  0  0  0  0  0  0999 V2000     
   21.9630   18.4697   20.1042 C   0  0  0  0  0  0  0  0  0  0  0  0
   22.8798   18.8180   20.8225 O   0  5  0  0  0  0  0  0  0  0  0  0
   22.1303   18.0162   18.9899 O   0  0  0  0  0  0  0  0  0  0  0  0
   20.5206   18.5961   20.5973 C   0  0  0  0  0  0  0  0  0  0  0  0
   20.0707   17.5972   20.5527 H   0  0  0  0  0  0  0  0  0  0  0  0
   19.9821   19.2228   19.8767 H   0  0  0  0  0  0  0  0  0  0  0  0
   20.3562   19.1810   22.0254 C   0  0  0  0  0  0  0  0  0  0  0  0
   20.9022   18.5520   22.7421 H   0  0  0  0  0  0  0  0  0  0  0  0
   20.8134   20.1793   22.0654 H   0  0  0  0  0  0  0  0  0  0  0  0
   18.8727   19.2726   22.4403 C   0  0  0  0  0  0  0  0  0  0  0  0
   18.4146   18.2744   22.4024 H   0  0  0  0  0  0  0  0  0  0  0  0
   18.3258   19.9027   21.7253 H   0  0  0  0  0  0  0  0  0  0  0  0
   18.7159   19.8541   23.8592 C   0  0  0  0  0  0  0  0  0  0  0  0
   19.2276   19.2256   24.6000 H   0  0  0  0  0  0  0  0  0  0  0  0
   17.6558   19.9123   24.1385 H   0  0  0  0  0  0  0  0  0  0  0  0
   19.1381   20.8659   23.9179 H   0  0  0  0  0  0  0  0  0  0  0  0
  1  2  1  0  0  0  0
  1  3  2  0  0  0  0
  1  4  1  0  0  0  0
  4  5  1  0  0  0  0
  4  6  1  0  0  0  0
  4  7  1  0  0  0  0
  7  8  1  0  0  0  0
  7  9  1  0  0  0  0
  7 10  1  0  0  0  0
 10 11  1  0  0  0  0
 10 12  1  0  0  0  0
 10 13  1  0  0  0  0
 13 14  1  0  0  0  0
 13 15  1  0  0  0  0
 13 16  1  0  0  0  0
M  END
> <VConfSearch Rank>
981

> <Conf_Id>
0

> <Delta U+W>
0.000

> <U+W>
-56.904

> <U>
7.329

> <W>
-64.233

> <W(PB)>
-66.148

> <W(SA)>
1.915

> <Valence>
6.755

> <Coulomb>
-0.421

> <VdW>
0.995

> <VdW6>
-4.495

> <VdW12>
5.490

> <Bond>
0.106

> <Angle>
2.715

> <Pdih>
3.934

> <Idih>
0.000

> <Tether>
0.000

$$$$
VeraChem MOL file


 16 15  0  0  0  0  0  0  0  0999 V2000     
   21.1533   19.8846   19.5670 C   0  0  0  0  0  0  0  0  0  0  0  0
   22.3568   20.0475   19.5991 O   0  5  0  0  0  0  0  0  0  0  0  0
   20.5517   19.5127   18.5793 O   0  0  0  0  0  0  0  0  0  0  0  0
   20.3568   20.1437   20.8409 C   0  0  0  0  0  0  0  0  0  0  0  0
   19.3636   20.5098   20.5537 H   0  0  0  0  0  0  0  0  0  0  0  0
   20.8519   20.9506   21.3946 H   0  0  0  0  0  0  0  0  0  0  0  0
   20.2241   18.8862   21.7350 C   0  0  0  0  0  0  0  0  0  0  0  0
   19.7380   18.0837   21.1629 H   0  0  0  0  0  0  0  0  0  0  0  0
   21.2263   18.5245   22.0038 H   0  0  0  0  0  0  0  0  0  0  0  0
   19.4145   19.1755   23.0162 C   0  0  0  0  0  0  0  0  0  0  0  0
   18.4120   19.5366   22.7478 H   0  0  0  0  0  0  0  0  0  0  0  0
   19.9006   19.9775   23.5889 H   0  0  0  0  0  0  0  0  0  0  0  0
   19.2866   17.9197   23.9010 C   0  0  0  0  0  0  0  0  0  0  0  0
   20.2748   17.5548   24.2104 H   0  0  0  0  0  0  0  0  0  0  0  0
   18.7752   17.1106   23.3631 H   0  0  0  0  0  0  0  0  0  0  0  0
   18.7085   18.1425   24.8073 H   0  0  0  0  0  0  0  0  0  0  0  0
  1  2  1  0  0  0  0
  1  3  2  0  0  0  0
  1  4  1  0  0  0  0
  4  5  1  0  0  0  0
  4  6  1  0  0  0  0
  4  7  1  0  0  0  0
  7  8  1  0  0  0  0
  7  9  1  0  0  0  0
  7 10  1  0  0  0  0
 10 11  1  0  0  0  0
 10 12  1  0  0  0  0
 10 13  1  0  0  0  0
 13 14  1  0  0  0  0
 13 15  1  0  0  0  0
 13 16  1  0  0  0  0
M  END
> <VConfSearch Rank>
982

> <Conf_Id>
22

> <Delta U+W>
-1.185

> <U+W>
-58.089

> <U>
6.298

> <W>
-64.387

> <W(PB)>
-66.329

> <W(SA)>
1.942

> <Valence>
6.246

> <Coulomb>
-0.408

> <VdW>
0.460

> <VdW6>
-4.207

> <VdW12>
4.667

> <Bond>
0.072

> <Angle>
2.246

> <Pdih>
3.928

> <Idih>
0.001

> <Tether>
0.000

$$$$
VeraChem MOL file


 16 15  0  0  0  0  0  0  0  0999 V2000     
   21.8552   20.0792   20.4881 C   0  0  0  0  0  0  0  0  0  0  0  0
   22.9663   20.3204   20.9164 O   0  5  0  0  0  0  0  0  0  0  0  0
   21.4072   20.5682   19.4702 O   0  0  0  0  0  0  0  0  0  0  0  0
   20.9681   19.1268   21.2820 C   0  0  0  0  0  0  0  0  0  0  0  0
   21.6137   18.3860   21.7688 H   0  0  0  0  0  0  0  0  0  0  0  0
   20.3345   18.5872   20.5689 H   0  0  0  0  0  0  0  0  0  0  0  0
   20.0993   19.8556   22.3399 C   0  0  0  0  0  0  0  0  0  0  0  0
   20.7569   20.4553   22.9844 H   0  0  0  0  0  0  0  0  0  0  0  0
   19.4269   20.5641   21.8369 H   0  0  0  0  0  0  0  0  0  0  0  0
   19.2757   18.8945   23.2278 C   0  0  0  0  0  0  0  0  0  0  0  0
   18.7788   19.4789   24.0144 H   0  0  0  0  0  0  0  0  0  0  0  0
   19.9490   18.1933   23.7400 H   0  0  0  0  0  0  0  0  0  0  0  0
   18.2057   18.1065   22.4421 C   0  0  0  0  0  0  0  0  0  0  0  0
   18.6637   17.4207   21.7185 H   0  0  0  0  0  0  0  0  0  0  0  0
   17.5377   18.7867   21.8978 H   0  0  0  0  0  0  0  0  0  0  0  0
   17.5922   17.5061   23.1263 H   0  0  0  0  0  0  0  0  0  0  0  0
  1  2  1  0  0  0  0
  1  3  2  0  0  0  0
  1  4  1  0  0  0  0
  4  5  1  0  0  0  0
  4  6  1  0  0  0  0
  4  7  1  0  0  0  0
  7  8  1  0  0  0  0
  7  9  1  0  0  0  0
  7 10  1  0  0  0  0
 10 11  1  0  0  0  0
 10 12  1  0  0  0  0
 10 13  1  0  0  0  0
 13 14  1  0  0  0  0
 13 15  1  0  0  0  0
 13 16  1  0  0  0  0
M  END
> <VConfSearch Rank>
983

> <Conf_Id>
36

> <Delta U+W>
-0.427

> <U+W>
-57.331

> <U>
7.263

> <W>
-64.594

> <W(PB)>
-66.513

> <W(SA)>
1.920

> <Valence>
6.734

> <Coulomb>
-0.068

> <VdW>
0.598

> <VdW6>
-4.819

> <VdW12>
5.417

> <Bond>
0.107

> <Angle>
2.469

> <Pdih>
4.157

> <Idih>
0.001

> <Tether>
0.000

$$$$
VeraChem MOL file


 16 15  0  0  0  0  0  0  0  0999 V2000     
   21.9700   17.5162   21.8028 C   0  0  0  0  0  0  0  0  0  0  0  0
   21.8927   16.6267   22.6267 O   0  5  0  0  0  0  0  0  0  0  0  0
   23.0007   17.8177   21.2348 O   0  0  0  0  0  0  0  0  0  0  0  0
   20.7097   18.3105   21.4784 C   0  0  0  0  0  0  0  0  0  0  0  0
   19.8538   17.6323   21.5710 H   0  0  0  0  0  0  0  0  0  0  0  0
   20.7649   18.6231   20.4287 H   0  0  0  0  0  0  0  0  0  0  0  0
   20.5263   19.5477   22.3953 C   0  0  0  0  0  0  0  0  0  0  0  0
   20.4294   19.2191   23.4393 H   0  0  0  0  0  0  0  0  0  0  0  0
   21.4362   20.1618   22.3460 H   0  0  0  0  0  0  0  0  0  0  0  0
   19.3133   20.4253   22.0093 C   0  0  0  0  0  0  0  0  0  0  0  0
   19.4158   20.7637   20.9689 H   0  0  0  0  0  0  0  0  0  0  0  0
   19.3196   21.3303   22.6324 H   0  0  0  0  0  0  0  0  0  0  0  0
   17.9595   19.7060   22.1902 C   0  0  0  0  0  0  0  0  0  0  0  0
   17.8616   18.8569   21.5022 H   0  0  0  0  0  0  0  0  0  0  0  0
   17.1291   20.3948   21.9879 H   0  0  0  0  0  0  0  0  0  0  0  0
   17.8468   19.3331   23.2166 H   0  0  0  0  0  0  0  0  0  0  0  0
  1  2  1  0  0  0  0
  1  3  2  0  0  0  0
  1  4  1  0  0  0  0
  4  5  1  0  0  0  0
  4  6  1  0  0  0  0
  4  7  1  0  0  0  0
  7  8  1  0  0  0  0
  7  9  1  0  0  0  0
  7 10  1  0  0  0  0
 10 11  1  0  0  0  0
 10 12  1  0  0  0  0
 10 13  1  0  0  0  0
 13 14  1  0  0  0  0
 13 15  1  0  0  0  0
 13 16  1  0  0  0  0
M  END
> <VConfSearch Rank>
984

> <Conf_Id>
17

> <Delta U+W>
-0.432

> <U+W>
-57.336

> <U>
7.263

> <W>
-64.599

> <W(PB)>
-66.503

> <W(SA)>
1.904

> <Valence>
6.734

> <Coulomb>
-0.068

> <VdW>
0.598

> <VdW6>
-4.819

> <VdW12>
5.417

> <Bond>
0.107

> <Angle>
2.469

> <Pdih>
4.157

> <Idih>
0.001

> <Tether>
0.000

$$$$
VeraChem MOL file


 16 15  0  0  0  0  0  0  0  0999 V2000     
   22.2386   19.9949   21.4217 C   0  0  0  0  0  0  0  0  0  0  0  0
   23.0136   19.1408   21.0392 O   0  5  0  0  0  0  0  0  0  0  0  0
   22.0120   21.0188   20.8081 O   0  0  0  0  0  0  0  0  0  0  0  0
   21.5309   19.7788   22.7566 C   0  0  0  0  0  0  0  0  0  0  0  0
   21.1619   20.7463   23.1184 H   0  0  0  0  0  0  0  0  0  0  0  0
   22.2847   19.4379   23.4762 H   0  0  0  0  0  0  0  0  0  0  0  0
   20.3704   18.7518   22.6979 C   0  0  0  0  0  0  0  0  0  0  0  0
   20.7486   17.7969   22.3071 H   0  0  0  0  0  0  0  0  0  0  0  0
   20.0148   18.5570   23.7188 H   0  0  0  0  0  0  0  0  0  0  0  0
   19.1887   19.2399   21.8321 C   0  0  0  0  0  0  0  0  0  0  0  0
   19.5285   19.4186   20.8024 H   0  0  0  0  0  0  0  0  0  0  0  0
   18.8197   20.2008   22.2166 H   0  0  0  0  0  0  0  0  0  0  0  0
   18.0362   18.2162   21.8182 C   0  0  0  0  0  0  0  0  0  0  0  0
   18.3709   17.2540   21.4088 H   0  0  0  0  0  0  0  0  0  0  0  0
   17.2055   18.5778   21.1983 H   0  0  0  0  0  0  0  0  0  0  0  0
   17.6521   18.0429   22.8320 H   0  0  0  0  0  0  0  0  0  0  0  0
  1  2  1  0  0  0  0
  1  3  2  0  0  0  0
  1  4  1  0  0  0  0
  4  5  1  0  0  0  0
  4  6  1  0  0  0  0
  4  7  1  0  0  0  0
  7  8  1  0  0  0  0
  7  9  1  0  0  0  0
  7 10  1  0  0  0  0
 10 11  1  0  0  0  0
 10 12  1  0  0  0  0
 10 13  1  0  0  0  0
 13 14  1  0  0  0  0
 13 15  1  0  0  0  0
 13 16  1  0  0  0  0
M  END
> <VConfSearch Rank>
985

> <Conf_Id>
19

> <Delta U+W>
0.048

> <U+W>
-56.856

> <U>
8.276

> <W>
-65.132

> <W(PB)>
-67.031

> <W(SA)>
1.899

> <Valence>
6.513

> <Coulomb>
1.428

> <VdW>
0.335

> <VdW6>
-5.021

> <VdW12>
5.356

> <Bond>
0.092

> <Angle>
2.417

> <Pdih>
4.003

> <Idih>
0.001

> <Tether>
0.000

$$$$
VeraChem MOL file


 16 15  0  0  0  0  0  0  0  0999 V2000     
   20.3604   17.9849   20.0962 C   0  0  0  0  0  0  0  0  0  0  0  0
   20.7431   16.8473   20.2851 O   0  5  0  0  0  0  0  0  0  0  0  0
   20.9290   18.7717   19.3655 O   0  0  0  0  0  0  0  0  0  0  0  0
   19.0834   18.4404   20.7971 C   0  0  0  0  0  0  0  0  0  0  0  0
   18.3405   17.6431   20.6764 H   0  0  0  0  0  0  0  0  0  0  0  0
   18.6913   19.3210   20.2738 H   0  0  0  0  0  0  0  0  0  0  0  0
   19.2668   18.7522   22.3051 C   0  0  0  0  0  0  0  0  0  0  0  0
   18.2809   18.9344   22.7539 H   0  0  0  0  0  0  0  0  0  0  0  0
   19.6866   17.8713   22.8107 H   0  0  0  0  0  0  0  0  0  0  0  0
   20.1726   19.9780   22.5523 C   0  0  0  0  0  0  0  0  0  0  0  0
   19.7582   20.8551   22.0361 H   0  0  0  0  0  0  0  0  0  0  0  0
   21.1691   19.7987   22.1250 H   0  0  0  0  0  0  0  0  0  0  0  0
   20.3107   20.2860   24.0564 C   0  0  0  0  0  0  0  0  0  0  0  0
   19.3324   20.5037   24.5046 H   0  0  0  0  0  0  0  0  0  0  0  0
   20.9578   21.1586   24.2145 H   0  0  0  0  0  0  0  0  0  0  0  0
   20.7520   19.4353   24.5922 H   0  0  0  0  0  0  0  0  0  0  0  0
  1  2  1  0  0  0  0
  1  3  2  0  0  0  0
  1  4  1  0  0  0  0
  4  5  1  0  0  0  0
  4  6  1  0  0  0  0
  4  7  1  0  0  0  0
  7  8  1  0  0  0  0
  7  9  1  0  0  0  0
  7 10  1  0  0  0  0
 10 11  1  0  0  0  0
 10 12  1  0  0  0  0
 10 13  1  0  0  0  0
 13 14  1  0  0  0  0
 13 15  1  0  0  0  0
 13 16  1  0  0  0  0
M  END
> <VConfSearch Rank>
986

> <Conf_Id>
20

> <Delta U+W>
-0.010

> <U+W>
-56.914

> <U>
8.277

> <W>
-65.191

> <W(PB)>
-67.081

> <W(SA)>
1.890

> <Valence>
6.513

> <Coulomb>
1.429

> <VdW>
0.335

> <VdW6>
-5.021

> <VdW12>
5.356

> <Bond>
0.092

> <Angle>
2.417

> <Pdih>
4.002

> <Idih>
0.001

> <Tether>
0.000

$$$$
VeraChem MOL file


 16 15  0  0  0  0  0  0  0  0999 V2000     
   17.7523   19.1449   22.5747 C   0  0  0  0  0  0  0  0  0  0  0  0
   16.9135   18.9543   21.7162 O   0  5  0  0  0  0  0  0  0  0  0  0
   17.6769   20.0335   23.3998 O   0  0  0  0  0  0  0  0  0  0  0  0
   18.9454   18.1951   22.6385 C   0  0  0  0  0  0  0  0  0  0  0  0
   18.5487   17.1731   22.6299 H   0  0  0  0  0  0  0  0  0  0  0  0
   19.4471   18.3247   23.6043 H   0  0  0  0  0  0  0  0  0  0  0  0
   19.9550   18.3628   21.4701 C   0  0  0  0  0  0  0  0  0  0  0  0
   20.7324   17.5912   21.5523 H   0  0  0  0  0  0  0  0  0  0  0  0
   19.4323   18.1737   20.5223 H   0  0  0  0  0  0  0  0  0  0  0  0
   20.6256   19.7555   21.4017 C   0  0  0  0  0  0  0  0  0  0  0  0
   19.8596   20.5346   21.2842 H   0  0  0  0  0  0  0  0  0  0  0  0
   21.2531   19.8007   20.5010 H   0  0  0  0  0  0  0  0  0  0  0  0
   21.4999   20.0713   22.6339 C   0  0  0  0  0  0  0  0  0  0  0  0
   20.8905   20.1581   23.5426 H   0  0  0  0  0  0  0  0  0  0  0  0
   22.0272   21.0241   22.4961 H   0  0  0  0  0  0  0  0  0  0  0  0
   22.2521   19.2881   22.7947 H   0  0  0  0  0  0  0  0  0  0  0  0
  1  2  1  0  0  0  0
  1  3  2  0  0  0  0
  1  4  1  0  0  0  0
  4  5  1  0  0  0  0
  4  6  1  0  0  0  0
  4  7  1  0  0  0  0
  7  8  1  0  0  0  0
  7  9  1  0  0  0  0
  7 10  1  0  0  0  0
 10 11  1  0  0  0  0
 10 12  1  0  0  0  0
 10 13  1  0  0  0  0
 13 14  1  0  0  0  0
 13 15  1  0  0  0  0
 13 16  1  0  0  0  0
M  END
> <VConfSearch Rank>
987

> <Conf_Id>
37

> <Delta U+W>
1.063

> <U+W>
-55.841

> <U>
9.719

> <W>
-65.560

> <W(PB)>
-67.414

> <W(SA)>
1.854

> <Valence>
7.002

> <Coulomb>
2.402

> <VdW>
0.314

> <VdW6>
-5.861

> <VdW12>
6.175

> <Bond>
0.134

> <Angle>
2.733

> <Pdih>
4.133

> <Idih>
0.002

> <Tether>
0.000

$$$$
VeraChem MOL file


 16 15  0  0  0  0  0  0  0  0999 V2000     
   21.3872   18.5048   23.8032 C   0  0  0  0  0  0  0  0  0  0  0  0
   22.3628   19.1280   24.1729 O   0  5  0  0  0  0  0  0  0  0  0  0
   20.5515   18.0557   24.5624 O   0  0  0  0  0  0  0  0  0  0  0  0
   21.2237   18.2442   22.3082 C   0  0  0  0  0  0  0  0  0  0  0  0
   20.4718   17.4592   22.1680 H   0  0  0  0  0  0  0  0  0  0  0  0
   22.1725   17.8334   21.9438 H   0  0  0  0  0  0  0  0  0  0  0  0
   20.8592   19.5059   21.4788 C   0  0  0  0  0  0  0  0  0  0  0  0
   21.6585   20.2501   21.5990 H   0  0  0  0  0  0  0  0  0  0  0  0
   20.8410   19.2431   20.4125 H   0  0  0  0  0  0  0  0  0  0  0  0
   19.5093   20.1555   21.8659 C   0  0  0  0  0  0  0  0  0  0  0  0
   19.3834   21.0795   21.2849 H   0  0  0  0  0  0  0  0  0  0  0  0
   19.5273   20.4551   22.9230 H   0  0  0  0  0  0  0  0  0  0  0  0
   18.2958   19.2367   21.6092 C   0  0  0  0  0  0  0  0  0  0  0  0
   18.2745   18.8941   20.5665 H   0  0  0  0  0  0  0  0  0  0  0  0
   17.3594   19.7735   21.8087 H   0  0  0  0  0  0  0  0  0  0  0  0
   18.3185   18.3555   22.2631 H   0  0  0  0  0  0  0  0  0  0  0  0
  1  2  1  0  0  0  0
  1  3  2  0  0  0  0
  1  4  1  0  0  0  0
  4  5  1  0  0  0  0
  4  6  1  0  0  0  0
  4  7  1  0  0  0  0
  7  8  1  0  0  0  0
  7  9  1  0  0  0  0
  7 10  1  0  0  0  0
 10 11  1  0  0  0  0
 10 12  1  0  0  0  0
 10 13  1  0  0  0  0
 13 14  1  0  0  0  0
 13 15  1  0  0  0  0
 13 16  1  0  0  0  0
M  END
> <VConfSearch Rank>
988

> <Conf_Id>
39

> <Delta U+W>
1.129

> <U+W>
-55.775

> <U>
9.718

> <W>
-65.493

> <W(PB)>
-67.361

> <W(SA)>
1.869

> <Valence>
7.002

> <Coulomb>
2.402

> <VdW>
0.314

> <VdW6>
-5.861

> <VdW12>
6.175

> <Bond>
0.134

> <Angle>
2.734

> <Pdih>
4.133

> <Idih>
0.002

> <Tether>
0.000

$$$$
VeraChem MOL file


 16 15  0  0  0  0  0  0  0  0999 V2000     
   21.6505   18.4102   22.9505 C   0  0  0  0  0  0  0  0  0  0  0  0
   22.5519   18.6722   22.1787 O   0  5  0  0  0  0  0  0  0  0  0  0
   21.4834   17.3077   23.4339 O   0  0  0  0  0  0  0  0  0  0  0  0
   20.7369   19.5472   23.4046 C   0  0  0  0  0  0  0  0  0  0  0  0
   21.0718   20.4819   22.9386 H   0  0  0  0  0  0  0  0  0  0  0  0
   20.8972   19.6601   24.4832 H   0  0  0  0  0  0  0  0  0  0  0  0
   19.2208   19.3274   23.1400 C   0  0  0  0  0  0  0  0  0  0  0  0
   18.9352   18.3053   23.4253 H   0  0  0  0  0  0  0  0  0  0  0  0
   18.6599   19.9958   23.8071 H   0  0  0  0  0  0  0  0  0  0  0  0
   18.7681   19.6201   21.6891 C   0  0  0  0  0  0  0  0  0  0  0  0
   19.0572   20.6420   21.4071 H   0  0  0  0  0  0  0  0  0  0  0  0
   17.6703   19.5897   21.6551 H   0  0  0  0  0  0  0  0  0  0  0  0
   19.3171   18.6201   20.6505 C   0  0  0  0  0  0  0  0  0  0  0  0
   20.4016   18.7279   20.5266 H   0  0  0  0  0  0  0  0  0  0  0  0
   18.8545   18.7920   19.6701 H   0  0  0  0  0  0  0  0  0  0  0  0
   19.1049   17.5852   20.9493 H   0  0  0  0  0  0  0  0  0  0  0  0
  1  2  1  0  0  0  0
  1  3  2  0  0  0  0
  1  4  1  0  0  0  0
  4  5  1  0  0  0  0
  4  6  1  0  0  0  0
  4  7  1  0  0  0  0
  7  8  1  0  0  0  0
  7  9  1  0  0  0  0
  7 10  1  0  0  0  0
 10 11  1  0  0  0  0
 10 12  1  0  0  0  0
 10 13  1  0  0  0  0
 13 14  1  0  0  0  0
 13 15  1  0  0  0  0
 13 16  1  0  0  0  0
M  END
> <VConfSearch Rank>
989

> <Conf_Id>
47

> <Delta U+W>
2.301

> <U+W>
-54.603

> <U>
11.258

> <W>
-65.861

> <W(PB)>
-67.702

> <W(SA)>
1.841

> <Valence>
8.169

> <Coulomb>
2.735

> <VdW>
0.355

> <VdW6>
-6.245

> <VdW12>
6.600

> <Bond>
0.149

> <Angle>
3.168

> <Pdih>
4.840

> <Idih>
0.011

> <Tether>
0.000

$$$$
VeraChem MOL file


 16 15  0  0  0  0  0  0  0  0999 V2000     
   19.1698   20.1084   20.6869 C   0  0  0  0  0  0  0  0  0  0  0  0
   20.1036   20.4177   19.9730 O   0  5  0  0  0  0  0  0  0  0  0  0
   18.2918   20.8831   21.0121 O   0  0  0  0  0  0  0  0  0  0  0  0
   19.0434   18.6503   21.1244 C   0  0  0  0  0  0  0  0  0  0  0  0
   18.9333   18.0609   20.2067 H   0  0  0  0  0  0  0  0  0  0  0  0
   18.1117   18.5268   21.6898 H   0  0  0  0  0  0  0  0  0  0  0  0
   20.2449   18.0947   21.9398 C   0  0  0  0  0  0  0  0  0  0  0  0
   20.2180   16.9984   21.8788 H   0  0  0  0  0  0  0  0  0  0  0  0
   21.1899   18.4010   21.4701 H   0  0  0  0  0  0  0  0  0  0  0  0
   20.2455   18.4840   23.4378 C   0  0  0  0  0  0  0  0  0  0  0  0
   21.0366   17.9140   23.9444 H   0  0  0  0  0  0  0  0  0  0  0  0
   19.2985   18.1778   23.9033 H   0  0  0  0  0  0  0  0  0  0  0  0
   20.4867   19.9865   23.6918 C   0  0  0  0  0  0  0  0  0  0  0  0
   20.6158   20.1787   24.7648 H   0  0  0  0  0  0  0  0  0  0  0  0
   19.6382   20.5909   23.3485 H   0  0  0  0  0  0  0  0  0  0  0  0
   21.3901   20.3339   23.1736 H   0  0  0  0  0  0  0  0  0  0  0  0
  1  2  1  0  0  0  0
  1  3  2  0  0  0  0
  1  4  1  0  0  0  0
  4  5  1  0  0  0  0
  4  6  1  0  0  0  0
  4  7  1  0  0  0  0
  7  8  1  0  0  0  0
  7  9  1  0  0  0  0
  7 10  1  0  0  0  0
 10 11  1  0  0  0  0
 10 12  1  0  0  0  0
 10 13  1  0  0  0  0
 13 14  1  0  0  0  0
 13 15  1  0  0  0  0
 13 16  1  0  0  0  0
M  END
> <VConfSearch Rank>
990

> <Conf_Id>
45

> <Delta U+W>
2.303

> <U+W>
-54.601

> <U>
11.258

> <W>
-65.860

> <W(PB)>
-67.709

> <W(SA)>
1.849

> <Valence>
8.169

> <Coulomb>
2.735

> <VdW>
0.355

> <VdW6>
-6.245

> <VdW12>
6.600

> <Bond>
0.149

> <Angle>
3.168

> <Pdih>
4.840

> <Idih>
0.011

> <Tether>
0.000

$$$$
VeraChem MOL file


 16 15  0  0  0  0  0  0  0  0999 V2000     
   22.5854   18.4642   22.6278 C   0  0  0  0  0  0  0  0  0  0  0  0
   22.3194   18.2582   23.7960 O   0  5  0  0  0  0  0  0  0  0  0  0
   23.7056   18.3471   22.1731 O   0  0  0  0  0  0  0  0  0  0  0  0
   21.4803   18.8921   21.6606 C   0  0  0  0  0  0  0  0  0  0  0  0
   21.4550   18.1575   20.8470 H   0  0  0  0  0  0  0  0  0  0  0  0
   21.7838   19.8488   21.2194 H   0  0  0  0  0  0  0  0  0  0  0  0
   20.0668   19.0291   22.2864 C   0  0  0  0  0  0  0  0  0  0  0  0
   19.7704   18.0691   22.7314 H   0  0  0  0  0  0  0  0  0  0  0  0
   20.0996   19.7622   23.1043 H   0  0  0  0  0  0  0  0  0  0  0  0
   19.0169   19.4632   21.2421 C   0  0  0  0  0  0  0  0  0  0  0  0
   18.9818   18.7299   20.4245 H   0  0  0  0  0  0  0  0  0  0  0  0
   19.3112   20.4240   20.7975 H   0  0  0  0  0  0  0  0  0  0  0  0
   17.6153   19.5976   21.8696 C   0  0  0  0  0  0  0  0  0  0  0  0
   17.2822   18.6418   22.2949 H   0  0  0  0  0  0  0  0  0  0  0  0
   16.8812   19.9067   21.1141 H   0  0  0  0  0  0  0  0  0  0  0  0
   17.6140   20.3484   22.6707 H   0  0  0  0  0  0  0  0  0  0  0  0
  1  2  1  0  0  0  0
  1  3  2  0  0  0  0
  1  4  1  0  0  0  0
  4  5  1  0  0  0  0
  4  6  1  0  0  0  0
  4  7  1  0  0  0  0
  7  8  1  0  0  0  0
  7  9  1  0  0  0  0
  7 10  1  0  0  0  0
 10 11  1  0  0  0  0
 10 12  1  0  0  0  0
 10 13  1  0  0  0  0
 13 14  1  0  0  0  0
 13 15  1  0  0  0  0
 13 16  1  0  0  0  0
M  END
> <VConfSearch Rank>
991

> <Conf_Id>
0

> <Delta U+W>
0.000

> <U+W>
-56.904

> <U>
7.329

> <W>
-64.233

> <W(PB)>
-66.148

> <W(SA)>
1.915

> <Valence>
6.755

> <Coulomb>
-0.421

> <VdW>
0.995

> <VdW6>
-4.495

> <VdW12>
5.490

> <Bond>
0.106

> <Angle>
2.715

> <Pdih>
3.934

> <Idih>
0.000

> <Tether>
0.000

$$$$
VeraChem MOL file


 16 15  0  0  0  0  0  0  0  0999 V2000     
   19.4530   21.1057   23.7288 C   0  0  0  0  0  0  0  0  0  0  0  0
   18.3912   20.9756   24.3046 O   0  5  0  0  0  0  0  0  0  0  0  0
   20.4218   21.6494   24.2205 O   0  0  0  0  0  0  0  0  0  0  0  0
   19.5825   20.5396   22.3191 C   0  0  0  0  0  0  0  0  0  0  0  0
   20.2790   21.1752   21.7590 H   0  0  0  0  0  0  0  0  0  0  0  0
   18.6049   20.6195   21.8284 H   0  0  0  0  0  0  0  0  0  0  0  0
   20.0697   19.0697   22.3022 C   0  0  0  0  0  0  0  0  0  0  0  0
   21.0432   19.0041   22.8077 H   0  0  0  0  0  0  0  0  0  0  0  0
   19.3690   18.4484   22.8772 H   0  0  0  0  0  0  0  0  0  0  0  0
   20.1919   18.5218   20.8650 C   0  0  0  0  0  0  0  0  0  0  0  0
   20.8930   19.1425   20.2899 H   0  0  0  0  0  0  0  0  0  0  0  0
   19.2184   18.5867   20.3594 H   0  0  0  0  0  0  0  0  0  0  0  0
   20.6771   17.0588   20.8559 C   0  0  0  0  0  0  0  0  0  0  0  0
   19.9773   16.4095   21.3982 H   0  0  0  0  0  0  0  0  0  0  0  0
   21.6642   16.9694   21.3283 H   0  0  0  0  0  0  0  0  0  0  0  0
   20.7586   16.6847   19.8270 H   0  0  0  0  0  0  0  0  0  0  0  0
  1  2  1  0  0  0  0
  1  3  2  0  0  0  0
  1  4  1  0  0  0  0
  4  5  1  0  0  0  0
  4  6  1  0  0  0  0
  4  7  1  0  0  0  0
  7  8  1  0  0  0  0
  7  9  1  0  0  0  0
  7 10  1  0  0  0  0
 10 11  1  0  0  0  0
 10 12  1  0  0  0  0
 10 13  1  0  0  0  0
 13 14  1  0  0  0  0
 13 15  1  0  0  0  0
 13 16  1  0  0  0  0
M  END
> <VConfSearch Rank>
992

> <Conf_Id>
22

> <Delta U+W>
-1.185

> <U+W>
-58.089

> <U>
6.298

> <W>
-64.387

> <W(PB)>
-66.329

> <W(SA)>
1.942

> <Valence>
6.246

> <Coulomb>
-0.408

> <VdW>
0.460

> <VdW6>
-4.207

> <VdW12>
4.667

> <Bond>
0.072

> <Angle>
2.246

> <Pdih>
3.928

> <Idih>
0.001

> <Tether>
0.000

$$$$
VeraChem MOL file


 16 15  0  0  0  0  0  0  0  0999 V2000     
   19.5651   16.5996   22.2297 C   0  0  0  0  0  0  0  0  0  0  0  0
   18.6319   16.1446   22.8606 O   0  5  0  0  0  0  0  0  0  0  0  0
   20.5724   15.9708   21.9730 O   0  0  0  0  0  0  0  0  0  0  0  0
   19.4754   18.0447   21.7518 C   0  0  0  0  0  0  0  0  0  0  0  0
   18.4229   18.2689   21.5410 H   0  0  0  0  0  0  0  0  0  0  0  0
   20.0197   18.1177   20.8034 H   0  0  0  0  0  0  0  0  0  0  0  0
   20.0405   19.0552   22.7836 C   0  0  0  0  0  0  0  0  0  0  0  0
   19.5347   18.8973   23.7462 H   0  0  0  0  0  0  0  0  0  0  0  0
   21.1058   18.8474   22.9546 H   0  0  0  0  0  0  0  0  0  0  0  0
   19.8576   20.5316   22.3627 C   0  0  0  0  0  0  0  0  0  0  0  0
   20.1817   21.1776   23.1904 H   0  0  0  0  0  0  0  0  0  0  0  0
   18.7911   20.7428   22.2030 H   0  0  0  0  0  0  0  0  0  0  0  0
   20.6564   20.9070   21.0963 C   0  0  0  0  0  0  0  0  0  0  0  0
   20.2887   20.3660   20.2154 H   0  0  0  0  0  0  0  0  0  0  0  0
   21.7226   20.6775   21.2219 H   0  0  0  0  0  0  0  0  0  0  0  0
   20.5641   21.9810   20.8889 H   0  0  0  0  0  0  0  0  0  0  0  0
  1  2  1  0  0  0  0
  1  3  2  0  0  0  0
  1  4  1  0  0  0  0
  4  5  1  0  0  0  0
  4  6  1  0  0  0  0
  4  7  1  0  0  0  0
  7  8  1  0  0  0  0
  7  9  1  0  0  0  0
  7 10  1  0  0  0  0
 10 11  1  0  0  0  0
 10 12  1  0  0  0  0
 10 13  1  0  0  0  0
 13 14  1  0  0  0  0
 13 15  1  0  0  0  0
 13 16  1  0  0  0  0
M  END
> <VConfSearch Rank>
993

> <Conf_Id>
36

> <Delta U+W>
-0.427

> <U+W>
-57.331

> <U>
7.263

> <W>
-64.594

> <W(PB)>
-66.513

> <W(SA)>
1.920

> <Valence>
6.734

> <Coulomb>
-0.068

> <VdW>
0.598

> <VdW6>
-4.819

> <VdW12>
5.417

> <Bond>
0.107

> <Angle>
2.469

> <Pdih>
4.157

> <Idih>
0.001

> <Tether>
0.000

$$$$
VeraChem MOL file


 16 15  0  0  0  0  0  0  0  0999 V2000     
   18.0088   19.7469   20.4055 C   0  0  0  0  0  0  0  0  0  0  0  0
   18.3858   19.8285   19.2534 O   0  5  0  0  0  0  0  0  0  0  0  0
   16.9724   20.2356   20.8091 O   0  0  0  0  0  0  0  0  0  0  0  0
   18.8937   19.0083   21.4035 C   0  0  0  0  0  0  0  0  0  0  0  0
   19.4024   18.2003   20.8653 H   0  0  0  0  0  0  0  0  0  0  0  0
   18.2445   18.5411   22.1536 H   0  0  0  0  0  0  0  0  0  0  0  0
   19.9257   19.9372   22.0942 C   0  0  0  0  0  0  0  0  0  0  0  0
   20.5973   20.3658   21.3374 H   0  0  0  0  0  0  0  0  0  0  0  0
   19.3910   20.7823   22.5495 H   0  0  0  0  0  0  0  0  0  0  0  0
   20.7568   19.2279   23.1881 C   0  0  0  0  0  0  0  0  0  0  0  0
   20.0860   18.8093   23.9511 H   0  0  0  0  0  0  0  0  0  0  0  0
   21.3799   19.9752   23.6984 H   0  0  0  0  0  0  0  0  0  0  0  0
   21.6700   18.1142   22.6324 C   0  0  0  0  0  0  0  0  0  0  0  0
   21.0837   17.2876   22.2120 H   0  0  0  0  0  0  0  0  0  0  0  0
   22.3008   17.7017   23.4304 H   0  0  0  0  0  0  0  0  0  0  0  0
   22.3305   18.5033   21.8466 H   0  0  0  0  0  0  0  0  0  0  0  0
  1  2  1  0  0  0  0
  1  3  2  0  0  0  0
  1  4  1  0  0  0  0
  4  5  1  0  0  0  0
  4  6  1  0  0  0  0
  4  7  1  0  0  0  0
  7  8  1  0  0  0  0
  7  9  1  0  0  0  0
  7 10  1  0  0  0  0
 10 11  1  0  0  0  0
 10 12  1  0  0  0  0
 10 13  1  0  0  0  0
 13 14  1  0  0  0  0
 13 15  1  0  0  0  0
 13 16  1  0  0  0  0
M  END
> <VConfSearch Rank>
994

> <Conf_Id>
17

> <Delta U+W>
-0.432

> <U+W>
-57.336

> <U>
7.263

> <W>
-64.599

> <W(PB)>
-66.503

> <W(SA)>
1.904

> <Valence>
6.734

> <Coulomb>
-0.068

> <VdW>
0.598

> <VdW6>
-4.819

> <VdW12>
5.417

> <Bond>
0.107

> <Angle>
2.469

> <Pdih>
4.157

> <Idih>
0.001

> <Tether>
0.000

$$$$
VeraChem MOL file


 16 15  0  0  0  0  0  0  0  0999 V2000     
   22.0446   18.3565   23.2554 C   0  0  0  0  0  0  0  0  0  0  0  0
   21.8463   18.1605   24.4381 O   0  5  0  0  0  0  0  0  0  0  0  0
   22.5893   17.5536   22.5242 O   0  0  0  0  0  0  0  0  0  0  0  0
   21.6066   19.6937   22.6642 C   0  0  0  0  0  0  0  0  0  0  0  0
   22.1484   19.8558   21.7244 H   0  0  0  0  0  0  0  0  0  0  0  0
   21.9301   20.4803   23.3562 H   0  0  0  0  0  0  0  0  0  0  0  0
   20.0783   19.8099   22.4274 C   0  0  0  0  0  0  0  0  0  0  0  0
   19.5480   19.6171   23.3704 H   0  0  0  0  0  0  0  0  0  0  0  0
   19.8403   20.8419   22.1360 H   0  0  0  0  0  0  0  0  0  0  0  0
   19.5714   18.8432   21.3353 C   0  0  0  0  0  0  0  0  0  0  0  0
   19.7861   17.8053   21.6259 H   0  0  0  0  0  0  0  0  0  0  0  0
   20.1113   19.0287   20.3964 H   0  0  0  0  0  0  0  0  0  0  0  0
   18.0569   19.0028   21.0963 C   0  0  0  0  0  0  0  0  0  0  0  0
   17.4907   18.7923   22.0131 H   0  0  0  0  0  0  0  0  0  0  0  0
   17.7130   18.3086   20.3185 H   0  0  0  0  0  0  0  0  0  0  0  0
   17.8158   20.0232   20.7706 H   0  0  0  0  0  0  0  0  0  0  0  0
  1  2  1  0  0  0  0
  1  3  2  0  0  0  0
  1  4  1  0  0  0  0
  4  5  1  0  0  0  0
  4  6  1  0  0  0  0
  4  7  1  0  0  0  0
  7  8  1  0  0  0  0
  7  9  1  0  0  0  0
  7 10  1  0  0  0  0
 10 11  1  0  0  0  0
 10 12  1  0  0  0  0
 10 13  1  0  0  0  0
 13 14  1  0  0  0  0
 13 15  1  0  0  0  0
 13 16  1  0  0  0  0
M  END
> <VConfSearch Rank>
995

> <Conf_Id>
19

> <Delta U+W>
0.048

> <U+W>
-56.856

> <U>
8.276

> <W>
-65.132

> <W(PB)>
-67.031

> <W(SA)>
1.899

> <Valence>
6.513

> <Coulomb>
1.428

> <VdW>
0.335

> <VdW6>
-5.021

> <VdW12>
5.356

> <Bond>
0.092

> <Angle>
2.417

> <Pdih>
4.003

> <Idih>
0.001

> <Tether>
0.000

$$$$
VeraChem MOL file


 16 15  0  0  0  0  0  0  0  0999 V2000     
   20.6400   18.2725   24.1434 C   0  0  0  0  0  0  0  0  0  0  0  0
   19.7688   17.7414   24.8032 O   0  5  0  0  0  0  0  0  0  0  0  0
   21.4234   19.0839   24.5951 O   0  0  0  0  0  0  0  0  0  0  0  0
   20.7703   17.8801   22.6742 C   0  0  0  0  0  0  0  0  0  0  0  0
   20.7068   16.7869   22.6195 H   0  0  0  0  0  0  0  0  0  0  0  0
   21.7724   18.1573   22.3248 H   0  0  0  0  0  0  0  0  0  0  0  0
   19.6906   18.5073   21.7543 C   0  0  0  0  0  0  0  0  0  0  0  0
   19.7753   18.0649   20.7525 H   0  0  0  0  0  0  0  0  0  0  0  0
   18.6928   18.2450   22.1327 H   0  0  0  0  0  0  0  0  0  0  0  0
   19.8219   20.0419   21.6454 C   0  0  0  0  0  0  0  0  0  0  0  0
   20.8242   20.3031   21.2787 H   0  0  0  0  0  0  0  0  0  0  0  0
   19.7183   20.4975   22.6401 H   0  0  0  0  0  0  0  0  0  0  0  0
   18.7590   20.6354   20.6997 C   0  0  0  0  0  0  0  0  0  0  0  0
   18.8599   20.2236   19.6869 H   0  0  0  0  0  0  0  0  0  0  0  0
   18.8655   21.7261   20.6343 H   0  0  0  0  0  0  0  0  0  0  0  0
   17.7457   20.4148   21.0604 H   0  0  0  0  0  0  0  0  0  0  0  0
  1  2  1  0  0  0  0
  1  3  2  0  0  0  0
  1  4  1  0  0  0  0
  4  5  1  0  0  0  0
  4  6  1  0  0  0  0
  4  7  1  0  0  0  0
  7  8  1  0  0  0  0
  7  9  1  0  0  0  0
  7 10  1  0  0  0  0
 10 11  1  0  0  0  0
 10 12  1  0  0  0  0
 10 13  1  0  0  0  0
 13 14  1  0  0  0  0
 13 15  1  0  0  0  0
 13 16  1  0  0  0  0
M  END
> <VConfSearch Rank>
996

> <Conf_Id>
20

> <Delta U+W>
-0.010

> <U+W>
-56.914

> <U>
8.277

> <W>
-65.191

> <W(PB)>
-67.081

> <W(SA)>
1.890

> <Valence>
6.513

> <Coulomb>
1.429

> <VdW>
0.335

> <VdW6>
-5.021

> <VdW12>
5.356

> <Bond>
0.092

> <Angle>
2.417

> <Pdih>
4.002

> <Idih>
0.001

> <Tether>
0.000

$$$$
VeraChem MOL file


 16 15  0  0  0  0  0  0  0  0999 V2000     
   18.1679   20.0163   21.1660 C   0  0  0  0  0  0  0  0  0  0  0  0
   17.7001   21.1001   21.4547 O   0  5  0  0  0  0  0  0  0  0  0  0
   17.4935   19.0220   20.9847 O   0  0  0  0  0  0  0  0  0  0  0  0
   19.6802   19.9093   20.9889 C   0  0  0  0  0  0  0  0  0  0  0  0
   19.9865   20.7154   20.3121 H   0  0  0  0  0  0  0  0  0  0  0  0
   19.9086   18.9689   20.4744 H   0  0  0  0  0  0  0  0  0  0  0  0
   20.4848   20.0183   22.3131 C   0  0  0  0  0  0  0  0  0  0  0  0
   21.5588   20.0121   22.0834 H   0  0  0  0  0  0  0  0  0  0  0  0
   20.2742   20.9930   22.7746 H   0  0  0  0  0  0  0  0  0  0  0  0
   20.1775   18.9024   23.3399 C   0  0  0  0  0  0  0  0  0  0  0  0
   19.1111   18.9205   23.6047 H   0  0  0  0  0  0  0  0  0  0  0  0
   20.7295   19.1139   24.2660 H   0  0  0  0  0  0  0  0  0  0  0  0
   20.5628   17.4934   22.8412 C   0  0  0  0  0  0  0  0  0  0  0  0
   19.9444   17.1908   21.9865 H   0  0  0  0  0  0  0  0  0  0  0  0
   20.4151   16.7514   23.6364 H   0  0  0  0  0  0  0  0  0  0  0  0
   21.6167   17.4579   22.5361 H   0  0  0  0  0  0  0  0  0  0  0  0
  1  2  1  0  0  0  0
  1  3  2  0  0  0  0
  1  4  1  0  0  0  0
  4  5  1  0  0  0  0
  4  6  1  0  0  0  0
  4  7  1  0  0  0  0
  7  8  1  0  0  0  0
  7  9  1  0  0  0  0
  7 10  1  0  0  0  0
 10 11  1  0  0  0  0
 10 12  1  0  0  0  0
 10 13  1  0  0  0  0
 13 14  1  0  0  0  0
 13 15  1  0  0  0  0
 13 16  1  0  0  0  0
M  END
> <VConfSearch Rank>
997

> <Conf_Id>
37

> <Delta U+W>
1.063

> <U+W>
-55.841

> <U>
9.719

> <W>
-65.560

> <W(PB)>
-67.414

> <W(SA)>
1.854

> <Valence>
7.002

> <Coulomb>
2.402

> <VdW>
0.314

> <VdW6>
-5.861

> <VdW12>
6.175

> <Bond>
0.134

> <Angle>
2.733

> <Pdih>
4.133

> <Idih>
0.002

> <Tether>
0.000

$$$$
VeraChem MOL file


 16 15  0  0  0  0  0  0  0  0999 V2000     
   18.1166   18.7364   21.5607 C   0  0  0  0  0  0  0  0  0  0  0  0
   17.3408   19.6073   21.2196 O   0  5  0  0  0  0  0  0  0  0  0  0
   18.2718   17.6992   20.9472 O   0  0  0  0  0  0  0  0  0  0  0  0
   18.9114   18.9442   22.8471 C   0  0  0  0  0  0  0  0  0  0  0  0
   19.3413   17.9838   23.1542 H   0  0  0  0  0  0  0  0  0  0  0  0
   18.1972   19.2283   23.6288 H   0  0  0  0  0  0  0  0  0  0  0  0
   20.0167   20.0306   22.7434 C   0  0  0  0  0  0  0  0  0  0  0  0
   19.5457   20.9897   22.4875 H   0  0  0  0  0  0  0  0  0  0  0  0
   20.4799   20.1685   23.7297 H   0  0  0  0  0  0  0  0  0  0  0  0
   21.1189   19.7216   21.7023 C   0  0  0  0  0  0  0  0  0  0  0  0
   21.8013   20.5809   21.6460 H   0  0  0  0  0  0  0  0  0  0  0  0
   20.6720   19.6157   20.7040 H   0  0  0  0  0  0  0  0  0  0  0  0
   21.9374   18.4571   22.0394 C   0  0  0  0  0  0  0  0  0  0  0  0
   22.3662   18.5224   23.0479 H   0  0  0  0  0  0  0  0  0  0  0  0
   22.7636   18.3339   21.3274 H   0  0  0  0  0  0  0  0  0  0  0  0
   21.3156   17.5544   21.9852 H   0  0  0  0  0  0  0  0  0  0  0  0
  1  2  1  0  0  0  0
  1  3  2  0  0  0  0
  1  4  1  0  0  0  0
  4  5  1  0  0  0  0
  4  6  1  0  0  0  0
  4  7  1  0  0  0  0
  7  8  1  0  0  0  0
  7  9  1  0  0  0  0
  7 10  1  0  0  0  0
 10 11  1  0  0  0  0
 10 12  1  0  0  0  0
 10 13  1  0  0  0  0
 13 14  1  0  0  0  0
 13 15  1  0  0  0  0
 13 16  1  0  0  0  0
M  END
> <VConfSearch Rank>
998

> <Conf_Id>
39

> <Delta U+W>
1.129

> <U+W>
-55.775

> <U>
9.718

> <W>
-65.493

> <W(PB)>
-67.361

> <W(SA)>
1.869

> <Valence>
7.002

> <Coulomb>
2.402

> <VdW>
0.314

> <VdW6>
-5.861

> <VdW12>
6.175

> <Bond>
0.134

> <Angle>
2.734

> <Pdih>
4.133

> <Idih>
0.002

> <Tether>
0.000

$$$$
VeraChem MOL file


 16 15  0  0  0  0  0  0  0  0999 V2000     
   20.9863   18.5540   23.8574 C   0  0  0  0  0  0  0  0  0  0  0  0
   21.7795   17.6773   23.5763 O   0  5  0  0  0  0  0  0  0  0  0  0
   20.2583   18.5105   24.8297 O   0  0  0  0  0  0  0  0  0  0  0  0
   20.9689   19.8143   22.9943 C   0  0  0  0  0  0  0  0  0  0  0  0
   21.7350   19.7235   22.2146 H   0  0  0  0  0  0  0  0  0  0  0  0
   21.2811   20.6390   23.6456 H   0  0  0  0  0  0  0  0  0  0  0  0
   19.5941   20.1656   22.3590 C   0  0  0  0  0  0  0  0  0  0  0  0
   18.7967   20.0546   23.1069 H   0  0  0  0  0  0  0  0  0  0  0  0
   19.6082   21.2298   22.0874 H   0  0  0  0  0  0  0  0  0  0  0  0
   19.2445   19.3582   21.0856 C   0  0  0  0  0  0  0  0  0  0  0  0
   20.0450   19.4702   20.3414 H   0  0  0  0  0  0  0  0  0  0  0  0
   18.3417   19.7935   20.6354 H   0  0  0  0  0  0  0  0  0  0  0  0
   18.9859   17.8601   21.3483 C   0  0  0  0  0  0  0  0  0  0  0  0
   19.9062   17.3417   21.6438 H   0  0  0  0  0  0  0  0  0  0  0  0
   18.6086   17.3708   20.4410 H   0  0  0  0  0  0  0  0  0  0  0  0
   18.2413   17.7220   22.1431 H   0  0  0  0  0  0  0  0  0  0  0  0
  1  2  1  0  0  0  0
  1  3  2  0  0  0  0
  1  4  1  0  0  0  0
  4  5  1  0  0  0  0
  4  6  1  0  0  0  0
  4  7  1  0  0  0  0
  7  8  1  0  0  0  0
  7  9  1  0  0  0  0
  7 10  1  0  0  0  0
 10 11  1  0  0  0  0
 10 12  1  0  0  0  0
 10 13  1  0  0  0  0
 13 14  1  0  0  0  0
 13 15  1  0  0  0  0
 13 16  1  0  0  0  0
M  END
> <VConfSearch Rank>
999

> <Conf_Id>
47

> <Delta U+W>
2.301

> <U+W>
-54.603

> <U>
11.258

> <W>
-65.861

> <W(PB)>
-67.702

> <W(SA)>
1.841

> <Valence>
8.169

> <Coulomb>
2.735

> <VdW>
0.355

> <VdW6>
-6.245

> <VdW12>
6.600

> <Bond>
0.149

> <Angle>
3.168

> <Pdih>
4.840

> <Idih>
0.011

> <Tether>
0.000

$$$$
VeraChem MOL file


 16 15  0  0  0  0  0  0  0  0999 V2000     
   18.3034   17.9389   21.9051 C   0  0  0  0  0  0  0  0  0  0  0  0
   18.0221   17.3423   22.9259 O   0  5  0  0  0  0  0  0  0  0  0  0
   18.3961   17.4001   20.8198 O   0  0  0  0  0  0  0  0  0  0  0  0
   18.4602   19.4570   21.9722 C   0  0  0  0  0  0  0  0  0  0  0  0
   17.4919   19.8533   22.2993 H   0  0  0  0  0  0  0  0  0  0  0  0
   18.6310   19.8432   20.9599 H   0  0  0  0  0  0  0  0  0  0  0  0
   19.5669   19.9687   22.9368 C   0  0  0  0  0  0  0  0  0  0  0  0
   19.3491   21.0183   23.1761 H   0  0  0  0  0  0  0  0  0  0  0  0
   19.5144   19.4237   23.8896 H   0  0  0  0  0  0  0  0  0  0  0  0
   21.0039   19.9033   22.3656 C   0  0  0  0  0  0  0  0  0  0  0  0
   21.6763   20.4310   23.0561 H   0  0  0  0  0  0  0  0  0  0  0  0
   21.0517   20.4476   21.4124 H   0  0  0  0  0  0  0  0  0  0  0  0
   21.5329   18.4672   22.1703 C   0  0  0  0  0  0  0  0  0  0  0  0
   22.5963   18.4834   21.8989 H   0  0  0  0  0  0  0  0  0  0  0  0
   20.9954   17.9495   21.3666 H   0  0  0  0  0  0  0  0  0  0  0  0
   21.4265   17.8793   23.0914 H   0  0  0  0  0  0  0  0  0  0  0  0
  1  2  1  0  0  0  0
  1  3  2  0  0  0  0
  1  4  1  0  0  0  0
  4  5  1  0  0  0  0
  4  6  1  0  0  0  0
  4  7  1  0  0  0  0
  7  8  1  0  0  0  0
  7  9  1  0  0  0  0
  7 10  1  0  0  0  0
 10 11  1  0  0  0  0
 10 12  1  0  0  0  0
 10 13  1  0  0  0  0
 13 14  1  0  0  0  0
 13 15  1  0  0  0  0
 13 16  1  0  0  0  0
M  END
> <VConfSearch Rank>
1000

> <Conf_Id>
45

> <Delta U+W>
2.303

> <U+W>
-54.601

> <U>
11.258

> <W>
-65.860

> <W(PB)>
-67.709

> <W(SA)>
1.849

> <Valence>
8.169

> <Coulomb>
2.735

> <VdW>
0.355

> <VdW6>
-6.245

> <VdW12>
6.600

> <Bond>
0.149

> <Angle>
3.168

> <Pdih>
4.840

> <Idih>
0.011

> <Tether>
0.000

$$$$
