@<TRIPOS>MOLECULE
guest-s18_confgen4.mol2 : confsearch ligand conformer 1
          16          15           1
SMALL
USER_CHARGES
 
@<TRIPOS>ATOM
       1    C1      20.018486   19.390735   24.674922 C.2        1 MOL1         0.6075
       2    O1      20.132410   20.600795   24.651437 O.co2      1 MOL1        -0.6830
       3    O2      19.956865   18.751279   25.705752 O.co2      1 MOL1        -0.6830
       4    C2      19.947006   18.608274   23.362466 C.3        1 MOL1        -0.2050
       5    H1      19.008191   18.041940   23.369825 H          1 MOL1         0.0710
       6    H2      20.763197   17.876233   23.373020 H          1 MOL1         0.0710
       7    C3      20.030426   19.466857   22.072419 C.3        1 MOL1        -0.1947
       8    H3      19.213593   20.201873   22.070107 H          1 MOL1         0.0712
       9    H4      20.970409   20.035978   22.073301 H          1 MOL1         0.0712
      10    C4      19.950724   18.598394   20.799360 C.3        1 MOL1        -0.1921
      11    H5      19.010281   18.030011   20.796374 H          1 MOL1         0.0712
      12    H6      20.768147   17.864010   20.799560 H          1 MOL1         0.0712
      13    C5      20.034085   19.456667   19.521644 C.3        1 MOL1        -0.2936
      14    H7      19.209151   20.180001   19.479924 H          1 MOL1         0.0724
      15    H8      19.975975   18.824157   18.626269 H          1 MOL1         0.0724
      16    H9      20.979984   20.012778   19.483127 H          1 MOL1         0.0724
@<TRIPOS>BOND
    1     1     2    1
    2     1     3    2
    3     1     4    1
    4     4     5    1
    5     4     6    1
    6     4     7    1
    7     7     8    1
    8     7     9    1
    9     7    10    1
   10    10    11    1
   11    10    12    1
   12    10    13    1
   13    13    14    1
   14    13    15    1
   15    13    16    1
@<TRIPOS>SUBSTRUCTURE
       1 MOL1            1 RESIDUE      1      MOL     
@<SCITEGIC>MOL_PROPERTY
VConf Rank
SciTegic.value.IntegerValue
1

@<SCITEGIC>MOL_PROPERTY
Conf_Id
SciTegic.value.IntegerValue
0

@<SCITEGIC>MOL_PROPERTY
Delta U+W
SciTegic.value.DoubleValue
0.000

@<SCITEGIC>MOL_PROPERTY
U+W
SciTegic.value.DoubleValue
-56.904

@<SCITEGIC>MOL_PROPERTY
Grad RMS
SciTegic.value.DoubleValue
0.000000

@<SCITEGIC>MOL_PROPERTY
U
SciTegic.value.DoubleValue
7.329

@<SCITEGIC>MOL_PROPERTY
W
SciTegic.value.DoubleValue
-64.233

@<SCITEGIC>MOL_PROPERTY
W(PB)
SciTegic.value.DoubleValue
-66.148

@<SCITEGIC>MOL_PROPERTY
W(SA)
SciTegic.value.DoubleValue
1.915

@<SCITEGIC>MOL_PROPERTY
Valence
SciTegic.value.DoubleValue
6.755

@<SCITEGIC>MOL_PROPERTY
Coulomb
SciTegic.value.DoubleValue
-0.421

@<SCITEGIC>MOL_PROPERTY
VdW
SciTegic.value.DoubleValue
0.995

@<SCITEGIC>MOL_PROPERTY
VdW6
SciTegic.value.DoubleValue
-4.495

@<SCITEGIC>MOL_PROPERTY
VdW12
SciTegic.value.DoubleValue
5.490

@<SCITEGIC>MOL_PROPERTY
Bond
SciTegic.value.DoubleValue
0.106

@<SCITEGIC>MOL_PROPERTY
Angle
SciTegic.value.DoubleValue
2.715

@<SCITEGIC>MOL_PROPERTY
Pdih
SciTegic.value.DoubleValue
3.934

@<SCITEGIC>MOL_PROPERTY
Idih
SciTegic.value.DoubleValue
0.000

@<SCITEGIC>MOL_PROPERTY
Tether
SciTegic.value.DoubleValue
0.000

@<TRIPOS>MOLECULE
guest-s18_confgen4.mol2 : confsearch ligand conformer 2
          16          15           1
SMALL
USER_CHARGES
 
@<TRIPOS>ATOM
       1    C1      20.069991   19.432824   24.656648 C.2        1 MOL1         0.6075
       2    O1      20.465994   20.515253   25.040540 O.co2      1 MOL1        -0.6830
       3    O2      19.248891   18.766828   25.255051 O.co2      1 MOL1        -0.6830
       4    C2      20.620044   18.888743   23.342875 C.3        1 MOL1        -0.2050
       5    H1      20.651435   17.794711   23.413293 H          1 MOL1         0.0710
       6    H2      21.654804   19.236279   23.236377 H          1 MOL1         0.0710
       7    C3      19.782708   19.320727   22.113924 C.3        1 MOL1        -0.1947
       8    H3      18.746952   18.976371   22.241128 H          1 MOL1         0.0712
       9    H4      19.750305   20.418011   22.064238 H          1 MOL1         0.0712
      10    C4      20.360320   18.757350   20.798808 C.3        1 MOL1        -0.1921
      11    H5      20.392250   17.660029   20.847837 H          1 MOL1         0.0712
      12    H6      21.395883   19.102012   20.670919 H          1 MOL1         0.0712
      13    C5      19.522052   19.191275   19.580154 C.3        1 MOL1        -0.2936
      14    H7      19.499056   20.285152   19.488633 H          1 MOL1         0.0724
      15    H8      18.488002   18.832537   19.666870 H          1 MOL1         0.0724
      16    H9      19.946056   18.782490   18.653728 H          1 MOL1         0.0724
@<TRIPOS>BOND
    1     1     2    1
    2     1     3    2
    3     1     4    1
    4     4     5    1
    5     4     6    1
    6     4     7    1
    7     7     8    1
    8     7     9    1
    9     7    10    1
   10    10    11    1
   11    10    12    1
   12    10    13    1
   13    13    14    1
   14    13    15    1
   15    13    16    1
@<TRIPOS>SUBSTRUCTURE
       1 MOL1            1 RESIDUE      1      MOL     
@<SCITEGIC>MOL_PROPERTY
VConf Rank
SciTegic.value.IntegerValue
2

@<SCITEGIC>MOL_PROPERTY
Conf_Id
SciTegic.value.IntegerValue
22

@<SCITEGIC>MOL_PROPERTY
Delta U+W
SciTegic.value.DoubleValue
-1.185

@<SCITEGIC>MOL_PROPERTY
U+W
SciTegic.value.DoubleValue
-58.089

@<SCITEGIC>MOL_PROPERTY
Grad RMS
SciTegic.value.DoubleValue
0.000000

@<SCITEGIC>MOL_PROPERTY
U
SciTegic.value.DoubleValue
6.298

@<SCITEGIC>MOL_PROPERTY
W
SciTegic.value.DoubleValue
-64.387

@<SCITEGIC>MOL_PROPERTY
W(PB)
SciTegic.value.DoubleValue
-66.329

@<SCITEGIC>MOL_PROPERTY
W(SA)
SciTegic.value.DoubleValue
1.942

@<SCITEGIC>MOL_PROPERTY
Valence
SciTegic.value.DoubleValue
6.246

@<SCITEGIC>MOL_PROPERTY
Coulomb
SciTegic.value.DoubleValue
-0.408

@<SCITEGIC>MOL_PROPERTY
VdW
SciTegic.value.DoubleValue
0.460

@<SCITEGIC>MOL_PROPERTY
VdW6
SciTegic.value.DoubleValue
-4.207

@<SCITEGIC>MOL_PROPERTY
VdW12
SciTegic.value.DoubleValue
4.667

@<SCITEGIC>MOL_PROPERTY
Bond
SciTegic.value.DoubleValue
0.072

@<SCITEGIC>MOL_PROPERTY
Angle
SciTegic.value.DoubleValue
2.246

@<SCITEGIC>MOL_PROPERTY
Pdih
SciTegic.value.DoubleValue
3.928

@<SCITEGIC>MOL_PROPERTY
Idih
SciTegic.value.DoubleValue
0.001

@<SCITEGIC>MOL_PROPERTY
Tether
SciTegic.value.DoubleValue
0.000

@<TRIPOS>MOLECULE
guest-s18_confgen4.mol2 : confsearch ligand conformer 3
          16          15           1
SMALL
USER_CHARGES
 
@<TRIPOS>ATOM
       1    C1      19.899632   19.420361   24.561755 C.2        1 MOL1         0.6075
       2    O1      20.024536   20.500484   25.103721 O.co2      1 MOL1        -0.6830
       3    O2      20.099253   18.360940   25.121877 O.co2      1 MOL1        -0.6830
       4    C2      19.489625   19.394109   23.093498 C.3        1 MOL1        -0.2050
       5    H1      18.836559   20.255066   22.906889 H          1 MOL1         0.0710
       6    H2      18.891345   18.490631   22.929466 H          1 MOL1         0.0710
       7    C3      20.704073   19.425933   22.129603 C.3        1 MOL1        -0.1947
       8    H3      21.328963   20.295149   22.377401 H          1 MOL1         0.0712
       9    H4      21.327988   18.537029   22.296600 H          1 MOL1         0.0712
      10    C4      20.304208   19.510611   20.638514 C.3        1 MOL1        -0.1921
      11    H5      21.213813   19.639175   20.035687 H          1 MOL1         0.0712
      12    H6      19.690045   20.405853   20.469026 H          1 MOL1         0.0712
      13    C5      19.548673   18.260563   20.139033 C.3        1 MOL1        -0.2936
      14    H7      18.576091   18.154864   20.635715 H          1 MOL1         0.0724
      15    H8      20.131633   17.348958   20.324460 H          1 MOL1         0.0724
      16    H9      19.364279   18.329847   19.059122 H          1 MOL1         0.0724
@<TRIPOS>BOND
    1     1     2    1
    2     1     3    2
    3     1     4    1
    4     4     5    1
    5     4     6    1
    6     4     7    1
    7     7     8    1
    8     7     9    1
    9     7    10    1
   10    10    11    1
   11    10    12    1
   12    10    13    1
   13    13    14    1
   14    13    15    1
   15    13    16    1
@<TRIPOS>SUBSTRUCTURE
       1 MOL1            1 RESIDUE      1      MOL     
@<SCITEGIC>MOL_PROPERTY
VConf Rank
SciTegic.value.IntegerValue
3

@<SCITEGIC>MOL_PROPERTY
Conf_Id
SciTegic.value.IntegerValue
36

@<SCITEGIC>MOL_PROPERTY
Delta U+W
SciTegic.value.DoubleValue
-0.427

@<SCITEGIC>MOL_PROPERTY
U+W
SciTegic.value.DoubleValue
-57.331

@<SCITEGIC>MOL_PROPERTY
Grad RMS
SciTegic.value.DoubleValue
0.000000

@<SCITEGIC>MOL_PROPERTY
U
SciTegic.value.DoubleValue
7.263

@<SCITEGIC>MOL_PROPERTY
W
SciTegic.value.DoubleValue
-64.594

@<SCITEGIC>MOL_PROPERTY
W(PB)
SciTegic.value.DoubleValue
-66.513

@<SCITEGIC>MOL_PROPERTY
W(SA)
SciTegic.value.DoubleValue
1.920

@<SCITEGIC>MOL_PROPERTY
Valence
SciTegic.value.DoubleValue
6.734

@<SCITEGIC>MOL_PROPERTY
Coulomb
SciTegic.value.DoubleValue
-0.068

@<SCITEGIC>MOL_PROPERTY
VdW
SciTegic.value.DoubleValue
0.598

@<SCITEGIC>MOL_PROPERTY
VdW6
SciTegic.value.DoubleValue
-4.819

@<SCITEGIC>MOL_PROPERTY
VdW12
SciTegic.value.DoubleValue
5.417

@<SCITEGIC>MOL_PROPERTY
Bond
SciTegic.value.DoubleValue
0.107

@<SCITEGIC>MOL_PROPERTY
Angle
SciTegic.value.DoubleValue
2.469

@<SCITEGIC>MOL_PROPERTY
Pdih
SciTegic.value.DoubleValue
4.157

@<SCITEGIC>MOL_PROPERTY
Idih
SciTegic.value.DoubleValue
0.001

@<SCITEGIC>MOL_PROPERTY
Tether
SciTegic.value.DoubleValue
0.000

@<TRIPOS>MOLECULE
guest-s18_confgen4.mol2 : confsearch ligand conformer 4
          16          15           1
SMALL
USER_CHARGES
 
@<TRIPOS>ATOM
       1    C1      19.899227   19.513577   24.550013 C.2        1 MOL1         0.6075
       2    O1      20.085094   20.681273   24.829116 O.co2      1 MOL1        -0.6830
       3    O2      20.036493   18.603525   25.343082 O.co2      1 MOL1        -0.6830
       4    C2      19.491080   19.169324   23.121910 C.3        1 MOL1        -0.2050
       5    H1      18.881833   19.996263   22.739673 H          1 MOL1         0.0710
       6    H2      18.849063   18.280944   23.156020 H          1 MOL1         0.0710
       7    C3      20.707238   18.914249   22.194067 C.3        1 MOL1        -0.1947
       8    H3      21.319736   19.824494   22.133986 H          1 MOL1         0.0712
       9    H4      21.342597   18.141688   22.648928 H          1 MOL1         0.0712
      10    C4      20.310622   18.456882   20.771422 C.3        1 MOL1        -0.1921
      11    H5      19.707937   17.540016   20.830664 H          1 MOL1         0.0712
      12    H6      21.222629   18.193956   20.217870 H          1 MOL1         0.0712
      13    C5      19.540245   19.534171   19.978390 C.3        1 MOL1        -0.2936
      14    H7      18.565741   19.747863   20.434963 H          1 MOL1         0.0724
      15    H8      19.358208   19.196486   18.949877 H          1 MOL1         0.0724
      16    H9      20.111544   20.470426   19.930499 H          1 MOL1         0.0724
@<TRIPOS>BOND
    1     1     2    1
    2     1     3    2
    3     1     4    1
    4     4     5    1
    5     4     6    1
    6     4     7    1
    7     7     8    1
    8     7     9    1
    9     7    10    1
   10    10    11    1
   11    10    12    1
   12    10    13    1
   13    13    14    1
   14    13    15    1
   15    13    16    1
@<TRIPOS>SUBSTRUCTURE
       1 MOL1            1 RESIDUE      1      MOL     
@<SCITEGIC>MOL_PROPERTY
VConf Rank
SciTegic.value.IntegerValue
4

@<SCITEGIC>MOL_PROPERTY
Conf_Id
SciTegic.value.IntegerValue
17

@<SCITEGIC>MOL_PROPERTY
Delta U+W
SciTegic.value.DoubleValue
-0.432

@<SCITEGIC>MOL_PROPERTY
U+W
SciTegic.value.DoubleValue
-57.336

@<SCITEGIC>MOL_PROPERTY
Grad RMS
SciTegic.value.DoubleValue
0.000000

@<SCITEGIC>MOL_PROPERTY
U
SciTegic.value.DoubleValue
7.263

@<SCITEGIC>MOL_PROPERTY
W
SciTegic.value.DoubleValue
-64.599

@<SCITEGIC>MOL_PROPERTY
W(PB)
SciTegic.value.DoubleValue
-66.503

@<SCITEGIC>MOL_PROPERTY
W(SA)
SciTegic.value.DoubleValue
1.904

@<SCITEGIC>MOL_PROPERTY
Valence
SciTegic.value.DoubleValue
6.734

@<SCITEGIC>MOL_PROPERTY
Coulomb
SciTegic.value.DoubleValue
-0.068

@<SCITEGIC>MOL_PROPERTY
VdW
SciTegic.value.DoubleValue
0.598

@<SCITEGIC>MOL_PROPERTY
VdW6
SciTegic.value.DoubleValue
-4.819

@<SCITEGIC>MOL_PROPERTY
VdW12
SciTegic.value.DoubleValue
5.417

@<SCITEGIC>MOL_PROPERTY
Bond
SciTegic.value.DoubleValue
0.107

@<SCITEGIC>MOL_PROPERTY
Angle
SciTegic.value.DoubleValue
2.469

@<SCITEGIC>MOL_PROPERTY
Pdih
SciTegic.value.DoubleValue
4.157

@<SCITEGIC>MOL_PROPERTY
Idih
SciTegic.value.DoubleValue
0.001

@<SCITEGIC>MOL_PROPERTY
Tether
SciTegic.value.DoubleValue
0.000

@<TRIPOS>MOLECULE
guest-s18_confgen4.mol2 : confsearch ligand conformer 5
          16          15           1
SMALL
USER_CHARGES
 
@<TRIPOS>ATOM
       1    C1      19.980115   19.408901   24.437539 C.2        1 MOL1         0.6075
       2    O1      20.083395   20.563768   24.800798 O.co2      1 MOL1        -0.6830
       3    O2      19.096355   18.664025   24.812224 O.co2      1 MOL1        -0.6830
       4    C2      21.031914   18.859477   23.477672 C.3        1 MOL1        -0.2050
       5    H1      21.010713   17.763815   23.524131 H          1 MOL1         0.0710
       6    H2      22.013576   19.173617   23.851690 H          1 MOL1         0.0710
       7    C3      20.860417   19.336044   22.011893 C.3        1 MOL1        -0.1947
       8    H3      20.854890   20.434606   21.984416 H          1 MOL1         0.0712
       9    H4      21.730827   19.009517   21.426806 H          1 MOL1         0.0712
      10    C4      19.573261   18.790068   21.356668 C.3        1 MOL1        -0.1921
      11    H5      18.693662   19.127740   21.922360 H          1 MOL1         0.0712
      12    H6      19.574426   17.691967   21.396019 H          1 MOL1         0.0712
      13    C5      19.444542   19.250716   19.891205 C.3        1 MOL1        -0.2936
      14    H7      19.409928   20.346149   19.825798 H          1 MOL1         0.0724
      15    H8      18.524834   18.855045   19.440985 H          1 MOL1         0.0724
      16    H9      20.294246   18.897825   19.292135 H          1 MOL1         0.0724
@<TRIPOS>BOND
    1     1     2    1
    2     1     3    2
    3     1     4    1
    4     4     5    1
    5     4     6    1
    6     4     7    1
    7     7     8    1
    8     7     9    1
    9     7    10    1
   10    10    11    1
   11    10    12    1
   12    10    13    1
   13    13    14    1
   14    13    15    1
   15    13    16    1
@<TRIPOS>SUBSTRUCTURE
       1 MOL1            1 RESIDUE      1      MOL     
@<SCITEGIC>MOL_PROPERTY
VConf Rank
SciTegic.value.IntegerValue
5

@<SCITEGIC>MOL_PROPERTY
Conf_Id
SciTegic.value.IntegerValue
19

@<SCITEGIC>MOL_PROPERTY
Delta U+W
SciTegic.value.DoubleValue
0.048

@<SCITEGIC>MOL_PROPERTY
U+W
SciTegic.value.DoubleValue
-56.856

@<SCITEGIC>MOL_PROPERTY
Grad RMS
SciTegic.value.DoubleValue
0.000000

@<SCITEGIC>MOL_PROPERTY
U
SciTegic.value.DoubleValue
8.276

@<SCITEGIC>MOL_PROPERTY
W
SciTegic.value.DoubleValue
-65.132

@<SCITEGIC>MOL_PROPERTY
W(PB)
SciTegic.value.DoubleValue
-67.031

@<SCITEGIC>MOL_PROPERTY
W(SA)
SciTegic.value.DoubleValue
1.899

@<SCITEGIC>MOL_PROPERTY
Valence
SciTegic.value.DoubleValue
6.513

@<SCITEGIC>MOL_PROPERTY
Coulomb
SciTegic.value.DoubleValue
1.428

@<SCITEGIC>MOL_PROPERTY
VdW
SciTegic.value.DoubleValue
0.335

@<SCITEGIC>MOL_PROPERTY
VdW6
SciTegic.value.DoubleValue
-5.021

@<SCITEGIC>MOL_PROPERTY
VdW12
SciTegic.value.DoubleValue
5.356

@<SCITEGIC>MOL_PROPERTY
Bond
SciTegic.value.DoubleValue
0.092

@<SCITEGIC>MOL_PROPERTY
Angle
SciTegic.value.DoubleValue
2.417

@<SCITEGIC>MOL_PROPERTY
Pdih
SciTegic.value.DoubleValue
4.003

@<SCITEGIC>MOL_PROPERTY
Idih
SciTegic.value.DoubleValue
0.001

@<SCITEGIC>MOL_PROPERTY
Tether
SciTegic.value.DoubleValue
0.000

@<TRIPOS>MOLECULE
guest-s18_confgen4.mol2 : confsearch ligand conformer 6
          16          15           1
SMALL
USER_CHARGES
 
@<TRIPOS>ATOM
       1    C1      20.060462   19.401313   24.437741 C.2        1 MOL1         0.6075
       2    O1      20.173150   20.555360   24.800807 O.co2      1 MOL1        -0.6830
       3    O2      20.788674   18.504915   24.815153 O.co2      1 MOL1        -0.6830
       4    C2      18.928088   19.057259   23.473970 C.3        1 MOL1        -0.2050
       5    H1      18.020882   19.549026   23.844615 H          1 MOL1         0.0710
       6    H2      18.744498   17.976867   23.520161 H          1 MOL1         0.0710
       7    C3      19.190589   19.493003   22.008957 C.3        1 MOL1        -0.1947
       8    H3      18.276650   19.334216   21.420688 H          1 MOL1         0.0712
       9    H4      19.400856   20.571277   21.981858 H          1 MOL1         0.0712
      10    C4      20.355754   18.716494   21.358099 C.3        1 MOL1        -0.1921
      11    H5      20.149810   17.637862   21.397037 H          1 MOL1         0.0712
      12    H6      21.280859   18.884481   21.927031 H          1 MOL1         0.0712
      13    C5      20.573282   19.144656   19.893274 C.3        1 MOL1        -0.2936
      14    H7      19.674851   18.956093   19.291045 H          1 MOL1         0.0724
      15    H8      21.404762   18.584417   19.446183 H          1 MOL1         0.0724
      16    H9      20.811631   20.214438   19.828402 H          1 MOL1         0.0724
@<TRIPOS>BOND
    1     1     2    1
    2     1     3    2
    3     1     4    1
    4     4     5    1
    5     4     6    1
    6     4     7    1
    7     7     8    1
    8     7     9    1
    9     7    10    1
   10    10    11    1
   11    10    12    1
   12    10    13    1
   13    13    14    1
   14    13    15    1
   15    13    16    1
@<TRIPOS>SUBSTRUCTURE
       1 MOL1            1 RESIDUE      1      MOL     
@<SCITEGIC>MOL_PROPERTY
VConf Rank
SciTegic.value.IntegerValue
6

@<SCITEGIC>MOL_PROPERTY
Conf_Id
SciTegic.value.IntegerValue
20

@<SCITEGIC>MOL_PROPERTY
Delta U+W
SciTegic.value.DoubleValue
-0.010

@<SCITEGIC>MOL_PROPERTY
U+W
SciTegic.value.DoubleValue
-56.914

@<SCITEGIC>MOL_PROPERTY
Grad RMS
SciTegic.value.DoubleValue
0.000000

@<SCITEGIC>MOL_PROPERTY
U
SciTegic.value.DoubleValue
8.277

@<SCITEGIC>MOL_PROPERTY
W
SciTegic.value.DoubleValue
-65.191

@<SCITEGIC>MOL_PROPERTY
W(PB)
SciTegic.value.DoubleValue
-67.081

@<SCITEGIC>MOL_PROPERTY
W(SA)
SciTegic.value.DoubleValue
1.890

@<SCITEGIC>MOL_PROPERTY
Valence
SciTegic.value.DoubleValue
6.513

@<SCITEGIC>MOL_PROPERTY
Coulomb
SciTegic.value.DoubleValue
1.429

@<SCITEGIC>MOL_PROPERTY
VdW
SciTegic.value.DoubleValue
0.335

@<SCITEGIC>MOL_PROPERTY
VdW6
SciTegic.value.DoubleValue
-5.021

@<SCITEGIC>MOL_PROPERTY
VdW12
SciTegic.value.DoubleValue
5.356

@<SCITEGIC>MOL_PROPERTY
Bond
SciTegic.value.DoubleValue
0.092

@<SCITEGIC>MOL_PROPERTY
Angle
SciTegic.value.DoubleValue
2.417

@<SCITEGIC>MOL_PROPERTY
Pdih
SciTegic.value.DoubleValue
4.002

@<SCITEGIC>MOL_PROPERTY
Idih
SciTegic.value.DoubleValue
0.001

@<SCITEGIC>MOL_PROPERTY
Tether
SciTegic.value.DoubleValue
0.000

@<TRIPOS>MOLECULE
guest-s18_confgen4.mol2 : confsearch ligand conformer 7
          16          15           1
SMALL
USER_CHARGES
 
@<TRIPOS>ATOM
       1    C1      20.051451   19.322838   24.307284 C.2        1 MOL1         0.6075
       2    O1      20.189226   20.383405   24.884347 O.co2      1 MOL1        -0.6830
       3    O2      20.722212   18.338135   24.545484 O.co2      1 MOL1        -0.6830
       4    C2      18.954183   19.215063   23.251758 C.3        1 MOL1        -0.2050
       5    H1      18.029803   19.593811   23.703369 H          1 MOL1         0.0710
       6    H2      18.780255   18.155520   23.031837 H          1 MOL1         0.0710
       7    C3      19.247657   20.004185   21.946447 C.3        1 MOL1        -0.1947
       8    H3      18.376308   19.936681   21.281191 H          1 MOL1         0.0712
       9    H4      19.363067   21.068072   22.195804 H          1 MOL1         0.0712
      10    C4      20.507853   19.530000   21.184183 C.3        1 MOL1        -0.1921
      11    H5      21.393131   19.625532   21.828197 H          1 MOL1         0.0712
      12    H6      20.674556   20.198645   20.328466 H          1 MOL1         0.0712
      13    C5      20.397419   18.079374   20.668497 C.3        1 MOL1        -0.2936
      14    H7      20.353211   17.363846   21.499492 H          1 MOL1         0.0724
      15    H8      21.271321   17.822491   20.055989 H          1 MOL1         0.0724
      16    H9      19.499948   17.948150   20.050118 H          1 MOL1         0.0724
@<TRIPOS>BOND
    1     1     2    1
    2     1     3    2
    3     1     4    1
    4     4     5    1
    5     4     6    1
    6     4     7    1
    7     7     8    1
    8     7     9    1
    9     7    10    1
   10    10    11    1
   11    10    12    1
   12    10    13    1
   13    13    14    1
   14    13    15    1
   15    13    16    1
@<TRIPOS>SUBSTRUCTURE
       1 MOL1            1 RESIDUE      1      MOL     
@<SCITEGIC>MOL_PROPERTY
VConf Rank
SciTegic.value.IntegerValue
7

@<SCITEGIC>MOL_PROPERTY
Conf_Id
SciTegic.value.IntegerValue
37

@<SCITEGIC>MOL_PROPERTY
Delta U+W
SciTegic.value.DoubleValue
1.063

@<SCITEGIC>MOL_PROPERTY
U+W
SciTegic.value.DoubleValue
-55.841

@<SCITEGIC>MOL_PROPERTY
Grad RMS
SciTegic.value.DoubleValue
0.000000

@<SCITEGIC>MOL_PROPERTY
U
SciTegic.value.DoubleValue
9.719

@<SCITEGIC>MOL_PROPERTY
W
SciTegic.value.DoubleValue
-65.560

@<SCITEGIC>MOL_PROPERTY
W(PB)
SciTegic.value.DoubleValue
-67.414

@<SCITEGIC>MOL_PROPERTY
W(SA)
SciTegic.value.DoubleValue
1.854

@<SCITEGIC>MOL_PROPERTY
Valence
SciTegic.value.DoubleValue
7.002

@<SCITEGIC>MOL_PROPERTY
Coulomb
SciTegic.value.DoubleValue
2.402

@<SCITEGIC>MOL_PROPERTY
VdW
SciTegic.value.DoubleValue
0.314

@<SCITEGIC>MOL_PROPERTY
VdW6
SciTegic.value.DoubleValue
-5.861

@<SCITEGIC>MOL_PROPERTY
VdW12
SciTegic.value.DoubleValue
6.175

@<SCITEGIC>MOL_PROPERTY
Bond
SciTegic.value.DoubleValue
0.134

@<SCITEGIC>MOL_PROPERTY
Angle
SciTegic.value.DoubleValue
2.733

@<SCITEGIC>MOL_PROPERTY
Pdih
SciTegic.value.DoubleValue
4.133

@<SCITEGIC>MOL_PROPERTY
Idih
SciTegic.value.DoubleValue
0.002

@<SCITEGIC>MOL_PROPERTY
Tether
SciTegic.value.DoubleValue
0.000

@<TRIPOS>MOLECULE
guest-s18_confgen4.mol2 : confsearch ligand conformer 8
          16          15           1
SMALL
USER_CHARGES
 
@<TRIPOS>ATOM
       1    C1      19.974812   19.330074   24.307063 C.2        1 MOL1         0.6075
       2    O1      20.034807   20.397941   24.883990 O.co2      1 MOL1        -0.6830
       3    O2      19.131914   18.487328   24.542865 O.co2      1 MOL1        -0.6830
       4    C2      21.036600   19.019585   23.255421 C.3        1 MOL1        -0.2050
       5    H1      21.011084   17.946103   23.035798 H          1 MOL1         0.0710
       6    H2      22.013708   19.219851   23.710431 H          1 MOL1         0.0710
       7    C3      20.899750   19.849058   21.949310 C.3        1 MOL1        -0.1947
       8    H3      20.983577   20.915923   22.198559 H          1 MOL1         0.0712
       9    H4      21.745614   19.620245   21.287093 H          1 MOL1         0.0712
      10    C4      19.575974   19.617522   21.182499 C.3        1 MOL1        -0.1921
      11    H5      19.539700   20.305159   20.326363 H          1 MOL1         0.0712
      12    H6      18.721720   19.876509   21.823416 H          1 MOL1         0.0712
      13    C5      19.416143   18.171492   20.666853 C.3        1 MOL1        -0.2936
      14    H7      20.275609   17.875201   20.051552 H          1 MOL1         0.0724
      15    H8      18.511807   18.081571   20.051262 H          1 MOL1         0.0724
      16    H9      19.323479   17.460587   21.497825 H          1 MOL1         0.0724
@<TRIPOS>BOND
    1     1     2    1
    2     1     3    2
    3     1     4    1
    4     4     5    1
    5     4     6    1
    6     4     7    1
    7     7     8    1
    8     7     9    1
    9     7    10    1
   10    10    11    1
   11    10    12    1
   12    10    13    1
   13    13    14    1
   14    13    15    1
   15    13    16    1
@<TRIPOS>SUBSTRUCTURE
       1 MOL1            1 RESIDUE      1      MOL     
@<SCITEGIC>MOL_PROPERTY
VConf Rank
SciTegic.value.IntegerValue
8

@<SCITEGIC>MOL_PROPERTY
Conf_Id
SciTegic.value.IntegerValue
39

@<SCITEGIC>MOL_PROPERTY
Delta U+W
SciTegic.value.DoubleValue
1.129

@<SCITEGIC>MOL_PROPERTY
U+W
SciTegic.value.DoubleValue
-55.775

@<SCITEGIC>MOL_PROPERTY
Grad RMS
SciTegic.value.DoubleValue
0.000000

@<SCITEGIC>MOL_PROPERTY
U
SciTegic.value.DoubleValue
9.718

@<SCITEGIC>MOL_PROPERTY
W
SciTegic.value.DoubleValue
-65.493

@<SCITEGIC>MOL_PROPERTY
W(PB)
SciTegic.value.DoubleValue
-67.361

@<SCITEGIC>MOL_PROPERTY
W(SA)
SciTegic.value.DoubleValue
1.869

@<SCITEGIC>MOL_PROPERTY
Valence
SciTegic.value.DoubleValue
7.002

@<SCITEGIC>MOL_PROPERTY
Coulomb
SciTegic.value.DoubleValue
2.402

@<SCITEGIC>MOL_PROPERTY
VdW
SciTegic.value.DoubleValue
0.314

@<SCITEGIC>MOL_PROPERTY
VdW6
SciTegic.value.DoubleValue
-5.861

@<SCITEGIC>MOL_PROPERTY
VdW12
SciTegic.value.DoubleValue
6.175

@<SCITEGIC>MOL_PROPERTY
Bond
SciTegic.value.DoubleValue
0.134

@<SCITEGIC>MOL_PROPERTY
Angle
SciTegic.value.DoubleValue
2.734

@<SCITEGIC>MOL_PROPERTY
Pdih
SciTegic.value.DoubleValue
4.133

@<SCITEGIC>MOL_PROPERTY
Idih
SciTegic.value.DoubleValue
0.002

@<SCITEGIC>MOL_PROPERTY
Tether
SciTegic.value.DoubleValue
0.000

@<TRIPOS>MOLECULE
guest-s18_confgen4.mol2 : confsearch ligand conformer 9
          16          15           1
SMALL
USER_CHARGES
 
@<TRIPOS>ATOM
       1    C1      20.053472   19.565603   24.198618 C.2        1 MOL1         0.6075
       2    O1      19.877745   20.756068   24.368131 O.co2      1 MOL1        -0.6830
       3    O2      20.985664   18.952121   24.680091 O.co2      1 MOL1        -0.6830
       4    C2      18.999194   18.785562   23.415234 C.3        1 MOL1        -0.2050
       5    H1      18.193384   19.469686   23.122617 H          1 MOL1         0.0710
       6    H2      18.560696   18.067608   24.118093 H          1 MOL1         0.0710
       7    C3      19.529114   18.016017   22.172670 C.3        1 MOL1        -0.1947
       8    H3      20.460667   17.491253   22.426389 H          1 MOL1         0.0712
       9    H4      18.799822   17.233890   21.921948 H          1 MOL1         0.0712
      10    C4      19.737422   18.888697   20.911480 C.3        1 MOL1        -0.1921
      11    H5      18.804562   19.413048   20.662361 H          1 MOL1         0.0712
      12    H6      19.954760   18.225850   20.062544 H          1 MOL1         0.0712
      13    C5      20.887390   19.908933   21.041777 C.3        1 MOL1        -0.2936
      14    H7      20.643856   20.694867   21.767034 H          1 MOL1         0.0724
      15    H8      21.078197   20.397556   20.077615 H          1 MOL1         0.0724
      16    H9      21.815346   19.418061   21.363138 H          1 MOL1         0.0724
@<TRIPOS>BOND
    1     1     2    1
    2     1     3    2
    3     1     4    1
    4     4     5    1
    5     4     6    1
    6     4     7    1
    7     7     8    1
    8     7     9    1
    9     7    10    1
   10    10    11    1
   11    10    12    1
   12    10    13    1
   13    13    14    1
   14    13    15    1
   15    13    16    1
@<TRIPOS>SUBSTRUCTURE
       1 MOL1            1 RESIDUE      1      MOL     
@<SCITEGIC>MOL_PROPERTY
VConf Rank
SciTegic.value.IntegerValue
9

@<SCITEGIC>MOL_PROPERTY
Conf_Id
SciTegic.value.IntegerValue
47

@<SCITEGIC>MOL_PROPERTY
Delta U+W
SciTegic.value.DoubleValue
2.301

@<SCITEGIC>MOL_PROPERTY
U+W
SciTegic.value.DoubleValue
-54.603

@<SCITEGIC>MOL_PROPERTY
Grad RMS
SciTegic.value.DoubleValue
0.000000

@<SCITEGIC>MOL_PROPERTY
U
SciTegic.value.DoubleValue
11.258

@<SCITEGIC>MOL_PROPERTY
W
SciTegic.value.DoubleValue
-65.861

@<SCITEGIC>MOL_PROPERTY
W(PB)
SciTegic.value.DoubleValue
-67.702

@<SCITEGIC>MOL_PROPERTY
W(SA)
SciTegic.value.DoubleValue
1.841

@<SCITEGIC>MOL_PROPERTY
Valence
SciTegic.value.DoubleValue
8.169

@<SCITEGIC>MOL_PROPERTY
Coulomb
SciTegic.value.DoubleValue
2.735

@<SCITEGIC>MOL_PROPERTY
VdW
SciTegic.value.DoubleValue
0.355

@<SCITEGIC>MOL_PROPERTY
VdW6
SciTegic.value.DoubleValue
-6.245

@<SCITEGIC>MOL_PROPERTY
VdW12
SciTegic.value.DoubleValue
6.600

@<SCITEGIC>MOL_PROPERTY
Bond
SciTegic.value.DoubleValue
0.149

@<SCITEGIC>MOL_PROPERTY
Angle
SciTegic.value.DoubleValue
3.168

@<SCITEGIC>MOL_PROPERTY
Pdih
SciTegic.value.DoubleValue
4.840

@<SCITEGIC>MOL_PROPERTY
Idih
SciTegic.value.DoubleValue
0.011

@<SCITEGIC>MOL_PROPERTY
Tether
SciTegic.value.DoubleValue
0.000

@<TRIPOS>MOLECULE
guest-s18_confgen4.mol2 : confsearch ligand conformer 10
          16          15           1
SMALL
USER_CHARGES
 
@<TRIPOS>ATOM
       1    C1      20.143527   19.422774   24.218330 C.2        1 MOL1         0.6075
       2    O1      20.020360   20.610734   24.443582 O.co2      1 MOL1        -0.6830
       3    O2      21.061332   18.752401   24.648508 O.co2      1 MOL1        -0.6830
       4    C2      19.042194   18.716209   23.429979 C.3        1 MOL1        -0.2050
       5    H1      18.124374   18.820557   24.020289 H          1 MOL1         0.0710
       6    H2      19.266540   17.643474   23.386539 H          1 MOL1         0.0710
       7    C3      18.788302   19.270904   22.000000 C.3        1 MOL1        -0.1947
       8    H3      17.783399   18.956043   21.687773 H          1 MOL1         0.0712
       9    H4      18.768057   20.369368   22.022551 H          1 MOL1         0.0712
      10    C4      19.790955   18.779850   20.928033 C.3        1 MOL1        -0.1921
      11    H5      19.427901   19.098416   19.941118 H          1 MOL1         0.0712
      12    H6      19.809575   17.681416   20.909944 H          1 MOL1         0.0712
      13    C5      21.223330   19.320128   21.119568 C.3        1 MOL1        -0.2936
      14    H7      21.851802   19.055117   20.259590 H          1 MOL1         0.0724
      15    H8      21.693913   18.895805   22.014834 H          1 MOL1         0.0724
      16    H9      21.222594   20.413820   21.215308 H          1 MOL1         0.0724
@<TRIPOS>BOND
    1     1     2    1
    2     1     3    2
    3     1     4    1
    4     4     5    1
    5     4     6    1
    6     4     7    1
    7     7     8    1
    8     7     9    1
    9     7    10    1
   10    10    11    1
   11    10    12    1
   12    10    13    1
   13    13    14    1
   14    13    15    1
   15    13    16    1
@<TRIPOS>SUBSTRUCTURE
       1 MOL1            1 RESIDUE      1      MOL     
@<SCITEGIC>MOL_PROPERTY
VConf Rank
SciTegic.value.IntegerValue
10

@<SCITEGIC>MOL_PROPERTY
Conf_Id
SciTegic.value.IntegerValue
45

@<SCITEGIC>MOL_PROPERTY
Delta U+W
SciTegic.value.DoubleValue
2.303

@<SCITEGIC>MOL_PROPERTY
U+W
SciTegic.value.DoubleValue
-54.601

@<SCITEGIC>MOL_PROPERTY
Grad RMS
SciTegic.value.DoubleValue
0.000000

@<SCITEGIC>MOL_PROPERTY
U
SciTegic.value.DoubleValue
11.258

@<SCITEGIC>MOL_PROPERTY
W
SciTegic.value.DoubleValue
-65.860

@<SCITEGIC>MOL_PROPERTY
W(PB)
SciTegic.value.DoubleValue
-67.709

@<SCITEGIC>MOL_PROPERTY
W(SA)
SciTegic.value.DoubleValue
1.849

@<SCITEGIC>MOL_PROPERTY
Valence
SciTegic.value.DoubleValue
8.169

@<SCITEGIC>MOL_PROPERTY
Coulomb
SciTegic.value.DoubleValue
2.735

@<SCITEGIC>MOL_PROPERTY
VdW
SciTegic.value.DoubleValue
0.355

@<SCITEGIC>MOL_PROPERTY
VdW6
SciTegic.value.DoubleValue
-6.245

@<SCITEGIC>MOL_PROPERTY
VdW12
SciTegic.value.DoubleValue
6.600

@<SCITEGIC>MOL_PROPERTY
Bond
SciTegic.value.DoubleValue
0.149

@<SCITEGIC>MOL_PROPERTY
Angle
SciTegic.value.DoubleValue
3.168

@<SCITEGIC>MOL_PROPERTY
Pdih
SciTegic.value.DoubleValue
4.840

@<SCITEGIC>MOL_PROPERTY
Idih
SciTegic.value.DoubleValue
0.011

@<SCITEGIC>MOL_PROPERTY
Tether
SciTegic.value.DoubleValue
0.000

@<TRIPOS>MOLECULE
guest-s18_confgen4.mol2 : confsearch ligand conformer 11
          16          15           1
SMALL
USER_CHARGES
 
@<TRIPOS>ATOM
       1    C1      17.244566   18.992802   21.800453 C.2        1 MOL1         0.6075
       2    O1      17.226710   17.958620   21.161763 O.co2      1 MOL1        -0.6830
       3    O2      16.236298   19.577205   22.142771 O.co2      1 MOL1        -0.6830
       4    C2      18.582826   19.612292   22.206885 C.3        1 MOL1        -0.2050
       5    H1      18.582715   19.703754   23.299494 H          1 MOL1         0.0710
       6    H2      18.609372   20.630045   21.799898 H          1 MOL1         0.0710
       7    C3      19.842657   18.831486   21.746976 C.3        1 MOL1        -0.1947
       8    H3      19.807760   17.811097   22.153247 H          1 MOL1         0.0712
       9    H4      19.834450   18.738358   20.652111 H          1 MOL1         0.0712
      10    C4      21.144484   19.525850   22.199044 C.3        1 MOL1        -0.1921
      11    H5      21.154761   19.618034   23.293985 H          1 MOL1         0.0712
      12    H6      21.181477   20.545855   21.791956 H          1 MOL1         0.0712
      13    C5      22.392003   18.745763   21.739368 C.3        1 MOL1        -0.2936
      14    H7      22.396789   17.730755   22.157944 H          1 MOL1         0.0724
      15    H8      23.308352   19.252648   22.068779 H          1 MOL1         0.0724
      16    H9      22.423708   18.665418   20.644833 H          1 MOL1         0.0724
@<TRIPOS>BOND
    1     1     2    1
    2     1     3    2
    3     1     4    1
    4     4     5    1
    5     4     6    1
    6     4     7    1
    7     7     8    1
    8     7     9    1
    9     7    10    1
   10    10    11    1
   11    10    12    1
   12    10    13    1
   13    13    14    1
   14    13    15    1
   15    13    16    1
@<TRIPOS>SUBSTRUCTURE
       1 MOL1            1 RESIDUE      1      MOL     
@<SCITEGIC>MOL_PROPERTY
VConf Rank
SciTegic.value.IntegerValue
11

@<SCITEGIC>MOL_PROPERTY
Conf_Id
SciTegic.value.IntegerValue
0

@<SCITEGIC>MOL_PROPERTY
Delta U+W
SciTegic.value.DoubleValue
0.000

@<SCITEGIC>MOL_PROPERTY
U+W
SciTegic.value.DoubleValue
-56.904

@<SCITEGIC>MOL_PROPERTY
Grad RMS
SciTegic.value.DoubleValue
0.000000

@<SCITEGIC>MOL_PROPERTY
U
SciTegic.value.DoubleValue
7.329

@<SCITEGIC>MOL_PROPERTY
W
SciTegic.value.DoubleValue
-64.233

@<SCITEGIC>MOL_PROPERTY
W(PB)
SciTegic.value.DoubleValue
-66.148

@<SCITEGIC>MOL_PROPERTY
W(SA)
SciTegic.value.DoubleValue
1.915

@<SCITEGIC>MOL_PROPERTY
Valence
SciTegic.value.DoubleValue
6.755

@<SCITEGIC>MOL_PROPERTY
Coulomb
SciTegic.value.DoubleValue
-0.421

@<SCITEGIC>MOL_PROPERTY
VdW
SciTegic.value.DoubleValue
0.995

@<SCITEGIC>MOL_PROPERTY
VdW6
SciTegic.value.DoubleValue
-4.495

@<SCITEGIC>MOL_PROPERTY
VdW12
SciTegic.value.DoubleValue
5.490

@<SCITEGIC>MOL_PROPERTY
Bond
SciTegic.value.DoubleValue
0.106

@<SCITEGIC>MOL_PROPERTY
Angle
SciTegic.value.DoubleValue
2.715

@<SCITEGIC>MOL_PROPERTY
Pdih
SciTegic.value.DoubleValue
3.934

@<SCITEGIC>MOL_PROPERTY
Idih
SciTegic.value.DoubleValue
0.000

@<SCITEGIC>MOL_PROPERTY
Tether
SciTegic.value.DoubleValue
0.000

@<TRIPOS>MOLECULE
guest-s18_confgen4.mol2 : confsearch ligand conformer 12
          16          15           1
SMALL
USER_CHARGES
 
@<TRIPOS>ATOM
       1    C1      18.107470   18.349366   23.715484 C.2        1 MOL1         0.6075
       2    O1      17.335163   17.511546   23.294245 O.co2      1 MOL1        -0.6830
       3    O2      18.423009   18.444978   24.884730 O.co2      1 MOL1        -0.6830
       4    C2      18.728597   19.322458   22.719554 C.3        1 MOL1        -0.2050
       5    H1      18.895111   20.276789   23.233730 H          1 MOL1         0.0710
       6    H2      17.998312   19.507132   21.922416 H          1 MOL1         0.0710
       7    C3      20.056696   18.802089   22.116702 C.3        1 MOL1        -0.1947
       8    H3      20.772962   18.610247   22.927695 H          1 MOL1         0.0712
       9    H4      19.876141   17.840515   21.616376 H          1 MOL1         0.0712
      10    C4      20.663527   19.804702   21.113166 C.3        1 MOL1        -0.1921
      11    H5      20.844867   20.766221   21.613301 H          1 MOL1         0.0712
      12    H6      19.947794   19.996321   20.301657 H          1 MOL1         0.0712
      13    C5      21.984884   19.280257   20.517284 C.3        1 MOL1        -0.2936
      14    H7      21.826803   18.333876   19.983576 H          1 MOL1         0.0724
      15    H8      22.730495   19.109440   21.304913 H          1 MOL1         0.0724
      16    H9      22.402911   20.004656   19.806193 H          1 MOL1         0.0724
@<TRIPOS>BOND
    1     1     2    1
    2     1     3    2
    3     1     4    1
    4     4     5    1
    5     4     6    1
    6     4     7    1
    7     7     8    1
    8     7     9    1
    9     7    10    1
   10    10    11    1
   11    10    12    1
   12    10    13    1
   13    13    14    1
   14    13    15    1
   15    13    16    1
@<TRIPOS>SUBSTRUCTURE
       1 MOL1            1 RESIDUE      1      MOL     
@<SCITEGIC>MOL_PROPERTY
VConf Rank
SciTegic.value.IntegerValue
12

@<SCITEGIC>MOL_PROPERTY
Conf_Id
SciTegic.value.IntegerValue
22

@<SCITEGIC>MOL_PROPERTY
Delta U+W
SciTegic.value.DoubleValue
-1.185

@<SCITEGIC>MOL_PROPERTY
U+W
SciTegic.value.DoubleValue
-58.089

@<SCITEGIC>MOL_PROPERTY
Grad RMS
SciTegic.value.DoubleValue
0.000000

@<SCITEGIC>MOL_PROPERTY
U
SciTegic.value.DoubleValue
6.298

@<SCITEGIC>MOL_PROPERTY
W
SciTegic.value.DoubleValue
-64.387

@<SCITEGIC>MOL_PROPERTY
W(PB)
SciTegic.value.DoubleValue
-66.329

@<SCITEGIC>MOL_PROPERTY
W(SA)
SciTegic.value.DoubleValue
1.942

@<SCITEGIC>MOL_PROPERTY
Valence
SciTegic.value.DoubleValue
6.246

@<SCITEGIC>MOL_PROPERTY
Coulomb
SciTegic.value.DoubleValue
-0.408

@<SCITEGIC>MOL_PROPERTY
VdW
SciTegic.value.DoubleValue
0.460

@<SCITEGIC>MOL_PROPERTY
VdW6
SciTegic.value.DoubleValue
-4.207

@<SCITEGIC>MOL_PROPERTY
VdW12
SciTegic.value.DoubleValue
4.667

@<SCITEGIC>MOL_PROPERTY
Bond
SciTegic.value.DoubleValue
0.072

@<SCITEGIC>MOL_PROPERTY
Angle
SciTegic.value.DoubleValue
2.246

@<SCITEGIC>MOL_PROPERTY
Pdih
SciTegic.value.DoubleValue
3.928

@<SCITEGIC>MOL_PROPERTY
Idih
SciTegic.value.DoubleValue
0.001

@<SCITEGIC>MOL_PROPERTY
Tether
SciTegic.value.DoubleValue
0.000

@<TRIPOS>MOLECULE
guest-s18_confgen4.mol2 : confsearch ligand conformer 13
          16          15           1
SMALL
USER_CHARGES
 
@<TRIPOS>ATOM
       1    C1      22.506689   19.315194   22.444297 C.2        1 MOL1         0.6075
       2    O1      23.152142   20.306594   22.167690 O.co2      1 MOL1        -0.6830
       3    O2      22.999031   18.215811   22.602134 O.co2      1 MOL1        -0.6830
       4    C2      20.994598   19.454844   22.580869 C.3        1 MOL1        -0.2050
       5    H1      20.778951   20.457374   22.969449 H          1 MOL1         0.0710
       6    H2      20.659051   18.734500   23.335607 H          1 MOL1         0.0710
       7    C3      20.246633   19.228806   21.241299 C.3        1 MOL1        -0.1947
       8    H3      20.665909   19.905766   20.484093 H          1 MOL1         0.0712
       9    H4      20.435884   18.207249   20.883648 H          1 MOL1         0.0712
      10    C4      18.723233   19.474363   21.338055 C.3        1 MOL1        -0.1921
      11    H5      18.289078   19.401262   20.331340 H          1 MOL1         0.0712
      12    H6      18.533657   20.499765   21.684454 H          1 MOL1         0.0712
      13    C5      18.002773   18.471819   22.264758 C.3        1 MOL1        -0.2936
      14    H7      18.324330   18.587198   23.307385 H          1 MOL1         0.0724
      15    H8      18.201560   17.437559   21.954857 H          1 MOL1         0.0724
      16    H9      16.917197   18.631469   22.232433 H          1 MOL1         0.0724
@<TRIPOS>BOND
    1     1     2    1
    2     1     3    2
    3     1     4    1
    4     4     5    1
    5     4     6    1
    6     4     7    1
    7     7     8    1
    8     7     9    1
    9     7    10    1
   10    10    11    1
   11    10    12    1
   12    10    13    1
   13    13    14    1
   14    13    15    1
   15    13    16    1
@<TRIPOS>SUBSTRUCTURE
       1 MOL1            1 RESIDUE      1      MOL     
@<SCITEGIC>MOL_PROPERTY
VConf Rank
SciTegic.value.IntegerValue
13

@<SCITEGIC>MOL_PROPERTY
Conf_Id
SciTegic.value.IntegerValue
36

@<SCITEGIC>MOL_PROPERTY
Delta U+W
SciTegic.value.DoubleValue
-0.427

@<SCITEGIC>MOL_PROPERTY
U+W
SciTegic.value.DoubleValue
-57.331

@<SCITEGIC>MOL_PROPERTY
Grad RMS
SciTegic.value.DoubleValue
0.000000

@<SCITEGIC>MOL_PROPERTY
U
SciTegic.value.DoubleValue
7.263

@<SCITEGIC>MOL_PROPERTY
W
SciTegic.value.DoubleValue
-64.594

@<SCITEGIC>MOL_PROPERTY
W(PB)
SciTegic.value.DoubleValue
-66.513

@<SCITEGIC>MOL_PROPERTY
W(SA)
SciTegic.value.DoubleValue
1.920

@<SCITEGIC>MOL_PROPERTY
Valence
SciTegic.value.DoubleValue
6.734

@<SCITEGIC>MOL_PROPERTY
Coulomb
SciTegic.value.DoubleValue
-0.068

@<SCITEGIC>MOL_PROPERTY
VdW
SciTegic.value.DoubleValue
0.598

@<SCITEGIC>MOL_PROPERTY
VdW6
SciTegic.value.DoubleValue
-4.819

@<SCITEGIC>MOL_PROPERTY
VdW12
SciTegic.value.DoubleValue
5.417

@<SCITEGIC>MOL_PROPERTY
Bond
SciTegic.value.DoubleValue
0.107

@<SCITEGIC>MOL_PROPERTY
Angle
SciTegic.value.DoubleValue
2.469

@<SCITEGIC>MOL_PROPERTY
Pdih
SciTegic.value.DoubleValue
4.157

@<SCITEGIC>MOL_PROPERTY
Idih
SciTegic.value.DoubleValue
0.001

@<SCITEGIC>MOL_PROPERTY
Tether
SciTegic.value.DoubleValue
0.000

@<TRIPOS>MOLECULE
guest-s18_confgen4.mol2 : confsearch ligand conformer 14
          16          15           1
SMALL
USER_CHARGES
 
@<TRIPOS>ATOM
       1    C1      22.288437   19.618912   20.954991 C.2        1 MOL1         0.6075
       2    O1      22.735414   20.677752   21.348726 O.co2      1 MOL1        -0.6830
       3    O2      22.683808   19.053367   19.955072 O.co2      1 MOL1        -0.6830
       4    C2      21.156273   18.974535   21.747174 C.3        1 MOL1        -0.2050
       5    H1      21.303940   19.223376   22.804240 H          1 MOL1         0.0710
       6    H2      21.251207   17.886115   21.652854 H          1 MOL1         0.0710
       7    C3      19.753107   19.431694   21.270595 C.3        1 MOL1        -0.1947
       8    H3      19.654402   20.517157   21.409648 H          1 MOL1         0.0712
       9    H4      19.669775   19.247976   20.190441 H          1 MOL1         0.0712
      10    C4      18.592443   18.705539   21.988904 C.3        1 MOL1        -0.1921
      11    H5      18.684413   17.620744   21.840103 H          1 MOL1         0.0712
      12    H6      17.644795   19.004237   21.519808 H          1 MOL1         0.0712
      13    C5      18.520584   19.018152   23.498884 C.3        1 MOL1        -0.2936
      14    H7      19.400427   18.634146   24.030107 H          1 MOL1         0.0724
      15    H8      17.633094   18.551281   23.945428 H          1 MOL1         0.0724
      16    H9      18.457168   20.100157   23.673506 H          1 MOL1         0.0724
@<TRIPOS>BOND
    1     1     2    1
    2     1     3    2
    3     1     4    1
    4     4     5    1
    5     4     6    1
    6     4     7    1
    7     7     8    1
    8     7     9    1
    9     7    10    1
   10    10    11    1
   11    10    12    1
   12    10    13    1
   13    13    14    1
   14    13    15    1
   15    13    16    1
@<TRIPOS>SUBSTRUCTURE
       1 MOL1            1 RESIDUE      1      MOL     
@<SCITEGIC>MOL_PROPERTY
VConf Rank
SciTegic.value.IntegerValue
14

@<SCITEGIC>MOL_PROPERTY
Conf_Id
SciTegic.value.IntegerValue
17

@<SCITEGIC>MOL_PROPERTY
Delta U+W
SciTegic.value.DoubleValue
-0.432

@<SCITEGIC>MOL_PROPERTY
U+W
SciTegic.value.DoubleValue
-57.336

@<SCITEGIC>MOL_PROPERTY
Grad RMS
SciTegic.value.DoubleValue
0.000000

@<SCITEGIC>MOL_PROPERTY
U
SciTegic.value.DoubleValue
7.263

@<SCITEGIC>MOL_PROPERTY
W
SciTegic.value.DoubleValue
-64.599

@<SCITEGIC>MOL_PROPERTY
W(PB)
SciTegic.value.DoubleValue
-66.503

@<SCITEGIC>MOL_PROPERTY
W(SA)
SciTegic.value.DoubleValue
1.904

@<SCITEGIC>MOL_PROPERTY
Valence
SciTegic.value.DoubleValue
6.734

@<SCITEGIC>MOL_PROPERTY
Coulomb
SciTegic.value.DoubleValue
-0.068

@<SCITEGIC>MOL_PROPERTY
VdW
SciTegic.value.DoubleValue
0.598

@<SCITEGIC>MOL_PROPERTY
VdW6
SciTegic.value.DoubleValue
-4.819

@<SCITEGIC>MOL_PROPERTY
VdW12
SciTegic.value.DoubleValue
5.417

@<SCITEGIC>MOL_PROPERTY
Bond
SciTegic.value.DoubleValue
0.107

@<SCITEGIC>MOL_PROPERTY
Angle
SciTegic.value.DoubleValue
2.469

@<SCITEGIC>MOL_PROPERTY
Pdih
SciTegic.value.DoubleValue
4.157

@<SCITEGIC>MOL_PROPERTY
Idih
SciTegic.value.DoubleValue
0.001

@<SCITEGIC>MOL_PROPERTY
Tether
SciTegic.value.DoubleValue
0.000

@<TRIPOS>MOLECULE
guest-s18_confgen4.mol2 : confsearch ligand conformer 15
          16          15           1
SMALL
USER_CHARGES
 
@<TRIPOS>ATOM
       1    C1      20.542730   17.806198   20.174286 C.2        1 MOL1         0.6075
       2    O1      20.177899   16.653580   20.295579 O.co2      1 MOL1        -0.6830
       3    O2      20.272764   18.497875   19.212536 O.co2      1 MOL1        -0.6830
       4    C2      21.406557   18.407835   21.279423 C.3        1 MOL1        -0.2050
       5    H1      21.927602   19.285767   20.878387 H          1 MOL1         0.0710
       6    H2      22.177190   17.669904   21.532042 H          1 MOL1         0.0710
       7    C3      20.618979   18.791606   22.559062 C.3        1 MOL1        -0.1947
       8    H3      20.079749   17.910075   22.932904 H          1 MOL1         0.0712
       9    H4      21.331859   19.081991   23.342667 H          1 MOL1         0.0712
      10    C4      19.625971   19.949668   22.320293 C.3        1 MOL1        -0.1921
      11    H5      18.894605   19.662510   21.551940 H          1 MOL1         0.0712
      12    H6      20.164734   20.826307   21.934785 H          1 MOL1         0.0712
      13    C5      18.881631   20.333311   23.614557 C.3        1 MOL1        -0.2936
      14    H7      18.308972   19.481803   24.005001 H          1 MOL1         0.0724
      15    H8      18.179869   21.156483   23.427382 H          1 MOL1         0.0724
      16    H9      19.585991   20.658369   24.391494 H          1 MOL1         0.0724
@<TRIPOS>BOND
    1     1     2    1
    2     1     3    2
    3     1     4    1
    4     4     5    1
    5     4     6    1
    6     4     7    1
    7     7     8    1
    8     7     9    1
    9     7    10    1
   10    10    11    1
   11    10    12    1
   12    10    13    1
   13    13    14    1
   14    13    15    1
   15    13    16    1
@<TRIPOS>SUBSTRUCTURE
       1 MOL1            1 RESIDUE      1      MOL     
@<SCITEGIC>MOL_PROPERTY
VConf Rank
SciTegic.value.IntegerValue
15

@<SCITEGIC>MOL_PROPERTY
Conf_Id
SciTegic.value.IntegerValue
19

@<SCITEGIC>MOL_PROPERTY
Delta U+W
SciTegic.value.DoubleValue
0.048

@<SCITEGIC>MOL_PROPERTY
U+W
SciTegic.value.DoubleValue
-56.856

@<SCITEGIC>MOL_PROPERTY
Grad RMS
SciTegic.value.DoubleValue
0.000000

@<SCITEGIC>MOL_PROPERTY
U
SciTegic.value.DoubleValue
8.276

@<SCITEGIC>MOL_PROPERTY
W
SciTegic.value.DoubleValue
-65.132

@<SCITEGIC>MOL_PROPERTY
W(PB)
SciTegic.value.DoubleValue
-67.031

@<SCITEGIC>MOL_PROPERTY
W(SA)
SciTegic.value.DoubleValue
1.899

@<SCITEGIC>MOL_PROPERTY
Valence
SciTegic.value.DoubleValue
6.513

@<SCITEGIC>MOL_PROPERTY
Coulomb
SciTegic.value.DoubleValue
1.428

@<SCITEGIC>MOL_PROPERTY
VdW
SciTegic.value.DoubleValue
0.335

@<SCITEGIC>MOL_PROPERTY
VdW6
SciTegic.value.DoubleValue
-5.021

@<SCITEGIC>MOL_PROPERTY
VdW12
SciTegic.value.DoubleValue
5.356

@<SCITEGIC>MOL_PROPERTY
Bond
SciTegic.value.DoubleValue
0.092

@<SCITEGIC>MOL_PROPERTY
Angle
SciTegic.value.DoubleValue
2.417

@<SCITEGIC>MOL_PROPERTY
Pdih
SciTegic.value.DoubleValue
4.003

@<SCITEGIC>MOL_PROPERTY
Idih
SciTegic.value.DoubleValue
0.001

@<SCITEGIC>MOL_PROPERTY
Tether
SciTegic.value.DoubleValue
0.000

@<TRIPOS>MOLECULE
guest-s18_confgen4.mol2 : confsearch ligand conformer 16
          16          15           1
SMALL
USER_CHARGES
 
@<TRIPOS>ATOM
       1    C1      19.228161   21.100923   20.890627 C.2        1 MOL1         0.6075
       2    O1      19.968748   21.364449   19.964113 O.co2      1 MOL1        -0.6830
       3    O2      18.873150   21.916036   21.718769 O.co2      1 MOL1        -0.6830
       4    C2      18.697892   19.674303   21.004939 C.3        1 MOL1        -0.2050
       5    H1      18.367755   19.365862   20.005885 H          1 MOL1         0.0710
       6    H2      17.807175   19.681591   21.644982 H          1 MOL1         0.0710
       7    C3      19.735505   18.655558   21.543976 C.3        1 MOL1        -0.1947
       8    H3      19.317277   17.643237   21.461205 H          1 MOL1         0.0712
       9    H4      20.632897   18.679850   20.910161 H          1 MOL1         0.0712
      10    C4      20.125554   18.926191   23.013265 C.3        1 MOL1        -0.1921
      11    H5      19.225801   18.913862   23.643876 H          1 MOL1         0.0712
      12    H6      20.564442   19.929550   23.104759 H          1 MOL1         0.0712
      13    C5      21.131315   17.880419   23.533994 C.3        1 MOL1        -0.2936
      14    H7      20.706596   16.869075   23.486986 H          1 MOL1         0.0724
      15    H8      21.398517   18.087623   24.578401 H          1 MOL1         0.0724
      16    H9      22.054012   17.893147   22.939082 H          1 MOL1         0.0724
@<TRIPOS>BOND
    1     1     2    1
    2     1     3    2
    3     1     4    1
    4     4     5    1
    5     4     6    1
    6     4     7    1
    7     7     8    1
    8     7     9    1
    9     7    10    1
   10    10    11    1
   11    10    12    1
   12    10    13    1
   13    13    14    1
   14    13    15    1
   15    13    16    1
@<TRIPOS>SUBSTRUCTURE
       1 MOL1            1 RESIDUE      1      MOL     
@<SCITEGIC>MOL_PROPERTY
VConf Rank
SciTegic.value.IntegerValue
16

@<SCITEGIC>MOL_PROPERTY
Conf_Id
SciTegic.value.IntegerValue
20

@<SCITEGIC>MOL_PROPERTY
Delta U+W
SciTegic.value.DoubleValue
-0.010

@<SCITEGIC>MOL_PROPERTY
U+W
SciTegic.value.DoubleValue
-56.914

@<SCITEGIC>MOL_PROPERTY
Grad RMS
SciTegic.value.DoubleValue
0.000000

@<SCITEGIC>MOL_PROPERTY
U
SciTegic.value.DoubleValue
8.277

@<SCITEGIC>MOL_PROPERTY
W
SciTegic.value.DoubleValue
-65.191

@<SCITEGIC>MOL_PROPERTY
W(PB)
SciTegic.value.DoubleValue
-67.081

@<SCITEGIC>MOL_PROPERTY
W(SA)
SciTegic.value.DoubleValue
1.890

@<SCITEGIC>MOL_PROPERTY
Valence
SciTegic.value.DoubleValue
6.513

@<SCITEGIC>MOL_PROPERTY
Coulomb
SciTegic.value.DoubleValue
1.429

@<SCITEGIC>MOL_PROPERTY
VdW
SciTegic.value.DoubleValue
0.335

@<SCITEGIC>MOL_PROPERTY
VdW6
SciTegic.value.DoubleValue
-5.021

@<SCITEGIC>MOL_PROPERTY
VdW12
SciTegic.value.DoubleValue
5.356

@<SCITEGIC>MOL_PROPERTY
Bond
SciTegic.value.DoubleValue
0.092

@<SCITEGIC>MOL_PROPERTY
Angle
SciTegic.value.DoubleValue
2.417

@<SCITEGIC>MOL_PROPERTY
Pdih
SciTegic.value.DoubleValue
4.002

@<SCITEGIC>MOL_PROPERTY
Idih
SciTegic.value.DoubleValue
0.001

@<SCITEGIC>MOL_PROPERTY
Tether
SciTegic.value.DoubleValue
0.000

@<TRIPOS>MOLECULE
guest-s18_confgen4.mol2 : confsearch ligand conformer 17
          16          15           1
SMALL
USER_CHARGES
 
@<TRIPOS>ATOM
       1    C1      21.853467   18.442764   22.547173 C.2        1 MOL1         0.6075
       2    O1      22.850871   19.003255   22.137513 O.co2      1 MOL1        -0.6830
       3    O2      21.675616   17.243843   22.461973 O.co2      1 MOL1        -0.6830
       4    C2      20.784499   19.287524   23.235236 C.3        1 MOL1        -0.2050
       5    H1      21.289654   19.897216   23.993507 H          1 MOL1         0.0710
       6    H2      20.103645   18.620819   23.776705 H          1 MOL1         0.0710
       7    C3      19.992431   20.216539   22.274904 C.3        1 MOL1        -0.1947
       8    H3      19.305939   20.840839   22.862569 H          1 MOL1         0.0712
       9    H4      20.697272   20.906119   21.790102 H          1 MOL1         0.0712
      10    C4      19.191732   19.469960   21.181519 C.3        1 MOL1        -0.1921
      11    H5      19.872760   18.868050   20.563860 H          1 MOL1         0.0712
      12    H6      18.738051   20.210970   20.509056 H          1 MOL1         0.0712
      13    C5      18.077278   18.567512   21.752503 C.3        1 MOL1        -0.2936
      14    H7      18.496834   17.735971   22.333019 H          1 MOL1         0.0724
      15    H8      17.479206   18.135782   20.939620 H          1 MOL1         0.0724
      16    H9      17.402345   19.138583   22.403201 H          1 MOL1         0.0724
@<TRIPOS>BOND
    1     1     2    1
    2     1     3    2
    3     1     4    1
    4     4     5    1
    5     4     6    1
    6     4     7    1
    7     7     8    1
    8     7     9    1
    9     7    10    1
   10    10    11    1
   11    10    12    1
   12    10    13    1
   13    13    14    1
   14    13    15    1
   15    13    16    1
@<TRIPOS>SUBSTRUCTURE
       1 MOL1            1 RESIDUE      1      MOL     
@<SCITEGIC>MOL_PROPERTY
VConf Rank
SciTegic.value.IntegerValue
17

@<SCITEGIC>MOL_PROPERTY
Conf_Id
SciTegic.value.IntegerValue
37

@<SCITEGIC>MOL_PROPERTY
Delta U+W
SciTegic.value.DoubleValue
1.063

@<SCITEGIC>MOL_PROPERTY
U+W
SciTegic.value.DoubleValue
-55.841

@<SCITEGIC>MOL_PROPERTY
Grad RMS
SciTegic.value.DoubleValue
0.000000

@<SCITEGIC>MOL_PROPERTY
U
SciTegic.value.DoubleValue
9.719

@<SCITEGIC>MOL_PROPERTY
W
SciTegic.value.DoubleValue
-65.560

@<SCITEGIC>MOL_PROPERTY
W(PB)
SciTegic.value.DoubleValue
-67.414

@<SCITEGIC>MOL_PROPERTY
W(SA)
SciTegic.value.DoubleValue
1.854

@<SCITEGIC>MOL_PROPERTY
Valence
SciTegic.value.DoubleValue
7.002

@<SCITEGIC>MOL_PROPERTY
Coulomb
SciTegic.value.DoubleValue
2.402

@<SCITEGIC>MOL_PROPERTY
VdW
SciTegic.value.DoubleValue
0.314

@<SCITEGIC>MOL_PROPERTY
VdW6
SciTegic.value.DoubleValue
-5.861

@<SCITEGIC>MOL_PROPERTY
VdW12
SciTegic.value.DoubleValue
6.175

@<SCITEGIC>MOL_PROPERTY
Bond
SciTegic.value.DoubleValue
0.134

@<SCITEGIC>MOL_PROPERTY
Angle
SciTegic.value.DoubleValue
2.733

@<SCITEGIC>MOL_PROPERTY
Pdih
SciTegic.value.DoubleValue
4.133

@<SCITEGIC>MOL_PROPERTY
Idih
SciTegic.value.DoubleValue
0.002

@<SCITEGIC>MOL_PROPERTY
Tether
SciTegic.value.DoubleValue
0.000

@<TRIPOS>MOLECULE
guest-s18_confgen4.mol2 : confsearch ligand conformer 18
          16          15           1
SMALL
USER_CHARGES
 
@<TRIPOS>ATOM
       1    C1      21.523721   18.452548   23.665964 C.2        1 MOL1         0.6075
       2    O1      21.175817   17.942712   24.712776 O.co2      1 MOL1        -0.6830
       3    O2      22.404255   18.001263   22.960767 O.co2      1 MOL1        -0.6830
       4    C2      20.840456   19.747264   23.233987 C.3        1 MOL1        -0.2050
       5    H1      21.437660   20.212990   22.441715 H          1 MOL1         0.0710
       6    H2      20.871380   20.432601   24.089112 H          1 MOL1         0.0710
       7    C3      19.367590   19.566583   22.774966 C.3        1 MOL1        -0.1947
       8    H3      18.786893   19.148851   23.609020 H          1 MOL1         0.0712
       9    H4      18.933524   20.552576   22.561017 H          1 MOL1         0.0712
      10    C4      19.192516   18.654139   21.537716 C.3        1 MOL1        -0.1921
      11    H5      18.118730   18.523907   21.344966 H          1 MOL1         0.0712
      12    H6      19.591912   17.652905   21.751280 H          1 MOL1         0.0712
      13    C5      19.861900   19.217693   20.266192 C.3        1 MOL1        -0.2936
      14    H7      19.505651   20.233355   20.050355 H          1 MOL1         0.0724
      15    H8      19.630422   18.586081   19.398814 H          1 MOL1         0.0724
      16    H9      20.953872   19.248680   20.371654 H          1 MOL1         0.0724
@<TRIPOS>BOND
    1     1     2    1
    2     1     3    2
    3     1     4    1
    4     4     5    1
    5     4     6    1
    6     4     7    1
    7     7     8    1
    8     7     9    1
    9     7    10    1
   10    10    11    1
   11    10    12    1
   12    10    13    1
   13    13    14    1
   14    13    15    1
   15    13    16    1
@<TRIPOS>SUBSTRUCTURE
       1 MOL1            1 RESIDUE      1      MOL     
@<SCITEGIC>MOL_PROPERTY
VConf Rank
SciTegic.value.IntegerValue
18

@<SCITEGIC>MOL_PROPERTY
Conf_Id
SciTegic.value.IntegerValue
39

@<SCITEGIC>MOL_PROPERTY
Delta U+W
SciTegic.value.DoubleValue
1.129

@<SCITEGIC>MOL_PROPERTY
U+W
SciTegic.value.DoubleValue
-55.775

@<SCITEGIC>MOL_PROPERTY
Grad RMS
SciTegic.value.DoubleValue
0.000000

@<SCITEGIC>MOL_PROPERTY
U
SciTegic.value.DoubleValue
9.718

@<SCITEGIC>MOL_PROPERTY
W
SciTegic.value.DoubleValue
-65.493

@<SCITEGIC>MOL_PROPERTY
W(PB)
SciTegic.value.DoubleValue
-67.361

@<SCITEGIC>MOL_PROPERTY
W(SA)
SciTegic.value.DoubleValue
1.869

@<SCITEGIC>MOL_PROPERTY
Valence
SciTegic.value.DoubleValue
7.002

@<SCITEGIC>MOL_PROPERTY
Coulomb
SciTegic.value.DoubleValue
2.402

@<SCITEGIC>MOL_PROPERTY
VdW
SciTegic.value.DoubleValue
0.314

@<SCITEGIC>MOL_PROPERTY
VdW6
SciTegic.value.DoubleValue
-5.861

@<SCITEGIC>MOL_PROPERTY
VdW12
SciTegic.value.DoubleValue
6.175

@<SCITEGIC>MOL_PROPERTY
Bond
SciTegic.value.DoubleValue
0.134

@<SCITEGIC>MOL_PROPERTY
Angle
SciTegic.value.DoubleValue
2.734

@<SCITEGIC>MOL_PROPERTY
Pdih
SciTegic.value.DoubleValue
4.133

@<SCITEGIC>MOL_PROPERTY
Idih
SciTegic.value.DoubleValue
0.002

@<SCITEGIC>MOL_PROPERTY
Tether
SciTegic.value.DoubleValue
0.000

@<TRIPOS>MOLECULE
guest-s18_confgen4.mol2 : confsearch ligand conformer 19
          16          15           1
SMALL
USER_CHARGES
 
@<TRIPOS>ATOM
       1    C1      21.647448   20.009759   22.024575 C.2        1 MOL1         0.6075
       2    O1      22.108573   20.367183   23.090611 O.co2      1 MOL1        -0.6830
       3    O2      21.568976   20.735661   21.052944 O.co2      1 MOL1        -0.6830
       4    C2      21.229111   18.548294   21.873668 C.3        1 MOL1        -0.2050
       5    H1      21.437573   18.018800   22.811303 H          1 MOL1         0.0710
       6    H2      21.891000   18.114381   21.115136 H          1 MOL1         0.0710
       7    C3      19.752286   18.320841   21.444444 C.3        1 MOL1        -0.1947
       8    H3      19.489328   19.008287   20.628471 H          1 MOL1         0.0712
       9    H4      19.673284   17.308834   21.024858 H          1 MOL1         0.0712
      10    C4      18.719728   18.437989   22.591468 C.3        1 MOL1        -0.1921
      11    H5      18.987232   17.750703   23.405907 H          1 MOL1         0.0712
      12    H6      17.742920   18.104434   22.214800 H          1 MOL1         0.0712
      13    C5      18.566053   19.868379   23.148832 C.3        1 MOL1        -0.2936
      14    H7      19.468303   20.187336   23.684751 H          1 MOL1         0.0724
      15    H8      17.727982   19.916880   23.855977 H          1 MOL1         0.0724
      16    H9      18.371492   20.587055   22.341999 H          1 MOL1         0.0724
@<TRIPOS>BOND
    1     1     2    1
    2     1     3    2
    3     1     4    1
    4     4     5    1
    5     4     6    1
    6     4     7    1
    7     7     8    1
    8     7     9    1
    9     7    10    1
   10    10    11    1
   11    10    12    1
   12    10    13    1
   13    13    14    1
   14    13    15    1
   15    13    16    1
@<TRIPOS>SUBSTRUCTURE
       1 MOL1            1 RESIDUE      1      MOL     
@<SCITEGIC>MOL_PROPERTY
VConf Rank
SciTegic.value.IntegerValue
19

@<SCITEGIC>MOL_PROPERTY
Conf_Id
SciTegic.value.IntegerValue
47

@<SCITEGIC>MOL_PROPERTY
Delta U+W
SciTegic.value.DoubleValue
2.301

@<SCITEGIC>MOL_PROPERTY
U+W
SciTegic.value.DoubleValue
-54.603

@<SCITEGIC>MOL_PROPERTY
Grad RMS
SciTegic.value.DoubleValue
0.000000

@<SCITEGIC>MOL_PROPERTY
U
SciTegic.value.DoubleValue
11.258

@<SCITEGIC>MOL_PROPERTY
W
SciTegic.value.DoubleValue
-65.861

@<SCITEGIC>MOL_PROPERTY
W(PB)
SciTegic.value.DoubleValue
-67.702

@<SCITEGIC>MOL_PROPERTY
W(SA)
SciTegic.value.DoubleValue
1.841

@<SCITEGIC>MOL_PROPERTY
Valence
SciTegic.value.DoubleValue
8.169

@<SCITEGIC>MOL_PROPERTY
Coulomb
SciTegic.value.DoubleValue
2.735

@<SCITEGIC>MOL_PROPERTY
VdW
SciTegic.value.DoubleValue
0.355

@<SCITEGIC>MOL_PROPERTY
VdW6
SciTegic.value.DoubleValue
-6.245

@<SCITEGIC>MOL_PROPERTY
VdW12
SciTegic.value.DoubleValue
6.600

@<SCITEGIC>MOL_PROPERTY
Bond
SciTegic.value.DoubleValue
0.149

@<SCITEGIC>MOL_PROPERTY
Angle
SciTegic.value.DoubleValue
3.168

@<SCITEGIC>MOL_PROPERTY
Pdih
SciTegic.value.DoubleValue
4.840

@<SCITEGIC>MOL_PROPERTY
Idih
SciTegic.value.DoubleValue
0.011

@<SCITEGIC>MOL_PROPERTY
Tether
SciTegic.value.DoubleValue
0.000

@<TRIPOS>MOLECULE
guest-s18_confgen4.mol2 : confsearch ligand conformer 20
          16          15           1
SMALL
USER_CHARGES
 
@<TRIPOS>ATOM
       1    C1      21.095171   19.774094   23.700073 C.2        1 MOL1         0.6075
       2    O1      21.685522   20.753097   23.287522 O.co2      1 MOL1        -0.6830
       3    O2      21.645508   18.852114   24.269195 O.co2      1 MOL1        -0.6830
       4    C2      19.572783   19.740515   23.578112 C.3        1 MOL1        -0.2050
       5    H1      19.197533   20.590107   24.160460 H          1 MOL1         0.0710
       6    H2      19.195510   18.834251   24.067324 H          1 MOL1         0.0710
       7    C3      19.020027   19.838931   22.128366 C.3        1 MOL1        -0.1947
       8    H3      17.973370   20.166979   22.186216 H          1 MOL1         0.0712
       9    H4      19.553728   20.625272   21.576666 H          1 MOL1         0.0712
      10    C4      19.055489   18.512870   21.330953 C.3        1 MOL1        -0.1921
      11    H5      18.501604   18.656771   20.392977 H          1 MOL1         0.0712
      12    H6      18.522564   17.729005   21.886630 H          1 MOL1         0.0712
      13    C5      20.479780   18.028990   20.988110 C.3        1 MOL1        -0.2936
      14    H7      20.439558   17.168232   20.308222 H          1 MOL1         0.0724
      15    H8      21.021765   17.713208   21.887851 H          1 MOL1         0.0724
      16    H9      21.058244   18.822579   20.497269 H          1 MOL1         0.0724
@<TRIPOS>BOND
    1     1     2    1
    2     1     3    2
    3     1     4    1
    4     4     5    1
    5     4     6    1
    6     4     7    1
    7     7     8    1
    8     7     9    1
    9     7    10    1
   10    10    11    1
   11    10    12    1
   12    10    13    1
   13    13    14    1
   14    13    15    1
   15    13    16    1
@<TRIPOS>SUBSTRUCTURE
       1 MOL1            1 RESIDUE      1      MOL     
@<SCITEGIC>MOL_PROPERTY
VConf Rank
SciTegic.value.IntegerValue
20

@<SCITEGIC>MOL_PROPERTY
Conf_Id
SciTegic.value.IntegerValue
45

@<SCITEGIC>MOL_PROPERTY
Delta U+W
SciTegic.value.DoubleValue
2.303

@<SCITEGIC>MOL_PROPERTY
U+W
SciTegic.value.DoubleValue
-54.601

@<SCITEGIC>MOL_PROPERTY
Grad RMS
SciTegic.value.DoubleValue
0.000000

@<SCITEGIC>MOL_PROPERTY
U
SciTegic.value.DoubleValue
11.258

@<SCITEGIC>MOL_PROPERTY
W
SciTegic.value.DoubleValue
-65.860

@<SCITEGIC>MOL_PROPERTY
W(PB)
SciTegic.value.DoubleValue
-67.709

@<SCITEGIC>MOL_PROPERTY
W(SA)
SciTegic.value.DoubleValue
1.849

@<SCITEGIC>MOL_PROPERTY
Valence
SciTegic.value.DoubleValue
8.169

@<SCITEGIC>MOL_PROPERTY
Coulomb
SciTegic.value.DoubleValue
2.735

@<SCITEGIC>MOL_PROPERTY
VdW
SciTegic.value.DoubleValue
0.355

@<SCITEGIC>MOL_PROPERTY
VdW6
SciTegic.value.DoubleValue
-6.245

@<SCITEGIC>MOL_PROPERTY
VdW12
SciTegic.value.DoubleValue
6.600

@<SCITEGIC>MOL_PROPERTY
Bond
SciTegic.value.DoubleValue
0.149

@<SCITEGIC>MOL_PROPERTY
Angle
SciTegic.value.DoubleValue
3.168

@<SCITEGIC>MOL_PROPERTY
Pdih
SciTegic.value.DoubleValue
4.840

@<SCITEGIC>MOL_PROPERTY
Idih
SciTegic.value.DoubleValue
0.011

@<SCITEGIC>MOL_PROPERTY
Tether
SciTegic.value.DoubleValue
0.000

@<TRIPOS>MOLECULE
guest-s18_confgen4.mol2 : confsearch ligand conformer 21
          16          15           1
SMALL
USER_CHARGES
 
@<TRIPOS>ATOM
       1    C1      20.363655   19.303544   19.199658 C.2        1 MOL1         0.6075
       2    O1      21.342785   20.019305   19.281928 O.co2      1 MOL1        -0.6830
       3    O2      19.900635   18.934128   18.139254 O.co2      1 MOL1        -0.6830
       4    C2      19.659430   18.829495   20.472151 C.3        1 MOL1        -0.2050
       5    H1      19.653054   17.733239   20.453615 H          1 MOL1         0.0710
       6    H2      18.615028   19.157348   20.409695 H          1 MOL1         0.0710
       7    C3      20.285724   19.327016   21.802029 C.3        1 MOL1        -0.1947
       8    H3      21.333441   19.000212   21.856416 H          1 MOL1         0.0712
       9    H4      20.294330   20.425782   21.812454 H          1 MOL1         0.0712
      10    C4      19.513962   18.802360   23.031003 C.3        1 MOL1        -0.1921
      11    H5      19.506113   17.703557   23.022724 H          1 MOL1         0.0712
      12    H6      18.466375   19.129974   22.978747 H          1 MOL1         0.0712
      13    C5      20.140669   19.299794   24.348553 C.3        1 MOL1        -0.2936
      14    H7      21.180419   18.959670   24.441854 H          1 MOL1         0.0724
      15    H8      19.580296   18.917943   25.211869 H          1 MOL1         0.0724
      16    H9      20.133012   20.396612   24.397557 H          1 MOL1         0.0724
@<TRIPOS>BOND
    1     1     2    1
    2     1     3    2
    3     1     4    1
    4     4     5    1
    5     4     6    1
    6     4     7    1
    7     7     8    1
    8     7     9    1
    9     7    10    1
   10    10    11    1
   11    10    12    1
   12    10    13    1
   13    13    14    1
   14    13    15    1
   15    13    16    1
@<TRIPOS>SUBSTRUCTURE
       1 MOL1            1 RESIDUE      1      MOL     
@<SCITEGIC>MOL_PROPERTY
VConf Rank
SciTegic.value.IntegerValue
21

@<SCITEGIC>MOL_PROPERTY
Conf_Id
SciTegic.value.IntegerValue
0

@<SCITEGIC>MOL_PROPERTY
Delta U+W
SciTegic.value.DoubleValue
0.000

@<SCITEGIC>MOL_PROPERTY
U+W
SciTegic.value.DoubleValue
-56.904

@<SCITEGIC>MOL_PROPERTY
Grad RMS
SciTegic.value.DoubleValue
0.000000

@<SCITEGIC>MOL_PROPERTY
U
SciTegic.value.DoubleValue
7.329

@<SCITEGIC>MOL_PROPERTY
W
SciTegic.value.DoubleValue
-64.233

@<SCITEGIC>MOL_PROPERTY
W(PB)
SciTegic.value.DoubleValue
-66.148

@<SCITEGIC>MOL_PROPERTY
W(SA)
SciTegic.value.DoubleValue
1.915

@<SCITEGIC>MOL_PROPERTY
Valence
SciTegic.value.DoubleValue
6.755

@<SCITEGIC>MOL_PROPERTY
Coulomb
SciTegic.value.DoubleValue
-0.421

@<SCITEGIC>MOL_PROPERTY
VdW
SciTegic.value.DoubleValue
0.995

@<SCITEGIC>MOL_PROPERTY
VdW6
SciTegic.value.DoubleValue
-4.495

@<SCITEGIC>MOL_PROPERTY
VdW12
SciTegic.value.DoubleValue
5.490

@<SCITEGIC>MOL_PROPERTY
Bond
SciTegic.value.DoubleValue
0.106

@<SCITEGIC>MOL_PROPERTY
Angle
SciTegic.value.DoubleValue
2.715

@<SCITEGIC>MOL_PROPERTY
Pdih
SciTegic.value.DoubleValue
3.934

@<SCITEGIC>MOL_PROPERTY
Idih
SciTegic.value.DoubleValue
0.000

@<SCITEGIC>MOL_PROPERTY
Tether
SciTegic.value.DoubleValue
0.000

@<TRIPOS>MOLECULE
guest-s18_confgen4.mol2 : confsearch ligand conformer 22
          16          15           1
SMALL
USER_CHARGES
 
@<TRIPOS>ATOM
       1    C1      19.170193   16.761094   23.009149 C.2        1 MOL1         0.6075
       2    O1      19.294162   16.671173   24.214300 O.co2      1 MOL1        -0.6830
       3    O2      18.285658   16.213368   22.381902 O.co2      1 MOL1        -0.6830
       4    C2      20.168499   17.623096   22.244349 C.3        1 MOL1        -0.2050
       5    H1      20.303912   17.185411   21.247883 H          1 MOL1         0.0710
       6    H2      21.135315   17.562949   22.758644 H          1 MOL1         0.0710
       7    C3      19.719904   19.100214   22.122087 C.3        1 MOL1        -0.1947
       8    H3      18.745208   19.142950   21.616429 H          1 MOL1         0.0712
       9    H4      19.576579   19.520493   23.127261 H          1 MOL1         0.0712
      10    C4      20.746833   19.949719   21.344707 C.3        1 MOL1        -0.1921
      11    H5      20.889927   19.530146   20.339212 H          1 MOL1         0.0712
      12    H6      21.721530   19.907756   21.850417 H          1 MOL1         0.0712
      13    C5      20.293867   21.418413   21.226984 C.3        1 MOL1        -0.2936
      14    H7      20.173068   21.872931   22.219099 H          1 MOL1         0.0724
      15    H8      19.335309   21.492529   20.696752 H          1 MOL1         0.0724
      16    H9      21.034777   22.008350   20.671847 H          1 MOL1         0.0724
@<TRIPOS>BOND
    1     1     2    1
    2     1     3    2
    3     1     4    1
    4     4     5    1
    5     4     6    1
    6     4     7    1
    7     7     8    1
    8     7     9    1
    9     7    10    1
   10    10    11    1
   11    10    12    1
   12    10    13    1
   13    13    14    1
   14    13    15    1
   15    13    16    1
@<TRIPOS>SUBSTRUCTURE
       1 MOL1            1 RESIDUE      1      MOL     
@<SCITEGIC>MOL_PROPERTY
VConf Rank
SciTegic.value.IntegerValue
22

@<SCITEGIC>MOL_PROPERTY
Conf_Id
SciTegic.value.IntegerValue
22

@<SCITEGIC>MOL_PROPERTY
Delta U+W
SciTegic.value.DoubleValue
-1.185

@<SCITEGIC>MOL_PROPERTY
U+W
SciTegic.value.DoubleValue
-58.089

@<SCITEGIC>MOL_PROPERTY
Grad RMS
SciTegic.value.DoubleValue
0.000000

@<SCITEGIC>MOL_PROPERTY
U
SciTegic.value.DoubleValue
6.298

@<SCITEGIC>MOL_PROPERTY
W
SciTegic.value.DoubleValue
-64.387

@<SCITEGIC>MOL_PROPERTY
W(PB)
SciTegic.value.DoubleValue
-66.329

@<SCITEGIC>MOL_PROPERTY
W(SA)
SciTegic.value.DoubleValue
1.942

@<SCITEGIC>MOL_PROPERTY
Valence
SciTegic.value.DoubleValue
6.246

@<SCITEGIC>MOL_PROPERTY
Coulomb
SciTegic.value.DoubleValue
-0.408

@<SCITEGIC>MOL_PROPERTY
VdW
SciTegic.value.DoubleValue
0.460

@<SCITEGIC>MOL_PROPERTY
VdW6
SciTegic.value.DoubleValue
-4.207

@<SCITEGIC>MOL_PROPERTY
VdW12
SciTegic.value.DoubleValue
4.667

@<SCITEGIC>MOL_PROPERTY
Bond
SciTegic.value.DoubleValue
0.072

@<SCITEGIC>MOL_PROPERTY
Angle
SciTegic.value.DoubleValue
2.246

@<SCITEGIC>MOL_PROPERTY
Pdih
SciTegic.value.DoubleValue
3.928

@<SCITEGIC>MOL_PROPERTY
Idih
SciTegic.value.DoubleValue
0.001

@<SCITEGIC>MOL_PROPERTY
Tether
SciTegic.value.DoubleValue
0.000

@<TRIPOS>MOLECULE
guest-s18_confgen4.mol2 : confsearch ligand conformer 23
          16          15           1
SMALL
USER_CHARGES
 
@<TRIPOS>ATOM
       1    C1      21.649561   21.037404   21.459132 C.2        1 MOL1         0.6075
       2    O1      22.782470   20.812440   21.082430 O.co2      1 MOL1        -0.6830
       3    O2      21.306791   22.086178   21.967599 O.co2      1 MOL1        -0.6830
       4    C2      20.606530   19.936302   21.303469 C.3        1 MOL1        -0.2050
       5    H1      20.852424   19.359037   20.404099 H          1 MOL1         0.0710
       6    H2      19.637287   20.416365   21.126763 H          1 MOL1         0.0710
       7    C3      20.533531   18.998789   22.536649 C.3        1 MOL1        -0.1947
       8    H3      21.538204   18.602346   22.738872 H          1 MOL1         0.0712
       9    H4      20.244952   19.580670   23.422903 H          1 MOL1         0.0712
      10    C4      19.559564   17.812480   22.350995 C.3        1 MOL1        -0.1921
      11    H5      19.649242   17.142952   23.217598 H          1 MOL1         0.0712
      12    H6      19.854959   17.223640   21.471569 H          1 MOL1         0.0712
      13    C5      18.086069   18.250871   22.211147 C.3        1 MOL1        -0.2936
      14    H7      17.925561   18.830285   21.293378 H          1 MOL1         0.0724
      15    H8      17.776340   18.865995   23.066098 H          1 MOL1         0.0724
      16    H9      17.427232   17.373819   22.169666 H          1 MOL1         0.0724
@<TRIPOS>BOND
    1     1     2    1
    2     1     3    2
    3     1     4    1
    4     4     5    1
    5     4     6    1
    6     4     7    1
    7     7     8    1
    8     7     9    1
    9     7    10    1
   10    10    11    1
   11    10    12    1
   12    10    13    1
   13    13    14    1
   14    13    15    1
   15    13    16    1
@<TRIPOS>SUBSTRUCTURE
       1 MOL1            1 RESIDUE      1      MOL     
@<SCITEGIC>MOL_PROPERTY
VConf Rank
SciTegic.value.IntegerValue
23

@<SCITEGIC>MOL_PROPERTY
Conf_Id
SciTegic.value.IntegerValue
36

@<SCITEGIC>MOL_PROPERTY
Delta U+W
SciTegic.value.DoubleValue
-0.427

@<SCITEGIC>MOL_PROPERTY
U+W
SciTegic.value.DoubleValue
-57.331

@<SCITEGIC>MOL_PROPERTY
Grad RMS
SciTegic.value.DoubleValue
0.000000

@<SCITEGIC>MOL_PROPERTY
U
SciTegic.value.DoubleValue
7.263

@<SCITEGIC>MOL_PROPERTY
W
SciTegic.value.DoubleValue
-64.594

@<SCITEGIC>MOL_PROPERTY
W(PB)
SciTegic.value.DoubleValue
-66.513

@<SCITEGIC>MOL_PROPERTY
W(SA)
SciTegic.value.DoubleValue
1.920

@<SCITEGIC>MOL_PROPERTY
Valence
SciTegic.value.DoubleValue
6.734

@<SCITEGIC>MOL_PROPERTY
Coulomb
SciTegic.value.DoubleValue
-0.068

@<SCITEGIC>MOL_PROPERTY
VdW
SciTegic.value.DoubleValue
0.598

@<SCITEGIC>MOL_PROPERTY
VdW6
SciTegic.value.DoubleValue
-4.819

@<SCITEGIC>MOL_PROPERTY
VdW12
SciTegic.value.DoubleValue
5.417

@<SCITEGIC>MOL_PROPERTY
Bond
SciTegic.value.DoubleValue
0.107

@<SCITEGIC>MOL_PROPERTY
Angle
SciTegic.value.DoubleValue
2.469

@<SCITEGIC>MOL_PROPERTY
Pdih
SciTegic.value.DoubleValue
4.157

@<SCITEGIC>MOL_PROPERTY
Idih
SciTegic.value.DoubleValue
0.001

@<SCITEGIC>MOL_PROPERTY
Tether
SciTegic.value.DoubleValue
0.000

@<TRIPOS>MOLECULE
guest-s18_confgen4.mol2 : confsearch ligand conformer 24
          16          15           1
SMALL
USER_CHARGES
 
@<TRIPOS>ATOM
       1    C1      17.592450   18.654562   21.074887 C.2        1 MOL1         0.6075
       2    O1      17.322739   19.384896   20.142242 O.co2      1 MOL1        -0.6830
       3    O2      16.757010   18.053981   21.720904 O.co2      1 MOL1        -0.6830
       4    C2      19.057008   18.498703   21.469031 C.3        1 MOL1        -0.2050
       5    H1      19.659017   18.576818   20.556562 H          1 MOL1         0.0710
       6    H2      19.197020   17.485868   21.865426 H          1 MOL1         0.0710
       7    C3      19.513246   19.549350   22.514489 C.3        1 MOL1        -0.1947
       8    H3      19.408560   20.557653   22.090607 H          1 MOL1         0.0712
       9    H4      18.836712   19.504034   23.379172 H          1 MOL1         0.0712
      10    C4      20.963488   19.337891   23.006923 C.3        1 MOL1        -0.1921
      11    H5      21.065380   18.333840   23.441526 H          1 MOL1         0.0712
      12    H6      21.168305   20.049900   23.818342 H          1 MOL1         0.0712
      13    C5      22.017828   19.532262   21.896285 C.3        1 MOL1        -0.2936
      14    H7      21.922840   18.767734   21.115096 H          1 MOL1         0.0724
      15    H8      23.031059   19.458111   22.312064 H          1 MOL1         0.0724
      16    H9      21.916624   20.519536   21.426926 H          1 MOL1         0.0724
@<TRIPOS>BOND
    1     1     2    1
    2     1     3    2
    3     1     4    1
    4     4     5    1
    5     4     6    1
    6     4     7    1
    7     7     8    1
    8     7     9    1
    9     7    10    1
   10    10    11    1
   11    10    12    1
   12    10    13    1
   13    13    14    1
   14    13    15    1
   15    13    16    1
@<TRIPOS>SUBSTRUCTURE
       1 MOL1            1 RESIDUE      1      MOL     
@<SCITEGIC>MOL_PROPERTY
VConf Rank
SciTegic.value.IntegerValue
24

@<SCITEGIC>MOL_PROPERTY
Conf_Id
SciTegic.value.IntegerValue
17

@<SCITEGIC>MOL_PROPERTY
Delta U+W
SciTegic.value.DoubleValue
-0.432

@<SCITEGIC>MOL_PROPERTY
U+W
SciTegic.value.DoubleValue
-57.336

@<SCITEGIC>MOL_PROPERTY
Grad RMS
SciTegic.value.DoubleValue
0.000000

@<SCITEGIC>MOL_PROPERTY
U
SciTegic.value.DoubleValue
7.263

@<SCITEGIC>MOL_PROPERTY
W
SciTegic.value.DoubleValue
-64.599

@<SCITEGIC>MOL_PROPERTY
W(PB)
SciTegic.value.DoubleValue
-66.503

@<SCITEGIC>MOL_PROPERTY
W(SA)
SciTegic.value.DoubleValue
1.904

@<SCITEGIC>MOL_PROPERTY
Valence
SciTegic.value.DoubleValue
6.734

@<SCITEGIC>MOL_PROPERTY
Coulomb
SciTegic.value.DoubleValue
-0.068

@<SCITEGIC>MOL_PROPERTY
VdW
SciTegic.value.DoubleValue
0.598

@<SCITEGIC>MOL_PROPERTY
VdW6
SciTegic.value.DoubleValue
-4.819

@<SCITEGIC>MOL_PROPERTY
VdW12
SciTegic.value.DoubleValue
5.417

@<SCITEGIC>MOL_PROPERTY
Bond
SciTegic.value.DoubleValue
0.107

@<SCITEGIC>MOL_PROPERTY
Angle
SciTegic.value.DoubleValue
2.469

@<SCITEGIC>MOL_PROPERTY
Pdih
SciTegic.value.DoubleValue
4.157

@<SCITEGIC>MOL_PROPERTY
Idih
SciTegic.value.DoubleValue
0.001

@<SCITEGIC>MOL_PROPERTY
Tether
SciTegic.value.DoubleValue
0.000

@<TRIPOS>MOLECULE
guest-s18_confgen4.mol2 : confsearch ligand conformer 25
          16          15           1
SMALL
USER_CHARGES
 
@<TRIPOS>ATOM
       1    C1      19.445024   21.079901   23.252347 C.2        1 MOL1         0.6075
       2    O1      18.610215   20.864092   24.108421 O.co2      1 MOL1        -0.6830
       3    O2      20.446747   21.740490   23.443226 O.co2      1 MOL1        -0.6830
       4    C2      19.208641   20.509653   21.856484 C.3        1 MOL1        -0.2050
       5    H1      19.831484   21.061766   21.142116 H          1 MOL1         0.0710
       6    H2      18.164660   20.714111   21.590900 H          1 MOL1         0.0710
       7    C3      19.483037   18.987707   21.740632 C.3        1 MOL1        -0.1947
       8    H3      18.873972   18.450466   22.480927 H          1 MOL1         0.0712
       9    H4      19.156335   18.640976   20.750884 H          1 MOL1         0.0712
      10    C4      20.973890   18.636498   21.936060 C.3        1 MOL1        -0.1921
      11    H5      21.306855   18.960689   22.931930 H          1 MOL1         0.0712
      12    H6      21.582752   19.183931   21.203270 H          1 MOL1         0.0712
      13    C5      21.224010   17.123154   21.782523 C.3        1 MOL1        -0.2936
      14    H7      20.649909   16.553234   22.524850 H          1 MOL1         0.0724
      15    H8      22.287374   16.890675   21.925098 H          1 MOL1         0.0724
      16    H9      20.932195   16.775937   20.782674 H          1 MOL1         0.0724
@<TRIPOS>BOND
    1     1     2    1
    2     1     3    2
    3     1     4    1
    4     4     5    1
    5     4     6    1
    6     4     7    1
    7     7     8    1
    8     7     9    1
    9     7    10    1
   10    10    11    1
   11    10    12    1
   12    10    13    1
   13    13    14    1
   14    13    15    1
   15    13    16    1
@<TRIPOS>SUBSTRUCTURE
       1 MOL1            1 RESIDUE      1      MOL     
@<SCITEGIC>MOL_PROPERTY
VConf Rank
SciTegic.value.IntegerValue
25

@<SCITEGIC>MOL_PROPERTY
Conf_Id
SciTegic.value.IntegerValue
19

@<SCITEGIC>MOL_PROPERTY
Delta U+W
SciTegic.value.DoubleValue
0.048

@<SCITEGIC>MOL_PROPERTY
U+W
SciTegic.value.DoubleValue
-56.856

@<SCITEGIC>MOL_PROPERTY
Grad RMS
SciTegic.value.DoubleValue
0.000000

@<SCITEGIC>MOL_PROPERTY
U
SciTegic.value.DoubleValue
8.276

@<SCITEGIC>MOL_PROPERTY
W
SciTegic.value.DoubleValue
-65.132

@<SCITEGIC>MOL_PROPERTY
W(PB)
SciTegic.value.DoubleValue
-67.031

@<SCITEGIC>MOL_PROPERTY
W(SA)
SciTegic.value.DoubleValue
1.899

@<SCITEGIC>MOL_PROPERTY
Valence
SciTegic.value.DoubleValue
6.513

@<SCITEGIC>MOL_PROPERTY
Coulomb
SciTegic.value.DoubleValue
1.428

@<SCITEGIC>MOL_PROPERTY
VdW
SciTegic.value.DoubleValue
0.335

@<SCITEGIC>MOL_PROPERTY
VdW6
SciTegic.value.DoubleValue
-5.021

@<SCITEGIC>MOL_PROPERTY
VdW12
SciTegic.value.DoubleValue
5.356

@<SCITEGIC>MOL_PROPERTY
Bond
SciTegic.value.DoubleValue
0.092

@<SCITEGIC>MOL_PROPERTY
Angle
SciTegic.value.DoubleValue
2.417

@<SCITEGIC>MOL_PROPERTY
Pdih
SciTegic.value.DoubleValue
4.003

@<SCITEGIC>MOL_PROPERTY
Idih
SciTegic.value.DoubleValue
0.001

@<SCITEGIC>MOL_PROPERTY
Tether
SciTegic.value.DoubleValue
0.000

@<TRIPOS>MOLECULE
guest-s18_confgen4.mol2 : confsearch ligand conformer 26
          16          15           1
SMALL
USER_CHARGES
 
@<TRIPOS>ATOM
       1    C1      18.771229   18.175250   20.236048 C.2        1 MOL1         0.6075
       2    O1      19.475652   18.079574   19.250667 O.co2      1 MOL1        -0.6830
       3    O2      17.647141   18.635959   20.215230 O.co2      1 MOL1        -0.6830
       4    C2      19.321195   17.667253   21.566076 C.3        1 MOL1        -0.2050
       5    H1      19.778936   16.688516   21.379575 H          1 MOL1         0.0710
       6    H2      18.481464   17.499112   22.251398 H          1 MOL1         0.0710
       7    C3      20.364719   18.609863   22.219979 C.3        1 MOL1        -0.1947
       8    H3      20.804681   18.105114   23.090738 H          1 MOL1         0.0712
       9    H4      21.185179   18.791883   21.511927 H          1 MOL1         0.0712
      10    C4      19.752110   19.954733   22.667444 C.3        1 MOL1        -0.1921
      11    H5      18.923930   19.770665   23.365738 H          1 MOL1         0.0712
      12    H6      19.326508   20.478583   21.800168 H          1 MOL1         0.0712
      13    C5      20.802195   20.858185   23.343792 C.3        1 MOL1        -0.2936
      14    H7      21.221168   20.374200   24.235775 H          1 MOL1         0.0724
      15    H8      20.351013   21.809452   23.654669 H          1 MOL1         0.0724
      16    H9      21.627677   21.083335   22.655796 H          1 MOL1         0.0724
@<TRIPOS>BOND
    1     1     2    1
    2     1     3    2
    3     1     4    1
    4     4     5    1
    5     4     6    1
    6     4     7    1
    7     7     8    1
    8     7     9    1
    9     7    10    1
   10    10    11    1
   11    10    12    1
   12    10    13    1
   13    13    14    1
   14    13    15    1
   15    13    16    1
@<TRIPOS>SUBSTRUCTURE
       1 MOL1            1 RESIDUE      1      MOL     
@<SCITEGIC>MOL_PROPERTY
VConf Rank
SciTegic.value.IntegerValue
26

@<SCITEGIC>MOL_PROPERTY
Conf_Id
SciTegic.value.IntegerValue
20

@<SCITEGIC>MOL_PROPERTY
Delta U+W
SciTegic.value.DoubleValue
-0.010

@<SCITEGIC>MOL_PROPERTY
U+W
SciTegic.value.DoubleValue
-56.914

@<SCITEGIC>MOL_PROPERTY
Grad RMS
SciTegic.value.DoubleValue
0.000000

@<SCITEGIC>MOL_PROPERTY
U
SciTegic.value.DoubleValue
8.277

@<SCITEGIC>MOL_PROPERTY
W
SciTegic.value.DoubleValue
-65.191

@<SCITEGIC>MOL_PROPERTY
W(PB)
SciTegic.value.DoubleValue
-67.081

@<SCITEGIC>MOL_PROPERTY
W(SA)
SciTegic.value.DoubleValue
1.890

@<SCITEGIC>MOL_PROPERTY
Valence
SciTegic.value.DoubleValue
6.513

@<SCITEGIC>MOL_PROPERTY
Coulomb
SciTegic.value.DoubleValue
1.429

@<SCITEGIC>MOL_PROPERTY
VdW
SciTegic.value.DoubleValue
0.335

@<SCITEGIC>MOL_PROPERTY
VdW6
SciTegic.value.DoubleValue
-5.021

@<SCITEGIC>MOL_PROPERTY
VdW12
SciTegic.value.DoubleValue
5.356

@<SCITEGIC>MOL_PROPERTY
Bond
SciTegic.value.DoubleValue
0.092

@<SCITEGIC>MOL_PROPERTY
Angle
SciTegic.value.DoubleValue
2.417

@<SCITEGIC>MOL_PROPERTY
Pdih
SciTegic.value.DoubleValue
4.002

@<SCITEGIC>MOL_PROPERTY
Idih
SciTegic.value.DoubleValue
0.001

@<SCITEGIC>MOL_PROPERTY
Tether
SciTegic.value.DoubleValue
0.000

@<TRIPOS>MOLECULE
guest-s18_confgen4.mol2 : confsearch ligand conformer 27
          16          15           1
SMALL
USER_CHARGES
 
@<TRIPOS>ATOM
       1    C1      20.150639   18.674358   20.099480 C.2        1 MOL1         0.6075
       2    O1      20.134498   19.505225   19.212809 O.co2      1 MOL1        -0.6830
       3    O2      19.558069   17.615487   20.036611 O.co2      1 MOL1        -0.6830
       4    C2      20.988024   18.964255   21.342256 C.3        1 MOL1        -0.2050
       5    H1      21.985999   19.262274   21.000041 H          1 MOL1         0.0710
       6    H2      21.118449   18.032236   21.904018 H          1 MOL1         0.0710
       7    C3      20.405899   20.077358   22.255936 C.3        1 MOL1        -0.1947
       8    H3      21.108985   20.274023   23.076524 H          1 MOL1         0.0712
       9    H4      20.339014   21.009287   21.677671 H          1 MOL1         0.0712
      10    C4      19.012554   19.754284   22.846024 C.3        1 MOL1        -0.1921
      11    H5      18.290933   19.589515   22.033798 H          1 MOL1         0.0712
      12    H6      18.654629   20.630137   23.404503 H          1 MOL1         0.0712
      13    C5      19.019109   18.531628   23.788103 C.3        1 MOL1        -0.2936
      14    H7      19.252529   17.609122   23.241307 H          1 MOL1         0.0724
      15    H8      18.033659   18.400783   24.253537 H          1 MOL1         0.0724
      16    H9      19.758612   18.655776   24.589843 H          1 MOL1         0.0724
@<TRIPOS>BOND
    1     1     2    1
    2     1     3    2
    3     1     4    1
    4     4     5    1
    5     4     6    1
    6     4     7    1
    7     7     8    1
    8     7     9    1
    9     7    10    1
   10    10    11    1
   11    10    12    1
   12    10    13    1
   13    13    14    1
   14    13    15    1
   15    13    16    1
@<TRIPOS>SUBSTRUCTURE
       1 MOL1            1 RESIDUE      1      MOL     
@<SCITEGIC>MOL_PROPERTY
VConf Rank
SciTegic.value.IntegerValue
27

@<SCITEGIC>MOL_PROPERTY
Conf_Id
SciTegic.value.IntegerValue
37

@<SCITEGIC>MOL_PROPERTY
Delta U+W
SciTegic.value.DoubleValue
1.063

@<SCITEGIC>MOL_PROPERTY
U+W
SciTegic.value.DoubleValue
-55.841

@<SCITEGIC>MOL_PROPERTY
Grad RMS
SciTegic.value.DoubleValue
0.000000

@<SCITEGIC>MOL_PROPERTY
U
SciTegic.value.DoubleValue
9.719

@<SCITEGIC>MOL_PROPERTY
W
SciTegic.value.DoubleValue
-65.560

@<SCITEGIC>MOL_PROPERTY
W(PB)
SciTegic.value.DoubleValue
-67.414

@<SCITEGIC>MOL_PROPERTY
W(SA)
SciTegic.value.DoubleValue
1.854

@<SCITEGIC>MOL_PROPERTY
Valence
SciTegic.value.DoubleValue
7.002

@<SCITEGIC>MOL_PROPERTY
Coulomb
SciTegic.value.DoubleValue
2.402

@<SCITEGIC>MOL_PROPERTY
VdW
SciTegic.value.DoubleValue
0.314

@<SCITEGIC>MOL_PROPERTY
VdW6
SciTegic.value.DoubleValue
-5.861

@<SCITEGIC>MOL_PROPERTY
VdW12
SciTegic.value.DoubleValue
6.175

@<SCITEGIC>MOL_PROPERTY
Bond
SciTegic.value.DoubleValue
0.134

@<SCITEGIC>MOL_PROPERTY
Angle
SciTegic.value.DoubleValue
2.733

@<SCITEGIC>MOL_PROPERTY
Pdih
SciTegic.value.DoubleValue
4.133

@<SCITEGIC>MOL_PROPERTY
Idih
SciTegic.value.DoubleValue
0.002

@<SCITEGIC>MOL_PROPERTY
Tether
SciTegic.value.DoubleValue
0.000

@<TRIPOS>MOLECULE
guest-s18_confgen4.mol2 : confsearch ligand conformer 28
          16          15           1
SMALL
USER_CHARGES
 
@<TRIPOS>ATOM
       1    C1      20.665207   17.070205   21.904887 C.2        1 MOL1         0.6075
       2    O1      21.748676   16.615245   22.214551 O.co2      1 MOL1        -0.6830
       3    O2      19.609933   16.534189   22.179447 O.co2      1 MOL1        -0.6830
       4    C2      20.632489   18.365657   21.098364 C.3        1 MOL1        -0.2050
       5    H1      19.629957   18.490411   20.673376 H          1 MOL1         0.0710
       6    H2      21.315214   18.238280   20.250105 H          1 MOL1         0.0710
       7    C3      21.046348   19.627271   21.904422 C.3        1 MOL1        -0.1947
       8    H3      22.073720   19.491235   22.269600 H          1 MOL1         0.0712
       9    H4      21.071656   20.493500   21.229605 H          1 MOL1         0.0712
      10    C4      20.126545   19.945803   23.107125 C.3        1 MOL1        -0.1921
      11    H5      20.547616   20.798987   23.656584 H          1 MOL1         0.0712
      12    H6      20.120069   19.099501   23.808072 H          1 MOL1         0.0712
      13    C5      18.678954   20.285649   22.693091 C.3        1 MOL1        -0.2936
      14    H7      18.659812   21.106460   21.964414 H          1 MOL1         0.0724
      15    H8      18.092566   20.595454   23.567752 H          1 MOL1         0.0724
      16    H9      18.177535   19.416302   22.248905 H          1 MOL1         0.0724
@<TRIPOS>BOND
    1     1     2    1
    2     1     3    2
    3     1     4    1
    4     4     5    1
    5     4     6    1
    6     4     7    1
    7     7     8    1
    8     7     9    1
    9     7    10    1
   10    10    11    1
   11    10    12    1
   12    10    13    1
   13    13    14    1
   14    13    15    1
   15    13    16    1
@<TRIPOS>SUBSTRUCTURE
       1 MOL1            1 RESIDUE      1      MOL     
@<SCITEGIC>MOL_PROPERTY
VConf Rank
SciTegic.value.IntegerValue
28

@<SCITEGIC>MOL_PROPERTY
Conf_Id
SciTegic.value.IntegerValue
39

@<SCITEGIC>MOL_PROPERTY
Delta U+W
SciTegic.value.DoubleValue
1.129

@<SCITEGIC>MOL_PROPERTY
U+W
SciTegic.value.DoubleValue
-55.775

@<SCITEGIC>MOL_PROPERTY
Grad RMS
SciTegic.value.DoubleValue
0.000000

@<SCITEGIC>MOL_PROPERTY
U
SciTegic.value.DoubleValue
9.718

@<SCITEGIC>MOL_PROPERTY
W
SciTegic.value.DoubleValue
-65.493

@<SCITEGIC>MOL_PROPERTY
W(PB)
SciTegic.value.DoubleValue
-67.361

@<SCITEGIC>MOL_PROPERTY
W(SA)
SciTegic.value.DoubleValue
1.869

@<SCITEGIC>MOL_PROPERTY
Valence
SciTegic.value.DoubleValue
7.002

@<SCITEGIC>MOL_PROPERTY
Coulomb
SciTegic.value.DoubleValue
2.402

@<SCITEGIC>MOL_PROPERTY
VdW
SciTegic.value.DoubleValue
0.314

@<SCITEGIC>MOL_PROPERTY
VdW6
SciTegic.value.DoubleValue
-5.861

@<SCITEGIC>MOL_PROPERTY
VdW12
SciTegic.value.DoubleValue
6.175

@<SCITEGIC>MOL_PROPERTY
Bond
SciTegic.value.DoubleValue
0.134

@<SCITEGIC>MOL_PROPERTY
Angle
SciTegic.value.DoubleValue
2.734

@<SCITEGIC>MOL_PROPERTY
Pdih
SciTegic.value.DoubleValue
4.133

@<SCITEGIC>MOL_PROPERTY
Idih
SciTegic.value.DoubleValue
0.002

@<SCITEGIC>MOL_PROPERTY
Tether
SciTegic.value.DoubleValue
0.000

@<TRIPOS>MOLECULE
guest-s18_confgen4.mol2 : confsearch ligand conformer 29
          16          15           1
SMALL
USER_CHARGES
 
@<TRIPOS>ATOM
       1    C1      18.042925   19.628572   22.755656 C.2        1 MOL1         0.6075
       2    O1      17.585800   20.405089   21.940255 O.co2      1 MOL1        -0.6830
       3    O2      17.994406   19.813926   23.955843 O.co2      1 MOL1        -0.6830
       4    C2      18.627014   18.311349   22.248289 C.3        1 MOL1        -0.2050
       5    H1      18.521663   18.271008   21.157302 H          1 MOL1         0.0710
       6    H2      17.991768   17.515308   22.653912 H          1 MOL1         0.0710
       7    C3      20.101865   18.037470   22.656684 C.3        1 MOL1        -0.1947
       8    H3      20.247259   18.278532   23.718895 H          1 MOL1         0.0712
       9    H4      20.284584   16.958407   22.563481 H          1 MOL1         0.0712
      10    C4      21.158502   18.771026   21.795885 C.3        1 MOL1        -0.1921
      11    H5      21.008516   18.528988   20.734681 H          1 MOL1         0.0712
      12    H6      22.152204   18.385442   22.062667 H          1 MOL1         0.0712
      13    C5      21.162004   20.302392   21.983484 C.3        1 MOL1        -0.2936
      14    H7      20.250456   20.756770   21.576520 H          1 MOL1         0.0724
      15    H8      22.016144   20.751309   21.460334 H          1 MOL1         0.0724
      16    H9      21.236177   20.569230   23.045852 H          1 MOL1         0.0724
@<TRIPOS>BOND
    1     1     2    1
    2     1     3    2
    3     1     4    1
    4     4     5    1
    5     4     6    1
    6     4     7    1
    7     7     8    1
    8     7     9    1
    9     7    10    1
   10    10    11    1
   11    10    12    1
   12    10    13    1
   13    13    14    1
   14    13    15    1
   15    13    16    1
@<TRIPOS>SUBSTRUCTURE
       1 MOL1            1 RESIDUE      1      MOL     
@<SCITEGIC>MOL_PROPERTY
VConf Rank
SciTegic.value.IntegerValue
29

@<SCITEGIC>MOL_PROPERTY
Conf_Id
SciTegic.value.IntegerValue
47

@<SCITEGIC>MOL_PROPERTY
Delta U+W
SciTegic.value.DoubleValue
2.301

@<SCITEGIC>MOL_PROPERTY
U+W
SciTegic.value.DoubleValue
-54.603

@<SCITEGIC>MOL_PROPERTY
Grad RMS
SciTegic.value.DoubleValue
0.000000

@<SCITEGIC>MOL_PROPERTY
U
SciTegic.value.DoubleValue
11.258

@<SCITEGIC>MOL_PROPERTY
W
SciTegic.value.DoubleValue
-65.861

@<SCITEGIC>MOL_PROPERTY
W(PB)
SciTegic.value.DoubleValue
-67.702

@<SCITEGIC>MOL_PROPERTY
W(SA)
SciTegic.value.DoubleValue
1.841

@<SCITEGIC>MOL_PROPERTY
Valence
SciTegic.value.DoubleValue
8.169

@<SCITEGIC>MOL_PROPERTY
Coulomb
SciTegic.value.DoubleValue
2.735

@<SCITEGIC>MOL_PROPERTY
VdW
SciTegic.value.DoubleValue
0.355

@<SCITEGIC>MOL_PROPERTY
VdW6
SciTegic.value.DoubleValue
-6.245

@<SCITEGIC>MOL_PROPERTY
VdW12
SciTegic.value.DoubleValue
6.600

@<SCITEGIC>MOL_PROPERTY
Bond
SciTegic.value.DoubleValue
0.149

@<SCITEGIC>MOL_PROPERTY
Angle
SciTegic.value.DoubleValue
3.168

@<SCITEGIC>MOL_PROPERTY
Pdih
SciTegic.value.DoubleValue
4.840

@<SCITEGIC>MOL_PROPERTY
Idih
SciTegic.value.DoubleValue
0.011

@<SCITEGIC>MOL_PROPERTY
Tether
SciTegic.value.DoubleValue
0.000

@<TRIPOS>MOLECULE
guest-s18_confgen4.mol2 : confsearch ligand conformer 30
          16          15           1
SMALL
USER_CHARGES
 
@<TRIPOS>ATOM
       1    C1      18.251594   19.716231   23.254537 C.2        1 MOL1         0.6075
       2    O1      18.091039   20.903519   23.050258 O.co2      1 MOL1        -0.6830
       3    O2      18.198354   19.214931   24.360287 O.co2      1 MOL1        -0.6830
       4    C2      18.440431   18.792660   22.052446 C.3        1 MOL1        -0.2050
       5    H1      17.527514   18.877424   21.451492 H          1 MOL1         0.0710
       6    H2      18.488939   17.754839   22.403949 H          1 MOL1         0.0710
       7    C3      19.667752   19.114086   21.153917 C.3        1 MOL1        -0.1947
       8    H3      19.499003   18.652248   20.171734 H          1 MOL1         0.0712
       9    H4      19.726547   20.196454   20.973462 H          1 MOL1         0.0712
      10    C4      21.020377   18.591373   21.694970 C.3        1 MOL1        -0.1921
      11    H5      21.782786   18.729605   20.915921 H          1 MOL1         0.0712
      12    H6      20.956869   17.509474   21.875780 H          1 MOL1         0.0712
      13    C5      21.496997   19.304774   22.977225 C.3        1 MOL1        -0.2936
      14    H7      22.517966   18.993323   23.232936 H          1 MOL1         0.0724
      15    H8      20.854369   19.061427   23.832100 H          1 MOL1         0.0724
      16    H9      21.497618   20.394649   22.844931 H          1 MOL1         0.0724
@<TRIPOS>BOND
    1     1     2    1
    2     1     3    2
    3     1     4    1
    4     4     5    1
    5     4     6    1
    6     4     7    1
    7     7     8    1
    8     7     9    1
    9     7    10    1
   10    10    11    1
   11    10    12    1
   12    10    13    1
   13    13    14    1
   14    13    15    1
   15    13    16    1
@<TRIPOS>SUBSTRUCTURE
       1 MOL1            1 RESIDUE      1      MOL     
@<SCITEGIC>MOL_PROPERTY
VConf Rank
SciTegic.value.IntegerValue
30

@<SCITEGIC>MOL_PROPERTY
Conf_Id
SciTegic.value.IntegerValue
45

@<SCITEGIC>MOL_PROPERTY
Delta U+W
SciTegic.value.DoubleValue
2.303

@<SCITEGIC>MOL_PROPERTY
U+W
SciTegic.value.DoubleValue
-54.601

@<SCITEGIC>MOL_PROPERTY
Grad RMS
SciTegic.value.DoubleValue
0.000000

@<SCITEGIC>MOL_PROPERTY
U
SciTegic.value.DoubleValue
11.258

@<SCITEGIC>MOL_PROPERTY
W
SciTegic.value.DoubleValue
-65.860

@<SCITEGIC>MOL_PROPERTY
W(PB)
SciTegic.value.DoubleValue
-67.709

@<SCITEGIC>MOL_PROPERTY
W(SA)
SciTegic.value.DoubleValue
1.849

@<SCITEGIC>MOL_PROPERTY
Valence
SciTegic.value.DoubleValue
8.169

@<SCITEGIC>MOL_PROPERTY
Coulomb
SciTegic.value.DoubleValue
2.735

@<SCITEGIC>MOL_PROPERTY
VdW
SciTegic.value.DoubleValue
0.355

@<SCITEGIC>MOL_PROPERTY
VdW6
SciTegic.value.DoubleValue
-6.245

@<SCITEGIC>MOL_PROPERTY
VdW12
SciTegic.value.DoubleValue
6.600

@<SCITEGIC>MOL_PROPERTY
Bond
SciTegic.value.DoubleValue
0.149

@<SCITEGIC>MOL_PROPERTY
Angle
SciTegic.value.DoubleValue
3.168

@<SCITEGIC>MOL_PROPERTY
Pdih
SciTegic.value.DoubleValue
4.840

@<SCITEGIC>MOL_PROPERTY
Idih
SciTegic.value.DoubleValue
0.011

@<SCITEGIC>MOL_PROPERTY
Tether
SciTegic.value.DoubleValue
0.000

@<TRIPOS>MOLECULE
guest-s18_confgen4.mol2 : confsearch ligand conformer 31
          16          15           1
SMALL
USER_CHARGES
 
@<TRIPOS>ATOM
       1    C1      18.862006   19.579536   19.456063 C.2        1 MOL1         0.6075
       2    O1      19.889614   19.990814   18.953421 O.co2      1 MOL1        -0.6830
       3    O2      17.813694   19.498320   18.847985 O.co2      1 MOL1        -0.6830
       4    C2      18.856158   19.136461   20.920148 C.3        1 MOL1        -0.2050
       5    H1      18.514250   18.095013   20.945518 H          1 MOL1         0.0710
       6    H2      18.099137   19.735264   21.440261 H          1 MOL1         0.0710
       7    C3      20.216928   19.258856   21.656134 C.3        1 MOL1        -0.1947
       8    H3      20.972499   18.661301   21.127446 H          1 MOL1         0.0712
       9    H4      20.556946   20.303241   21.622710 H          1 MOL1         0.0712
      10    C4      20.119339   18.791524   23.123559 C.3        1 MOL1        -0.1921
      11    H5      19.781067   17.746602   23.158340 H          1 MOL1         0.0712
      12    H6      19.365265   19.389518   23.653912 H          1 MOL1         0.0712
      13    C5      21.473731   18.915448   23.849096 C.3        1 MOL1        -0.2936
      14    H7      22.240140   18.301864   23.357567 H          1 MOL1         0.0724
      15    H8      21.386881   18.579320   24.890546 H          1 MOL1         0.0724
      16    H9      21.821275   19.956900   23.856799 H          1 MOL1         0.0724
@<TRIPOS>BOND
    1     1     2    1
    2     1     3    2
    3     1     4    1
    4     4     5    1
    5     4     6    1
    6     4     7    1
    7     7     8    1
    8     7     9    1
    9     7    10    1
   10    10    11    1
   11    10    12    1
   12    10    13    1
   13    13    14    1
   14    13    15    1
   15    13    16    1
@<TRIPOS>SUBSTRUCTURE
       1 MOL1            1 RESIDUE      1      MOL     
@<SCITEGIC>MOL_PROPERTY
VConf Rank
SciTegic.value.IntegerValue
31

@<SCITEGIC>MOL_PROPERTY
Conf_Id
SciTegic.value.IntegerValue
0

@<SCITEGIC>MOL_PROPERTY
Delta U+W
SciTegic.value.DoubleValue
0.000

@<SCITEGIC>MOL_PROPERTY
U+W
SciTegic.value.DoubleValue
-56.904

@<SCITEGIC>MOL_PROPERTY
Grad RMS
SciTegic.value.DoubleValue
0.000000

@<SCITEGIC>MOL_PROPERTY
U
SciTegic.value.DoubleValue
7.329

@<SCITEGIC>MOL_PROPERTY
W
SciTegic.value.DoubleValue
-64.233

@<SCITEGIC>MOL_PROPERTY
W(PB)
SciTegic.value.DoubleValue
-66.148

@<SCITEGIC>MOL_PROPERTY
W(SA)
SciTegic.value.DoubleValue
1.915

@<SCITEGIC>MOL_PROPERTY
Valence
SciTegic.value.DoubleValue
6.755

@<SCITEGIC>MOL_PROPERTY
Coulomb
SciTegic.value.DoubleValue
-0.421

@<SCITEGIC>MOL_PROPERTY
VdW
SciTegic.value.DoubleValue
0.995

@<SCITEGIC>MOL_PROPERTY
VdW6
SciTegic.value.DoubleValue
-4.495

@<SCITEGIC>MOL_PROPERTY
VdW12
SciTegic.value.DoubleValue
5.490

@<SCITEGIC>MOL_PROPERTY
Bond
SciTegic.value.DoubleValue
0.106

@<SCITEGIC>MOL_PROPERTY
Angle
SciTegic.value.DoubleValue
2.715

@<SCITEGIC>MOL_PROPERTY
Pdih
SciTegic.value.DoubleValue
3.934

@<SCITEGIC>MOL_PROPERTY
Idih
SciTegic.value.DoubleValue
0.000

@<SCITEGIC>MOL_PROPERTY
Tether
SciTegic.value.DoubleValue
0.000

@<TRIPOS>MOLECULE
guest-s18_confgen4.mol2 : confsearch ligand conformer 32
          16          15           1
SMALL
USER_CHARGES
 
@<TRIPOS>ATOM
       1    C1      22.554714   20.113740   22.324689 C.2        1 MOL1         0.6075
       2    O1      23.436337   19.494755   21.763048 O.co2      1 MOL1        -0.6830
       3    O2      22.604201   21.308486   22.539112 O.co2      1 MOL1        -0.6830
       4    C2      21.310253   19.352875   22.768516 C.3        1 MOL1        -0.2050
       5    H1      20.925920   19.828991   23.678709 H          1 MOL1         0.0710
       6    H2      21.611935   18.333658   23.038767 H          1 MOL1         0.0710
       7    C3      20.208486   19.312807   21.681058 C.3        1 MOL1        -0.1947
       8    H3      19.926041   20.340226   21.412385 H          1 MOL1         0.0712
       9    H4      20.612105   18.844885   20.772382 H          1 MOL1         0.0712
      10    C4      18.961528   18.537728   22.155306 C.3        1 MOL1        -0.1921
      11    H5      18.557203   19.005763   23.063602 H          1 MOL1         0.0712
      12    H6      19.243453   17.510040   22.423472 H          1 MOL1         0.0712
      13    C5      17.869371   18.501932   21.068102 C.3        1 MOL1        -0.2936
      14    H7      18.237167   18.010247   20.157913 H          1 MOL1         0.0724
      15    H8      17.545866   19.517021   20.802755 H          1 MOL1         0.0724
      16    H9      16.990166   17.947436   21.421207 H          1 MOL1         0.0724
@<TRIPOS>BOND
    1     1     2    1
    2     1     3    2
    3     1     4    1
    4     4     5    1
    5     4     6    1
    6     4     7    1
    7     7     8    1
    8     7     9    1
    9     7    10    1
   10    10    11    1
   11    10    12    1
   12    10    13    1
   13    13    14    1
   14    13    15    1
   15    13    16    1
@<TRIPOS>SUBSTRUCTURE
       1 MOL1            1 RESIDUE      1      MOL     
@<SCITEGIC>MOL_PROPERTY
VConf Rank
SciTegic.value.IntegerValue
32

@<SCITEGIC>MOL_PROPERTY
Conf_Id
SciTegic.value.IntegerValue
22

@<SCITEGIC>MOL_PROPERTY
Delta U+W
SciTegic.value.DoubleValue
-1.185

@<SCITEGIC>MOL_PROPERTY
U+W
SciTegic.value.DoubleValue
-58.089

@<SCITEGIC>MOL_PROPERTY
Grad RMS
SciTegic.value.DoubleValue
0.000000

@<SCITEGIC>MOL_PROPERTY
U
SciTegic.value.DoubleValue
6.298

@<SCITEGIC>MOL_PROPERTY
W
SciTegic.value.DoubleValue
-64.387

@<SCITEGIC>MOL_PROPERTY
W(PB)
SciTegic.value.DoubleValue
-66.329

@<SCITEGIC>MOL_PROPERTY
W(SA)
SciTegic.value.DoubleValue
1.942

@<SCITEGIC>MOL_PROPERTY
Valence
SciTegic.value.DoubleValue
6.246

@<SCITEGIC>MOL_PROPERTY
Coulomb
SciTegic.value.DoubleValue
-0.408

@<SCITEGIC>MOL_PROPERTY
VdW
SciTegic.value.DoubleValue
0.460

@<SCITEGIC>MOL_PROPERTY
VdW6
SciTegic.value.DoubleValue
-4.207

@<SCITEGIC>MOL_PROPERTY
VdW12
SciTegic.value.DoubleValue
4.667

@<SCITEGIC>MOL_PROPERTY
Bond
SciTegic.value.DoubleValue
0.072

@<SCITEGIC>MOL_PROPERTY
Angle
SciTegic.value.DoubleValue
2.246

@<SCITEGIC>MOL_PROPERTY
Pdih
SciTegic.value.DoubleValue
3.928

@<SCITEGIC>MOL_PROPERTY
Idih
SciTegic.value.DoubleValue
0.001

@<SCITEGIC>MOL_PROPERTY
Tether
SciTegic.value.DoubleValue
0.000

@<TRIPOS>MOLECULE
guest-s18_confgen4.mol2 : confsearch ligand conformer 33
          16          15           1
SMALL
USER_CHARGES
 
@<TRIPOS>ATOM
       1    C1      22.030672   20.107269   23.215712 C.2        1 MOL1         0.6075
       2    O1      23.167784   19.833260   22.887245 O.co2      1 MOL1        -0.6830
       3    O2      21.732260   20.527285   24.315937 O.co2      1 MOL1        -0.6830
       4    C2      20.915454   19.893262   22.198333 C.3        1 MOL1        -0.2050
       5    H1      21.327414   20.074554   21.198339 H          1 MOL1         0.0710
       6    H2      20.148757   20.655682   22.377237 H          1 MOL1         0.0710
       7    C3      20.298690   18.472313   22.272486 C.3        1 MOL1        -0.1947
       8    H3      21.104906   17.731905   22.176362 H          1 MOL1         0.0712
       9    H4      19.851784   18.318000   23.264339 H          1 MOL1         0.0712
      10    C4      19.242651   18.201855   21.176109 C.3        1 MOL1        -0.1921
      11    H5      18.939014   17.147277   21.230686 H          1 MOL1         0.0712
      12    H6      19.692578   18.344670   20.183864 H          1 MOL1         0.0712
      13    C5      17.986366   19.088994   21.309019 C.3        1 MOL1        -0.2936
      14    H7      18.224355   20.147800   21.147542 H          1 MOL1         0.0724
      15    H8      17.535270   18.984701   22.304451 H          1 MOL1         0.0724
      16    H9      17.232760   18.800747   20.564708 H          1 MOL1         0.0724
@<TRIPOS>BOND
    1     1     2    1
    2     1     3    2
    3     1     4    1
    4     4     5    1
    5     4     6    1
    6     4     7    1
    7     7     8    1
    8     7     9    1
    9     7    10    1
   10    10    11    1
   11    10    12    1
   12    10    13    1
   13    13    14    1
   14    13    15    1
   15    13    16    1
@<TRIPOS>SUBSTRUCTURE
       1 MOL1            1 RESIDUE      1      MOL     
@<SCITEGIC>MOL_PROPERTY
VConf Rank
SciTegic.value.IntegerValue
33

@<SCITEGIC>MOL_PROPERTY
Conf_Id
SciTegic.value.IntegerValue
36

@<SCITEGIC>MOL_PROPERTY
Delta U+W
SciTegic.value.DoubleValue
-0.427

@<SCITEGIC>MOL_PROPERTY
U+W
SciTegic.value.DoubleValue
-57.331

@<SCITEGIC>MOL_PROPERTY
Grad RMS
SciTegic.value.DoubleValue
0.000000

@<SCITEGIC>MOL_PROPERTY
U
SciTegic.value.DoubleValue
7.263

@<SCITEGIC>MOL_PROPERTY
W
SciTegic.value.DoubleValue
-64.594

@<SCITEGIC>MOL_PROPERTY
W(PB)
SciTegic.value.DoubleValue
-66.513

@<SCITEGIC>MOL_PROPERTY
W(SA)
SciTegic.value.DoubleValue
1.920

@<SCITEGIC>MOL_PROPERTY
Valence
SciTegic.value.DoubleValue
6.734

@<SCITEGIC>MOL_PROPERTY
Coulomb
SciTegic.value.DoubleValue
-0.068

@<SCITEGIC>MOL_PROPERTY
VdW
SciTegic.value.DoubleValue
0.598

@<SCITEGIC>MOL_PROPERTY
VdW6
SciTegic.value.DoubleValue
-4.819

@<SCITEGIC>MOL_PROPERTY
VdW12
SciTegic.value.DoubleValue
5.417

@<SCITEGIC>MOL_PROPERTY
Bond
SciTegic.value.DoubleValue
0.107

@<SCITEGIC>MOL_PROPERTY
Angle
SciTegic.value.DoubleValue
2.469

@<SCITEGIC>MOL_PROPERTY
Pdih
SciTegic.value.DoubleValue
4.157

@<SCITEGIC>MOL_PROPERTY
Idih
SciTegic.value.DoubleValue
0.001

@<SCITEGIC>MOL_PROPERTY
Tether
SciTegic.value.DoubleValue
0.000

@<TRIPOS>MOLECULE
guest-s18_confgen4.mol2 : confsearch ligand conformer 34
          16          15           1
SMALL
USER_CHARGES
 
@<TRIPOS>ATOM
       1    C1      18.514834   19.630430   19.901508 C.2        1 MOL1         0.6075
       2    O1      17.358833   19.303823   20.083026 O.co2      1 MOL1        -0.6830
       3    O2      18.998205   19.805622   18.800756 O.co2      1 MOL1        -0.6830
       4    C2      19.413365   19.810786   21.119984 C.3        1 MOL1        -0.2050
       5    H1      18.791699   20.184570   21.941528 H          1 MOL1         0.0710
       6    H2      20.149106   20.590207   20.888132 H          1 MOL1         0.0710
       7    C3      20.134382   18.501762   21.534213 C.3        1 MOL1        -0.1947
       8    H3      19.388097   17.742149   21.805058 H          1 MOL1         0.0712
       9    H4      20.677636   18.107303   20.664324 H          1 MOL1         0.0712
      10    C4      21.132974   18.691427   22.699223 C.3        1 MOL1        -0.1921
      11    H5      21.886290   19.442531   22.424019 H          1 MOL1         0.0712
      12    H6      21.676311   17.749279   22.855587 H          1 MOL1         0.0712
      13    C5      20.452806   19.099398   24.023558 C.3        1 MOL1        -0.2936
      14    H7      19.991145   20.091843   23.948026 H          1 MOL1         0.0724
      15    H8      21.188762   19.136539   24.837189 H          1 MOL1         0.0724
      16    H9      19.674843   18.377470   24.304349 H          1 MOL1         0.0724
@<TRIPOS>BOND
    1     1     2    1
    2     1     3    2
    3     1     4    1
    4     4     5    1
    5     4     6    1
    6     4     7    1
    7     7     8    1
    8     7     9    1
    9     7    10    1
   10    10    11    1
   11    10    12    1
   12    10    13    1
   13    13    14    1
   14    13    15    1
   15    13    16    1
@<TRIPOS>SUBSTRUCTURE
       1 MOL1            1 RESIDUE      1      MOL     
@<SCITEGIC>MOL_PROPERTY
VConf Rank
SciTegic.value.IntegerValue
34

@<SCITEGIC>MOL_PROPERTY
Conf_Id
SciTegic.value.IntegerValue
17

@<SCITEGIC>MOL_PROPERTY
Delta U+W
SciTegic.value.DoubleValue
-0.432

@<SCITEGIC>MOL_PROPERTY
U+W
SciTegic.value.DoubleValue
-57.336

@<SCITEGIC>MOL_PROPERTY
Grad RMS
SciTegic.value.DoubleValue
0.000000

@<SCITEGIC>MOL_PROPERTY
U
SciTegic.value.DoubleValue
7.263

@<SCITEGIC>MOL_PROPERTY
W
SciTegic.value.DoubleValue
-64.599

@<SCITEGIC>MOL_PROPERTY
W(PB)
SciTegic.value.DoubleValue
-66.503

@<SCITEGIC>MOL_PROPERTY
W(SA)
SciTegic.value.DoubleValue
1.904

@<SCITEGIC>MOL_PROPERTY
Valence
SciTegic.value.DoubleValue
6.734

@<SCITEGIC>MOL_PROPERTY
Coulomb
SciTegic.value.DoubleValue
-0.068

@<SCITEGIC>MOL_PROPERTY
VdW
SciTegic.value.DoubleValue
0.598

@<SCITEGIC>MOL_PROPERTY
VdW6
SciTegic.value.DoubleValue
-4.819

@<SCITEGIC>MOL_PROPERTY
VdW12
SciTegic.value.DoubleValue
5.417

@<SCITEGIC>MOL_PROPERTY
Bond
SciTegic.value.DoubleValue
0.107

@<SCITEGIC>MOL_PROPERTY
Angle
SciTegic.value.DoubleValue
2.469

@<SCITEGIC>MOL_PROPERTY
Pdih
SciTegic.value.DoubleValue
4.157

@<SCITEGIC>MOL_PROPERTY
Idih
SciTegic.value.DoubleValue
0.001

@<SCITEGIC>MOL_PROPERTY
Tether
SciTegic.value.DoubleValue
0.000

@<TRIPOS>MOLECULE
guest-s18_confgen4.mol2 : confsearch ligand conformer 35
          16          15           1
SMALL
USER_CHARGES
 
@<TRIPOS>ATOM
       1    C1      18.011811   20.074808   22.551270 C.2        1 MOL1         0.6075
       2    O1      17.125641   19.645808   21.839228 O.co2      1 MOL1        -0.6830
       3    O2      17.923949   20.149453   23.760803 O.co2      1 MOL1        -0.6830
       4    C2      19.294038   20.568187   21.886466 C.3        1 MOL1        -0.2050
       5    H1      19.823750   21.222934   22.589171 H          1 MOL1         0.0710
       6    H2      19.002297   21.190313   21.032018 H          1 MOL1         0.0710
       7    C3      20.232532   19.432393   21.402488 C.3        1 MOL1        -0.1947
       8    H3      19.680515   18.768852   20.722330 H          1 MOL1         0.0712
       9    H4      21.052605   19.872091   20.818789 H          1 MOL1         0.0712
      10    C4      20.822218   18.611412   22.569726 C.3        1 MOL1        -0.1921
      11    H5      20.010741   18.149497   23.149263 H          1 MOL1         0.0712
      12    H6      21.363300   19.278003   23.255484 H          1 MOL1         0.0712
      13    C5      21.776762   17.511986   22.063315 C.3        1 MOL1        -0.2936
      14    H7      21.252499   16.812679   21.398810 H          1 MOL1         0.0724
      15    H8      22.186072   16.937803   22.904681 H          1 MOL1         0.0724
      16    H9      22.618370   17.947061   21.508499 H          1 MOL1         0.0724
@<TRIPOS>BOND
    1     1     2    1
    2     1     3    2
    3     1     4    1
    4     4     5    1
    5     4     6    1
    6     4     7    1
    7     7     8    1
    8     7     9    1
    9     7    10    1
   10    10    11    1
   11    10    12    1
   12    10    13    1
   13    13    14    1
   14    13    15    1
   15    13    16    1
@<TRIPOS>SUBSTRUCTURE
       1 MOL1            1 RESIDUE      1      MOL     
@<SCITEGIC>MOL_PROPERTY
VConf Rank
SciTegic.value.IntegerValue
35

@<SCITEGIC>MOL_PROPERTY
Conf_Id
SciTegic.value.IntegerValue
19

@<SCITEGIC>MOL_PROPERTY
Delta U+W
SciTegic.value.DoubleValue
0.048

@<SCITEGIC>MOL_PROPERTY
U+W
SciTegic.value.DoubleValue
-56.856

@<SCITEGIC>MOL_PROPERTY
Grad RMS
SciTegic.value.DoubleValue
0.000000

@<SCITEGIC>MOL_PROPERTY
U
SciTegic.value.DoubleValue
8.276

@<SCITEGIC>MOL_PROPERTY
W
SciTegic.value.DoubleValue
-65.132

@<SCITEGIC>MOL_PROPERTY
W(PB)
SciTegic.value.DoubleValue
-67.031

@<SCITEGIC>MOL_PROPERTY
W(SA)
SciTegic.value.DoubleValue
1.899

@<SCITEGIC>MOL_PROPERTY
Valence
SciTegic.value.DoubleValue
6.513

@<SCITEGIC>MOL_PROPERTY
Coulomb
SciTegic.value.DoubleValue
1.428

@<SCITEGIC>MOL_PROPERTY
VdW
SciTegic.value.DoubleValue
0.335

@<SCITEGIC>MOL_PROPERTY
VdW6
SciTegic.value.DoubleValue
-5.021

@<SCITEGIC>MOL_PROPERTY
VdW12
SciTegic.value.DoubleValue
5.356

@<SCITEGIC>MOL_PROPERTY
Bond
SciTegic.value.DoubleValue
0.092

@<SCITEGIC>MOL_PROPERTY
Angle
SciTegic.value.DoubleValue
2.417

@<SCITEGIC>MOL_PROPERTY
Pdih
SciTegic.value.DoubleValue
4.003

@<SCITEGIC>MOL_PROPERTY
Idih
SciTegic.value.DoubleValue
0.001

@<SCITEGIC>MOL_PROPERTY
Tether
SciTegic.value.DoubleValue
0.000

@<TRIPOS>MOLECULE
guest-s18_confgen4.mol2 : confsearch ligand conformer 36
          16          15           1
SMALL
USER_CHARGES
 
@<TRIPOS>ATOM
       1    C1      19.007128   17.101466   22.882651 C.2        1 MOL1         0.6075
       2    O1      18.191209   17.225273   23.774441 O.co2      1 MOL1        -0.6830
       3    O2      19.948528   16.335188   22.936002 O.co2      1 MOL1        -0.6830
       4    C2      18.824453   17.937375   21.618774 C.3        1 MOL1        -0.2050
       5    H1      17.767685   17.874084   21.333346 H          1 MOL1         0.0710
       6    H2      19.400255   17.476127   20.807117 H          1 MOL1         0.0710
       7    C3      19.227707   19.425963   21.781680 C.3        1 MOL1        -0.1947
       8    H3      18.934788   19.975634   20.876904 H          1 MOL1         0.0712
       9    H4      18.664237   19.866699   22.615872 H          1 MOL1         0.0712
      10    C4      20.742413   19.608314   22.019594 C.3        1 MOL1        -0.1921
      11    H5      21.304804   19.156276   21.190886 H          1 MOL1         0.0712
      12    H6      21.043478   19.079026   22.934437 H          1 MOL1         0.0712
      13    C5      21.120813   21.097483   22.144262 C.3        1 MOL1        -0.2936
      14    H7      20.862769   21.646589   21.229215 H          1 MOL1         0.0724
      15    H8      22.199635   21.209318   22.313828 H          1 MOL1         0.0724
      16    H9      20.594895   21.566860   22.986013 H          1 MOL1         0.0724
@<TRIPOS>BOND
    1     1     2    1
    2     1     3    2
    3     1     4    1
    4     4     5    1
    5     4     6    1
    6     4     7    1
    7     7     8    1
    8     7     9    1
    9     7    10    1
   10    10    11    1
   11    10    12    1
   12    10    13    1
   13    13    14    1
   14    13    15    1
   15    13    16    1
@<TRIPOS>SUBSTRUCTURE
       1 MOL1            1 RESIDUE      1      MOL     
@<SCITEGIC>MOL_PROPERTY
VConf Rank
SciTegic.value.IntegerValue
36

@<SCITEGIC>MOL_PROPERTY
Conf_Id
SciTegic.value.IntegerValue
20

@<SCITEGIC>MOL_PROPERTY
Delta U+W
SciTegic.value.DoubleValue
-0.010

@<SCITEGIC>MOL_PROPERTY
U+W
SciTegic.value.DoubleValue
-56.914

@<SCITEGIC>MOL_PROPERTY
Grad RMS
SciTegic.value.DoubleValue
0.000000

@<SCITEGIC>MOL_PROPERTY
U
SciTegic.value.DoubleValue
8.277

@<SCITEGIC>MOL_PROPERTY
W
SciTegic.value.DoubleValue
-65.191

@<SCITEGIC>MOL_PROPERTY
W(PB)
SciTegic.value.DoubleValue
-67.081

@<SCITEGIC>MOL_PROPERTY
W(SA)
SciTegic.value.DoubleValue
1.890

@<SCITEGIC>MOL_PROPERTY
Valence
SciTegic.value.DoubleValue
6.513

@<SCITEGIC>MOL_PROPERTY
Coulomb
SciTegic.value.DoubleValue
1.429

@<SCITEGIC>MOL_PROPERTY
VdW
SciTegic.value.DoubleValue
0.335

@<SCITEGIC>MOL_PROPERTY
VdW6
SciTegic.value.DoubleValue
-5.021

@<SCITEGIC>MOL_PROPERTY
VdW12
SciTegic.value.DoubleValue
5.356

@<SCITEGIC>MOL_PROPERTY
Bond
SciTegic.value.DoubleValue
0.092

@<SCITEGIC>MOL_PROPERTY
Angle
SciTegic.value.DoubleValue
2.417

@<SCITEGIC>MOL_PROPERTY
Pdih
SciTegic.value.DoubleValue
4.002

@<SCITEGIC>MOL_PROPERTY
Idih
SciTegic.value.DoubleValue
0.001

@<SCITEGIC>MOL_PROPERTY
Tether
SciTegic.value.DoubleValue
0.000

@<TRIPOS>MOLECULE
guest-s18_confgen4.mol2 : confsearch ligand conformer 37
          16          15           1
SMALL
USER_CHARGES
 
@<TRIPOS>ATOM
       1    C1      18.425341   18.169918   23.424495 C.2        1 MOL1         0.6075
       2    O1      18.687184   17.751182   24.534848 O.co2      1 MOL1        -0.6830
       3    O2      17.813081   17.528813   22.593579 O.co2      1 MOL1        -0.6830
       4    C2      18.860119   19.589340   23.069596 C.3        1 MOL1        -0.2050
       5    H1      18.520199   20.245857   23.879115 H          1 MOL1         0.0710
       6    H2      18.324237   19.906408   22.167628 H          1 MOL1         0.0710
       7    C3      20.393017   19.757067   22.883130 C.3        1 MOL1        -0.1947
       8    H3      20.620951   20.817628   22.711001 H          1 MOL1         0.0712
       9    H4      20.894626   19.482601   23.821433 H          1 MOL1         0.0712
      10    C4      20.991379   18.914529   21.731574 C.3        1 MOL1        -0.1921
      11    H5      20.800131   17.847195   21.909958 H          1 MOL1         0.0712
      12    H6      22.083138   19.037721   21.735197 H          1 MOL1         0.0712
      13    C5      20.450058   19.311839   20.341768 C.3        1 MOL1        -0.2936
      14    H7      19.379291   19.088143   20.252863 H          1 MOL1         0.0724
      15    H8      20.971780   18.754294   19.553218 H          1 MOL1         0.0724
      16    H9      20.597070   20.383212   20.153057 H          1 MOL1         0.0724
@<TRIPOS>BOND
    1     1     2    1
    2     1     3    2
    3     1     4    1
    4     4     5    1
    5     4     6    1
    6     4     7    1
    7     7     8    1
    8     7     9    1
    9     7    10    1
   10    10    11    1
   11    10    12    1
   12    10    13    1
   13    13    14    1
   14    13    15    1
   15    13    16    1
@<TRIPOS>SUBSTRUCTURE
       1 MOL1            1 RESIDUE      1      MOL     
@<SCITEGIC>MOL_PROPERTY
VConf Rank
SciTegic.value.IntegerValue
37

@<SCITEGIC>MOL_PROPERTY
Conf_Id
SciTegic.value.IntegerValue
37

@<SCITEGIC>MOL_PROPERTY
Delta U+W
SciTegic.value.DoubleValue
1.063

@<SCITEGIC>MOL_PROPERTY
U+W
SciTegic.value.DoubleValue
-55.841

@<SCITEGIC>MOL_PROPERTY
Grad RMS
SciTegic.value.DoubleValue
0.000000

@<SCITEGIC>MOL_PROPERTY
U
SciTegic.value.DoubleValue
9.719

@<SCITEGIC>MOL_PROPERTY
W
SciTegic.value.DoubleValue
-65.560

@<SCITEGIC>MOL_PROPERTY
W(PB)
SciTegic.value.DoubleValue
-67.414

@<SCITEGIC>MOL_PROPERTY
W(SA)
SciTegic.value.DoubleValue
1.854

@<SCITEGIC>MOL_PROPERTY
Valence
SciTegic.value.DoubleValue
7.002

@<SCITEGIC>MOL_PROPERTY
Coulomb
SciTegic.value.DoubleValue
2.402

@<SCITEGIC>MOL_PROPERTY
VdW
SciTegic.value.DoubleValue
0.314

@<SCITEGIC>MOL_PROPERTY
VdW6
SciTegic.value.DoubleValue
-5.861

@<SCITEGIC>MOL_PROPERTY
VdW12
SciTegic.value.DoubleValue
6.175

@<SCITEGIC>MOL_PROPERTY
Bond
SciTegic.value.DoubleValue
0.134

@<SCITEGIC>MOL_PROPERTY
Angle
SciTegic.value.DoubleValue
2.733

@<SCITEGIC>MOL_PROPERTY
Pdih
SciTegic.value.DoubleValue
4.133

@<SCITEGIC>MOL_PROPERTY
Idih
SciTegic.value.DoubleValue
0.002

@<SCITEGIC>MOL_PROPERTY
Tether
SciTegic.value.DoubleValue
0.000

@<TRIPOS>MOLECULE
guest-s18_confgen4.mol2 : confsearch ligand conformer 38
          16          15           1
SMALL
USER_CHARGES
 
@<TRIPOS>ATOM
       1    C1      22.264322   19.437439   22.222360 C.2        1 MOL1         0.6075
       2    O1      23.045709   18.769513   21.574215 O.co2      1 MOL1        -0.6830
       3    O2      22.314905   20.649479   22.290927 O.co2      1 MOL1        -0.6830
       4    C2      21.184492   18.710307   23.019225 C.3        1 MOL1        -0.2050
       5    H1      20.752299   19.408710   23.744961 H          1 MOL1         0.0710
       6    H2      21.682291   17.926328   23.601852 H          1 MOL1         0.0710
       7    C3      20.071270   18.070542   22.145087 C.3        1 MOL1        -0.1947
       8    H3      20.531841   17.338024   21.467853 H          1 MOL1         0.0712
       9    H4      19.386710   17.504578   22.791179 H          1 MOL1         0.0712
      10    C4      19.257634   19.084380   21.305968 C.3        1 MOL1        -0.1921
      11    H5      18.557645   18.530370   20.665486 H          1 MOL1         0.0712
      12    H6      19.927328   19.633397   20.629442 H          1 MOL1         0.0712
      13    C5      18.458683   20.085257   22.167574 C.3        1 MOL1        -0.2936
      14    H7      17.806605   19.560876   22.878126 H          1 MOL1         0.0724
      15    H8      17.826786   20.719239   21.532253 H          1 MOL1         0.0724
      16    H9      19.127779   20.745709   22.733791 H          1 MOL1         0.0724
@<TRIPOS>BOND
    1     1     2    1
    2     1     3    2
    3     1     4    1
    4     4     5    1
    5     4     6    1
    6     4     7    1
    7     7     8    1
    8     7     9    1
    9     7    10    1
   10    10    11    1
   11    10    12    1
   12    10    13    1
   13    13    14    1
   14    13    15    1
   15    13    16    1
@<TRIPOS>SUBSTRUCTURE
       1 MOL1            1 RESIDUE      1      MOL     
@<SCITEGIC>MOL_PROPERTY
VConf Rank
SciTegic.value.IntegerValue
38

@<SCITEGIC>MOL_PROPERTY
Conf_Id
SciTegic.value.IntegerValue
39

@<SCITEGIC>MOL_PROPERTY
Delta U+W
SciTegic.value.DoubleValue
1.129

@<SCITEGIC>MOL_PROPERTY
U+W
SciTegic.value.DoubleValue
-55.775

@<SCITEGIC>MOL_PROPERTY
Grad RMS
SciTegic.value.DoubleValue
0.000000

@<SCITEGIC>MOL_PROPERTY
U
SciTegic.value.DoubleValue
9.718

@<SCITEGIC>MOL_PROPERTY
W
SciTegic.value.DoubleValue
-65.493

@<SCITEGIC>MOL_PROPERTY
W(PB)
SciTegic.value.DoubleValue
-67.361

@<SCITEGIC>MOL_PROPERTY
W(SA)
SciTegic.value.DoubleValue
1.869

@<SCITEGIC>MOL_PROPERTY
Valence
SciTegic.value.DoubleValue
7.002

@<SCITEGIC>MOL_PROPERTY
Coulomb
SciTegic.value.DoubleValue
2.402

@<SCITEGIC>MOL_PROPERTY
VdW
SciTegic.value.DoubleValue
0.314

@<SCITEGIC>MOL_PROPERTY
VdW6
SciTegic.value.DoubleValue
-5.861

@<SCITEGIC>MOL_PROPERTY
VdW12
SciTegic.value.DoubleValue
6.175

@<SCITEGIC>MOL_PROPERTY
Bond
SciTegic.value.DoubleValue
0.134

@<SCITEGIC>MOL_PROPERTY
Angle
SciTegic.value.DoubleValue
2.734

@<SCITEGIC>MOL_PROPERTY
Pdih
SciTegic.value.DoubleValue
4.133

@<SCITEGIC>MOL_PROPERTY
Idih
SciTegic.value.DoubleValue
0.002

@<SCITEGIC>MOL_PROPERTY
Tether
SciTegic.value.DoubleValue
0.000

@<TRIPOS>MOLECULE
guest-s18_confgen4.mol2 : confsearch ligand conformer 39
          16          15           1
SMALL
USER_CHARGES
 
@<TRIPOS>ATOM
       1    C1      20.778312   18.829261   24.042763 C.2        1 MOL1         0.6075
       2    O1      21.482305   17.838714   24.048277 O.co2      1 MOL1        -0.6830
       3    O2      19.971084   19.080694   24.915874 O.co2      1 MOL1        -0.6830
       4    C2      20.983794   19.853596   22.928235 C.3        1 MOL1        -0.2050
       5    H1      21.796556   19.512525   22.275496 H          1 MOL1         0.0710
       6    H2      21.335969   20.771374   23.413421 H          1 MOL1         0.0710
       7    C3      19.719018   20.181525   22.085747 C.3        1 MOL1        -0.1947
       8    H3      18.853915   20.322892   22.748432 H          1 MOL1         0.0712
       9    H4      19.882567   21.148514   21.591140 H          1 MOL1         0.0712
      10    C4      19.384246   19.141471   20.989491 C.3        1 MOL1        -0.1921
      11    H5      20.252157   19.001596   20.330403 H          1 MOL1         0.0712
      12    H6      18.580805   19.547410   20.359421 H          1 MOL1         0.0712
      13    C5      18.927959   17.775834   21.543679 C.3        1 MOL1        -0.2936
      14    H7      19.751803   17.252260   22.043830 H          1 MOL1         0.0724
      15    H8      18.572842   17.130526   20.729898 H          1 MOL1         0.0724
      16    H9      18.107956   17.896627   22.263632 H          1 MOL1         0.0724
@<TRIPOS>BOND
    1     1     2    1
    2     1     3    2
    3     1     4    1
    4     4     5    1
    5     4     6    1
    6     4     7    1
    7     7     8    1
    8     7     9    1
    9     7    10    1
   10    10    11    1
   11    10    12    1
   12    10    13    1
   13    13    14    1
   14    13    15    1
   15    13    16    1
@<TRIPOS>SUBSTRUCTURE
       1 MOL1            1 RESIDUE      1      MOL     
@<SCITEGIC>MOL_PROPERTY
VConf Rank
SciTegic.value.IntegerValue
39

@<SCITEGIC>MOL_PROPERTY
Conf_Id
SciTegic.value.IntegerValue
47

@<SCITEGIC>MOL_PROPERTY
Delta U+W
SciTegic.value.DoubleValue
2.301

@<SCITEGIC>MOL_PROPERTY
U+W
SciTegic.value.DoubleValue
-54.603

@<SCITEGIC>MOL_PROPERTY
Grad RMS
SciTegic.value.DoubleValue
0.000000

@<SCITEGIC>MOL_PROPERTY
U
SciTegic.value.DoubleValue
11.258

@<SCITEGIC>MOL_PROPERTY
W
SciTegic.value.DoubleValue
-65.861

@<SCITEGIC>MOL_PROPERTY
W(PB)
SciTegic.value.DoubleValue
-67.702

@<SCITEGIC>MOL_PROPERTY
W(SA)
SciTegic.value.DoubleValue
1.841

@<SCITEGIC>MOL_PROPERTY
Valence
SciTegic.value.DoubleValue
8.169

@<SCITEGIC>MOL_PROPERTY
Coulomb
SciTegic.value.DoubleValue
2.735

@<SCITEGIC>MOL_PROPERTY
VdW
SciTegic.value.DoubleValue
0.355

@<SCITEGIC>MOL_PROPERTY
VdW6
SciTegic.value.DoubleValue
-6.245

@<SCITEGIC>MOL_PROPERTY
VdW12
SciTegic.value.DoubleValue
6.600

@<SCITEGIC>MOL_PROPERTY
Bond
SciTegic.value.DoubleValue
0.149

@<SCITEGIC>MOL_PROPERTY
Angle
SciTegic.value.DoubleValue
3.168

@<SCITEGIC>MOL_PROPERTY
Pdih
SciTegic.value.DoubleValue
4.840

@<SCITEGIC>MOL_PROPERTY
Idih
SciTegic.value.DoubleValue
0.011

@<SCITEGIC>MOL_PROPERTY
Tether
SciTegic.value.DoubleValue
0.000

@<TRIPOS>MOLECULE
guest-s18_confgen4.mol2 : confsearch ligand conformer 40
          16          15           1
SMALL
USER_CHARGES
 
@<TRIPOS>ATOM
       1    C1      18.108843   19.846212   21.699215 C.2        1 MOL1         0.6075
       2    O1      17.360344   18.917894   21.464406 O.co2      1 MOL1        -0.6830
       3    O2      18.245134   20.799184   20.957536 O.co2      1 MOL1        -0.6830
       4    C2      18.848536   19.861092   23.035740 C.3        1 MOL1        -0.2050
       5    H1      18.077856   19.886856   23.814930 H          1 MOL1         0.0710
       6    H2      19.412059   20.798163   23.121294 H          1 MOL1         0.0710
       7    C3      19.783879   18.645800   23.291055 C.3        1 MOL1        -0.1947
       8    H3      19.960316   18.575260   24.372881 H          1 MOL1         0.0712
       9    H4      19.274463   17.714783   23.006023 H          1 MOL1         0.0712
      10    C4      21.162469   18.732398   22.592805 C.3        1 MOL1        -0.1921
      11    H5      21.792799   17.913414   22.965958 H          1 MOL1         0.0712
      12    H6      21.667627   19.665252   22.878864 H          1 MOL1         0.0712
      13    C5      21.090272   18.631771   21.054967 C.3        1 MOL1        -0.2936
      14    H7      22.098464   18.558232   20.627289 H          1 MOL1         0.0724
      15    H8      20.611034   19.516705   20.618820 H          1 MOL1         0.0724
      16    H9      20.524062   17.744001   20.744162 H          1 MOL1         0.0724
@<TRIPOS>BOND
    1     1     2    1
    2     1     3    2
    3     1     4    1
    4     4     5    1
    5     4     6    1
    6     4     7    1
    7     7     8    1
    8     7     9    1
    9     7    10    1
   10    10    11    1
   11    10    12    1
   12    10    13    1
   13    13    14    1
   14    13    15    1
   15    13    16    1
@<TRIPOS>SUBSTRUCTURE
       1 MOL1            1 RESIDUE      1      MOL     
@<SCITEGIC>MOL_PROPERTY
VConf Rank
SciTegic.value.IntegerValue
40

@<SCITEGIC>MOL_PROPERTY
Conf_Id
SciTegic.value.IntegerValue
45

@<SCITEGIC>MOL_PROPERTY
Delta U+W
SciTegic.value.DoubleValue
2.303

@<SCITEGIC>MOL_PROPERTY
U+W
SciTegic.value.DoubleValue
-54.601

@<SCITEGIC>MOL_PROPERTY
Grad RMS
SciTegic.value.DoubleValue
0.000000

@<SCITEGIC>MOL_PROPERTY
U
SciTegic.value.DoubleValue
11.258

@<SCITEGIC>MOL_PROPERTY
W
SciTegic.value.DoubleValue
-65.860

@<SCITEGIC>MOL_PROPERTY
W(PB)
SciTegic.value.DoubleValue
-67.709

@<SCITEGIC>MOL_PROPERTY
W(SA)
SciTegic.value.DoubleValue
1.849

@<SCITEGIC>MOL_PROPERTY
Valence
SciTegic.value.DoubleValue
8.169

@<SCITEGIC>MOL_PROPERTY
Coulomb
SciTegic.value.DoubleValue
2.735

@<SCITEGIC>MOL_PROPERTY
VdW
SciTegic.value.DoubleValue
0.355

@<SCITEGIC>MOL_PROPERTY
VdW6
SciTegic.value.DoubleValue
-6.245

@<SCITEGIC>MOL_PROPERTY
VdW12
SciTegic.value.DoubleValue
6.600

@<SCITEGIC>MOL_PROPERTY
Bond
SciTegic.value.DoubleValue
0.149

@<SCITEGIC>MOL_PROPERTY
Angle
SciTegic.value.DoubleValue
3.168

@<SCITEGIC>MOL_PROPERTY
Pdih
SciTegic.value.DoubleValue
4.840

@<SCITEGIC>MOL_PROPERTY
Idih
SciTegic.value.DoubleValue
0.011

@<SCITEGIC>MOL_PROPERTY
Tether
SciTegic.value.DoubleValue
0.000

@<TRIPOS>MOLECULE
guest-s18_confgen4.mol2 : confsearch ligand conformer 41
          16          15           1
SMALL
USER_CHARGES
 
@<TRIPOS>ATOM
       1    C1      18.309295   17.526497   20.438915 C.2        1 MOL1         0.6075
       2    O1      18.020253   16.798563   21.368616 O.co2      1 MOL1        -0.6830
       3    O2      17.861089   17.380627   19.319475 O.co2      1 MOL1        -0.6830
       4    C2      19.279864   18.688618   20.656552 C.3        1 MOL1        -0.2050
       5    H1      18.760266   19.608335   20.362785 H          1 MOL1         0.0710
       6    H2      20.113604   18.554016   19.957323 H          1 MOL1         0.0710
       7    C3      19.826781   18.834961   22.101479 C.3        1 MOL1        -0.1947
       8    H3      18.986756   18.964043   22.798018 H          1 MOL1         0.0712
       9    H4      20.341499   17.908647   22.392127 H          1 MOL1         0.0712
      10    C4      20.795576   20.029211   22.229781 C.3        1 MOL1        -0.1921
      11    H5      20.281521   20.956516   21.941072 H          1 MOL1         0.0712
      12    H6      21.637080   19.900499   21.534940 H          1 MOL1         0.0712
      13    C5      21.335285   20.169329   23.666869 C.3        1 MOL1        -0.2936
      14    H7      20.516203   20.330685   24.379988 H          1 MOL1         0.0724
      15    H8      22.022087   21.022554   23.740700 H          1 MOL1         0.0724
      16    H9      21.881766   19.266880   23.970865 H          1 MOL1         0.0724
@<TRIPOS>BOND
    1     1     2    1
    2     1     3    2
    3     1     4    1
    4     4     5    1
    5     4     6    1
    6     4     7    1
    7     7     8    1
    8     7     9    1
    9     7    10    1
   10    10    11    1
   11    10    12    1
   12    10    13    1
   13    13    14    1
   14    13    15    1
   15    13    16    1
@<TRIPOS>SUBSTRUCTURE
       1 MOL1            1 RESIDUE      1      MOL     
@<SCITEGIC>MOL_PROPERTY
VConf Rank
SciTegic.value.IntegerValue
41

@<SCITEGIC>MOL_PROPERTY
Conf_Id
SciTegic.value.IntegerValue
0

@<SCITEGIC>MOL_PROPERTY
Delta U+W
SciTegic.value.DoubleValue
0.000

@<SCITEGIC>MOL_PROPERTY
U+W
SciTegic.value.DoubleValue
-56.904

@<SCITEGIC>MOL_PROPERTY
Grad RMS
SciTegic.value.DoubleValue
0.000000

@<SCITEGIC>MOL_PROPERTY
U
SciTegic.value.DoubleValue
7.329

@<SCITEGIC>MOL_PROPERTY
W
SciTegic.value.DoubleValue
-64.233

@<SCITEGIC>MOL_PROPERTY
W(PB)
SciTegic.value.DoubleValue
-66.148

@<SCITEGIC>MOL_PROPERTY
W(SA)
SciTegic.value.DoubleValue
1.915

@<SCITEGIC>MOL_PROPERTY
Valence
SciTegic.value.DoubleValue
6.755

@<SCITEGIC>MOL_PROPERTY
Coulomb
SciTegic.value.DoubleValue
-0.421

@<SCITEGIC>MOL_PROPERTY
VdW
SciTegic.value.DoubleValue
0.995

@<SCITEGIC>MOL_PROPERTY
VdW6
SciTegic.value.DoubleValue
-4.495

@<SCITEGIC>MOL_PROPERTY
VdW12
SciTegic.value.DoubleValue
5.490

@<SCITEGIC>MOL_PROPERTY
Bond
SciTegic.value.DoubleValue
0.106

@<SCITEGIC>MOL_PROPERTY
Angle
SciTegic.value.DoubleValue
2.715

@<SCITEGIC>MOL_PROPERTY
Pdih
SciTegic.value.DoubleValue
3.934

@<SCITEGIC>MOL_PROPERTY
Idih
SciTegic.value.DoubleValue
0.000

@<SCITEGIC>MOL_PROPERTY
Tether
SciTegic.value.DoubleValue
0.000

@<TRIPOS>MOLECULE
guest-s18_confgen4.mol2 : confsearch ligand conformer 42
          16          15           1
SMALL
USER_CHARGES
 
@<TRIPOS>ATOM
       1    C1      18.263274   18.910348   19.874267 C.2        1 MOL1         0.6075
       2    O1      17.185305   19.434278   20.072568 O.co2      1 MOL1        -0.6830
       3    O2      18.771795   18.814527   18.775146 O.co2      1 MOL1        -0.6830
       4    C2      19.027948   18.359148   21.072613 C.3        1 MOL1        -0.2050
       5    H1      19.605318   17.488859   20.737812 H          1 MOL1         0.0710
       6    H2      18.297368   17.999927   21.807503 H          1 MOL1         0.0710
       7    C3      19.967328   19.405481   21.721315 C.3        1 MOL1        -0.1947
       8    H3      20.684616   19.764481   20.970205 H          1 MOL1         0.0712
       9    H4      19.376618   20.275610   22.039887 H          1 MOL1         0.0712
      10    C4      20.728280   18.822563   22.930332 C.3        1 MOL1        -0.1921
      11    H5      21.319662   17.952803   22.612022 H          1 MOL1         0.0712
      12    H6      20.011321   18.464026   23.681969 H          1 MOL1         0.0712
      13    C5      21.661089   19.869334   23.570830 C.3        1 MOL1        -0.2936
      14    H7      21.091262   20.737631   23.926962 H          1 MOL1         0.0724
      15    H8      22.409253   20.222649   22.849103 H          1 MOL1         0.0724
      16    H9      22.194307   19.438927   24.428489 H          1 MOL1         0.0724
@<TRIPOS>BOND
    1     1     2    1
    2     1     3    2
    3     1     4    1
    4     4     5    1
    5     4     6    1
    6     4     7    1
    7     7     8    1
    8     7     9    1
    9     7    10    1
   10    10    11    1
   11    10    12    1
   12    10    13    1
   13    13    14    1
   14    13    15    1
   15    13    16    1
@<TRIPOS>SUBSTRUCTURE
       1 MOL1            1 RESIDUE      1      MOL     
@<SCITEGIC>MOL_PROPERTY
VConf Rank
SciTegic.value.IntegerValue
42

@<SCITEGIC>MOL_PROPERTY
Conf_Id
SciTegic.value.IntegerValue
22

@<SCITEGIC>MOL_PROPERTY
Delta U+W
SciTegic.value.DoubleValue
-1.185

@<SCITEGIC>MOL_PROPERTY
U+W
SciTegic.value.DoubleValue
-58.089

@<SCITEGIC>MOL_PROPERTY
Grad RMS
SciTegic.value.DoubleValue
0.000000

@<SCITEGIC>MOL_PROPERTY
U
SciTegic.value.DoubleValue
6.298

@<SCITEGIC>MOL_PROPERTY
W
SciTegic.value.DoubleValue
-64.387

@<SCITEGIC>MOL_PROPERTY
W(PB)
SciTegic.value.DoubleValue
-66.329

@<SCITEGIC>MOL_PROPERTY
W(SA)
SciTegic.value.DoubleValue
1.942

@<SCITEGIC>MOL_PROPERTY
Valence
SciTegic.value.DoubleValue
6.246

@<SCITEGIC>MOL_PROPERTY
Coulomb
SciTegic.value.DoubleValue
-0.408

@<SCITEGIC>MOL_PROPERTY
VdW
SciTegic.value.DoubleValue
0.460

@<SCITEGIC>MOL_PROPERTY
VdW6
SciTegic.value.DoubleValue
-4.207

@<SCITEGIC>MOL_PROPERTY
VdW12
SciTegic.value.DoubleValue
4.667

@<SCITEGIC>MOL_PROPERTY
Bond
SciTegic.value.DoubleValue
0.072

@<SCITEGIC>MOL_PROPERTY
Angle
SciTegic.value.DoubleValue
2.246

@<SCITEGIC>MOL_PROPERTY
Pdih
SciTegic.value.DoubleValue
3.928

@<SCITEGIC>MOL_PROPERTY
Idih
SciTegic.value.DoubleValue
0.001

@<SCITEGIC>MOL_PROPERTY
Tether
SciTegic.value.DoubleValue
0.000

@<TRIPOS>MOLECULE
guest-s18_confgen4.mol2 : confsearch ligand conformer 43
          16          15           1
SMALL
USER_CHARGES
 
@<TRIPOS>ATOM
       1    C1      17.731109   17.976132   21.402423 C.2        1 MOL1         0.6075
       2    O1      16.655828   18.527556   21.527713 O.co2      1 MOL1        -0.6830
       3    O2      17.865743   16.769588   21.356793 O.co2      1 MOL1        -0.6830
       4    C2      18.980987   18.845193   21.318117 C.3        1 MOL1        -0.2050
       5    H1      18.709797   19.784380   20.821176 H          1 MOL1         0.0710
       6    H2      19.702207   18.331934   20.671956 H          1 MOL1         0.0710
       7    C3      19.605200   19.136795   22.707477 C.3        1 MOL1        -0.1947
       8    H3      18.832917   19.570833   23.357568 H          1 MOL1         0.0712
       9    H4      19.911671   18.191962   23.177237 H          1 MOL1         0.0712
      10    C4      20.808477   20.105953   22.650347 C.3        1 MOL1        -0.1921
      11    H5      21.119240   20.344051   23.677013 H          1 MOL1         0.0712
      12    H6      20.499263   21.055183   22.191292 H          1 MOL1         0.0712
      13    C5      22.018735   19.529202   21.885123 C.3        1 MOL1        -0.2936
      14    H7      21.787834   19.381136   20.822794 H          1 MOL1         0.0724
      15    H8      22.328013   18.564719   22.308643 H          1 MOL1         0.0724
      16    H9      22.873698   20.214955   21.946694 H          1 MOL1         0.0724
@<TRIPOS>BOND
    1     1     2    1
    2     1     3    2
    3     1     4    1
    4     4     5    1
    5     4     6    1
    6     4     7    1
    7     7     8    1
    8     7     9    1
    9     7    10    1
   10    10    11    1
   11    10    12    1
   12    10    13    1
   13    13    14    1
   14    13    15    1
   15    13    16    1
@<TRIPOS>SUBSTRUCTURE
       1 MOL1            1 RESIDUE      1      MOL     
@<SCITEGIC>MOL_PROPERTY
VConf Rank
SciTegic.value.IntegerValue
43

@<SCITEGIC>MOL_PROPERTY
Conf_Id
SciTegic.value.IntegerValue
36

@<SCITEGIC>MOL_PROPERTY
Delta U+W
SciTegic.value.DoubleValue
-0.427

@<SCITEGIC>MOL_PROPERTY
U+W
SciTegic.value.DoubleValue
-57.331

@<SCITEGIC>MOL_PROPERTY
Grad RMS
SciTegic.value.DoubleValue
0.000000

@<SCITEGIC>MOL_PROPERTY
U
SciTegic.value.DoubleValue
7.263

@<SCITEGIC>MOL_PROPERTY
W
SciTegic.value.DoubleValue
-64.594

@<SCITEGIC>MOL_PROPERTY
W(PB)
SciTegic.value.DoubleValue
-66.513

@<SCITEGIC>MOL_PROPERTY
W(SA)
SciTegic.value.DoubleValue
1.920

@<SCITEGIC>MOL_PROPERTY
Valence
SciTegic.value.DoubleValue
6.734

@<SCITEGIC>MOL_PROPERTY
Coulomb
SciTegic.value.DoubleValue
-0.068

@<SCITEGIC>MOL_PROPERTY
VdW
SciTegic.value.DoubleValue
0.598

@<SCITEGIC>MOL_PROPERTY
VdW6
SciTegic.value.DoubleValue
-4.819

@<SCITEGIC>MOL_PROPERTY
VdW12
SciTegic.value.DoubleValue
5.417

@<SCITEGIC>MOL_PROPERTY
Bond
SciTegic.value.DoubleValue
0.107

@<SCITEGIC>MOL_PROPERTY
Angle
SciTegic.value.DoubleValue
2.469

@<SCITEGIC>MOL_PROPERTY
Pdih
SciTegic.value.DoubleValue
4.157

@<SCITEGIC>MOL_PROPERTY
Idih
SciTegic.value.DoubleValue
0.001

@<SCITEGIC>MOL_PROPERTY
Tether
SciTegic.value.DoubleValue
0.000

@<TRIPOS>MOLECULE
guest-s18_confgen4.mol2 : confsearch ligand conformer 44
          16          15           1
SMALL
USER_CHARGES
 
@<TRIPOS>ATOM
       1    C1      17.730153   17.861648   21.725610 C.2        1 MOL1         0.6075
       2    O1      17.800765   17.032520   20.840444 O.co2      1 MOL1        -0.6830
       3    O2      16.680447   18.288572   22.163613 O.co2      1 MOL1        -0.6830
       4    C2      19.029125   18.411248   22.304560 C.3        1 MOL1        -0.2050
       5    H1      19.775093   17.608962   22.273132 H          1 MOL1         0.0710
       6    H2      18.855965   18.653286   23.360022 H          1 MOL1         0.0710
       7    C3      19.542829   19.662972   21.546740 C.3        1 MOL1        -0.1947
       8    H3      19.753271   19.397874   20.501395 H          1 MOL1         0.0712
       9    H4      18.741288   20.414185   21.521455 H          1 MOL1         0.0712
      10    C4      20.798554   20.297888   22.187400 C.3        1 MOL1        -0.1921
      11    H5      20.584675   20.573802   23.229277 H          1 MOL1         0.0712
      12    H6      21.029748   21.233377   21.659462 H          1 MOL1         0.0712
      13    C5      22.037930   19.378973   22.137685 C.3        1 MOL1        -0.2936
      14    H7      21.894304   18.478752   22.748222 H          1 MOL1         0.0724
      15    H8      22.920908   19.904650   22.523718 H          1 MOL1         0.0724
      16    H9      22.254231   19.066431   21.107742 H          1 MOL1         0.0724
@<TRIPOS>BOND
    1     1     2    1
    2     1     3    2
    3     1     4    1
    4     4     5    1
    5     4     6    1
    6     4     7    1
    7     7     8    1
    8     7     9    1
    9     7    10    1
   10    10    11    1
   11    10    12    1
   12    10    13    1
   13    13    14    1
   14    13    15    1
   15    13    16    1
@<TRIPOS>SUBSTRUCTURE
       1 MOL1            1 RESIDUE      1      MOL     
@<SCITEGIC>MOL_PROPERTY
VConf Rank
SciTegic.value.IntegerValue
44

@<SCITEGIC>MOL_PROPERTY
Conf_Id
SciTegic.value.IntegerValue
17

@<SCITEGIC>MOL_PROPERTY
Delta U+W
SciTegic.value.DoubleValue
-0.432

@<SCITEGIC>MOL_PROPERTY
U+W
SciTegic.value.DoubleValue
-57.336

@<SCITEGIC>MOL_PROPERTY
Grad RMS
SciTegic.value.DoubleValue
0.000000

@<SCITEGIC>MOL_PROPERTY
U
SciTegic.value.DoubleValue
7.263

@<SCITEGIC>MOL_PROPERTY
W
SciTegic.value.DoubleValue
-64.599

@<SCITEGIC>MOL_PROPERTY
W(PB)
SciTegic.value.DoubleValue
-66.503

@<SCITEGIC>MOL_PROPERTY
W(SA)
SciTegic.value.DoubleValue
1.904

@<SCITEGIC>MOL_PROPERTY
Valence
SciTegic.value.DoubleValue
6.734

@<SCITEGIC>MOL_PROPERTY
Coulomb
SciTegic.value.DoubleValue
-0.068

@<SCITEGIC>MOL_PROPERTY
VdW
SciTegic.value.DoubleValue
0.598

@<SCITEGIC>MOL_PROPERTY
VdW6
SciTegic.value.DoubleValue
-4.819

@<SCITEGIC>MOL_PROPERTY
VdW12
SciTegic.value.DoubleValue
5.417

@<SCITEGIC>MOL_PROPERTY
Bond
SciTegic.value.DoubleValue
0.107

@<SCITEGIC>MOL_PROPERTY
Angle
SciTegic.value.DoubleValue
2.469

@<SCITEGIC>MOL_PROPERTY
Pdih
SciTegic.value.DoubleValue
4.157

@<SCITEGIC>MOL_PROPERTY
Idih
SciTegic.value.DoubleValue
0.001

@<SCITEGIC>MOL_PROPERTY
Tether
SciTegic.value.DoubleValue
0.000

@<TRIPOS>MOLECULE
guest-s18_confgen4.mol2 : confsearch ligand conformer 45
          16          15           1
SMALL
USER_CHARGES
 
@<TRIPOS>ATOM
       1    C1      20.486150   20.048762   24.247205 C.2        1 MOL1         0.6075
       2    O1      19.984664   19.394376   25.139748 O.co2      1 MOL1        -0.6830
       3    O2      21.634130   20.446110   24.269966 O.co2      1 MOL1        -0.6830
       4    C2      19.618359   20.410264   23.044813 C.3        1 MOL1        -0.2050
       5    H1      20.077094   21.259672   22.524091 H          1 MOL1         0.0710
       6    H2      18.652664   20.758631   23.429921 H          1 MOL1         0.0710
       7    C3      19.388153   19.237860   22.056124 C.3        1 MOL1        -0.1947
       8    H3      18.955115   18.384961   22.597110 H          1 MOL1         0.0712
       9    H4      18.647558   19.545005   21.305298 H          1 MOL1         0.0712
      10    C4      20.685167   18.800034   21.341809 C.3        1 MOL1        -0.1921
      11    H5      21.427091   18.470878   22.082707 H          1 MOL1         0.0712
      12    H6      21.123588   19.656801   20.811607 H          1 MOL1         0.0712
      13    C5      20.422432   17.657298   20.341075 C.3        1 MOL1        -0.2936
      14    H7      20.011945   16.775822   20.850928 H          1 MOL1         0.0724
      15    H8      21.353802   17.357753   19.843138 H          1 MOL1         0.0724
      16    H9      19.709188   17.969055   19.566798 H          1 MOL1         0.0724
@<TRIPOS>BOND
    1     1     2    1
    2     1     3    2
    3     1     4    1
    4     4     5    1
    5     4     6    1
    6     4     7    1
    7     7     8    1
    8     7     9    1
    9     7    10    1
   10    10    11    1
   11    10    12    1
   12    10    13    1
   13    13    14    1
   14    13    15    1
   15    13    16    1
@<TRIPOS>SUBSTRUCTURE
       1 MOL1            1 RESIDUE      1      MOL     
@<SCITEGIC>MOL_PROPERTY
VConf Rank
SciTegic.value.IntegerValue
45

@<SCITEGIC>MOL_PROPERTY
Conf_Id
SciTegic.value.IntegerValue
19

@<SCITEGIC>MOL_PROPERTY
Delta U+W
SciTegic.value.DoubleValue
0.048

@<SCITEGIC>MOL_PROPERTY
U+W
SciTegic.value.DoubleValue
-56.856

@<SCITEGIC>MOL_PROPERTY
Grad RMS
SciTegic.value.DoubleValue
0.000000

@<SCITEGIC>MOL_PROPERTY
U
SciTegic.value.DoubleValue
8.276

@<SCITEGIC>MOL_PROPERTY
W
SciTegic.value.DoubleValue
-65.132

@<SCITEGIC>MOL_PROPERTY
W(PB)
SciTegic.value.DoubleValue
-67.031

@<SCITEGIC>MOL_PROPERTY
W(SA)
SciTegic.value.DoubleValue
1.899

@<SCITEGIC>MOL_PROPERTY
Valence
SciTegic.value.DoubleValue
6.513

@<SCITEGIC>MOL_PROPERTY
Coulomb
SciTegic.value.DoubleValue
1.428

@<SCITEGIC>MOL_PROPERTY
VdW
SciTegic.value.DoubleValue
0.335

@<SCITEGIC>MOL_PROPERTY
VdW6
SciTegic.value.DoubleValue
-5.021

@<SCITEGIC>MOL_PROPERTY
VdW12
SciTegic.value.DoubleValue
5.356

@<SCITEGIC>MOL_PROPERTY
Bond
SciTegic.value.DoubleValue
0.092

@<SCITEGIC>MOL_PROPERTY
Angle
SciTegic.value.DoubleValue
2.417

@<SCITEGIC>MOL_PROPERTY
Pdih
SciTegic.value.DoubleValue
4.003

@<SCITEGIC>MOL_PROPERTY
Idih
SciTegic.value.DoubleValue
0.001

@<SCITEGIC>MOL_PROPERTY
Tether
SciTegic.value.DoubleValue
0.000

@<TRIPOS>MOLECULE
guest-s18_confgen4.mol2 : confsearch ligand conformer 46
          16          15           1
SMALL
USER_CHARGES
 
@<TRIPOS>ATOM
       1    C1      21.138630   19.634411   20.151349 C.2        1 MOL1         0.6075
       2    O1      21.617808   18.646309   19.631364 O.co2      1 MOL1        -0.6830
       3    O2      21.775450   20.639936   20.395565 O.co2      1 MOL1        -0.6830
       4    C2      19.651390   19.618009   20.493908 C.3        1 MOL1        -0.2050
       5    H1      19.119352   19.209305   19.626652 H          1 MOL1         0.0710
       6    H2      19.308649   20.652587   20.617448 H          1 MOL1         0.0710
       7    C3      19.302215   18.784784   21.754407 C.3        1 MOL1        -0.1947
       8    H3      18.209687   18.713951   21.843433 H          1 MOL1         0.0712
       9    H4      19.676439   17.759282   21.628220 H          1 MOL1         0.0712
      10    C4      19.879470   19.396464   23.049326 C.3        1 MOL1        -0.1921
      11    H5      19.514285   20.426027   23.167716 H          1 MOL1         0.0712
      12    H6      20.974757   19.453421   22.979871 H          1 MOL1         0.0712
      13    C5      19.489708   18.568115   24.289598 C.3        1 MOL1        -0.2936
      14    H7      18.398817   18.522413   24.404852 H          1 MOL1         0.0724
      15    H8      19.908325   19.015566   25.200457 H          1 MOL1         0.0724
      16    H9      19.869816   17.541096   24.210853 H          1 MOL1         0.0724
@<TRIPOS>BOND
    1     1     2    1
    2     1     3    2
    3     1     4    1
    4     4     5    1
    5     4     6    1
    6     4     7    1
    7     7     8    1
    8     7     9    1
    9     7    10    1
   10    10    11    1
   11    10    12    1
   12    10    13    1
   13    13    14    1
   14    13    15    1
   15    13    16    1
@<TRIPOS>SUBSTRUCTURE
       1 MOL1            1 RESIDUE      1      MOL     
@<SCITEGIC>MOL_PROPERTY
VConf Rank
SciTegic.value.IntegerValue
46

@<SCITEGIC>MOL_PROPERTY
Conf_Id
SciTegic.value.IntegerValue
20

@<SCITEGIC>MOL_PROPERTY
Delta U+W
SciTegic.value.DoubleValue
-0.010

@<SCITEGIC>MOL_PROPERTY
U+W
SciTegic.value.DoubleValue
-56.914

@<SCITEGIC>MOL_PROPERTY
Grad RMS
SciTegic.value.DoubleValue
0.000000

@<SCITEGIC>MOL_PROPERTY
U
SciTegic.value.DoubleValue
8.277

@<SCITEGIC>MOL_PROPERTY
W
SciTegic.value.DoubleValue
-65.191

@<SCITEGIC>MOL_PROPERTY
W(PB)
SciTegic.value.DoubleValue
-67.081

@<SCITEGIC>MOL_PROPERTY
W(SA)
SciTegic.value.DoubleValue
1.890

@<SCITEGIC>MOL_PROPERTY
Valence
SciTegic.value.DoubleValue
6.513

@<SCITEGIC>MOL_PROPERTY
Coulomb
SciTegic.value.DoubleValue
1.429

@<SCITEGIC>MOL_PROPERTY
VdW
SciTegic.value.DoubleValue
0.335

@<SCITEGIC>MOL_PROPERTY
VdW6
SciTegic.value.DoubleValue
-5.021

@<SCITEGIC>MOL_PROPERTY
VdW12
SciTegic.value.DoubleValue
5.356

@<SCITEGIC>MOL_PROPERTY
Bond
SciTegic.value.DoubleValue
0.092

@<SCITEGIC>MOL_PROPERTY
Angle
SciTegic.value.DoubleValue
2.417

@<SCITEGIC>MOL_PROPERTY
Pdih
SciTegic.value.DoubleValue
4.002

@<SCITEGIC>MOL_PROPERTY
Idih
SciTegic.value.DoubleValue
0.001

@<SCITEGIC>MOL_PROPERTY
Tether
SciTegic.value.DoubleValue
0.000

@<TRIPOS>MOLECULE
guest-s18_confgen4.mol2 : confsearch ligand conformer 47
          16          15           1
SMALL
USER_CHARGES
 
@<TRIPOS>ATOM
       1    C1      18.607923   20.393847   20.938201 C.2        1 MOL1         0.6075
       2    O1      18.645958   21.608374   20.954481 O.co2      1 MOL1        -0.6830
       3    O2      17.574629   19.755227   20.965906 O.co2      1 MOL1        -0.6830
       4    C2      19.928116   19.633670   20.843508 C.3        1 MOL1        -0.2050
       5    H1      20.494538   20.067540   20.011160 H          1 MOL1         0.0710
       6    H2      19.716791   18.594552   20.566342 H          1 MOL1         0.0710
       7    C3      20.789367   19.691571   22.134853 C.3        1 MOL1        -0.1947
       8    H3      21.749012   19.190111   21.950486 H          1 MOL1         0.0712
       9    H4      21.027604   20.741777   22.353176 H          1 MOL1         0.0712
      10    C4      20.117191   19.062653   23.378490 C.3        1 MOL1        -0.1921
      11    H5      19.171630   19.579209   23.594552 H          1 MOL1         0.0712
      12    H6      20.765316   19.226883   24.250321 H          1 MOL1         0.0712
      13    C5      19.857162   17.548509   23.229514 C.3        1 MOL1        -0.2936
      14    H7      19.115798   17.347228   22.445707 H          1 MOL1         0.0724
      15    H8      19.468919   17.131880   24.167889 H          1 MOL1         0.0724
      16    H9      20.781647   17.012718   22.977876 H          1 MOL1         0.0724
@<TRIPOS>BOND
    1     1     2    1
    2     1     3    2
    3     1     4    1
    4     4     5    1
    5     4     6    1
    6     4     7    1
    7     7     8    1
    8     7     9    1
    9     7    10    1
   10    10    11    1
   11    10    12    1
   12    10    13    1
   13    13    14    1
   14    13    15    1
   15    13    16    1
@<TRIPOS>SUBSTRUCTURE
       1 MOL1            1 RESIDUE      1      MOL     
@<SCITEGIC>MOL_PROPERTY
VConf Rank
SciTegic.value.IntegerValue
47

@<SCITEGIC>MOL_PROPERTY
Conf_Id
SciTegic.value.IntegerValue
37

@<SCITEGIC>MOL_PROPERTY
Delta U+W
SciTegic.value.DoubleValue
1.063

@<SCITEGIC>MOL_PROPERTY
U+W
SciTegic.value.DoubleValue
-55.841

@<SCITEGIC>MOL_PROPERTY
Grad RMS
SciTegic.value.DoubleValue
0.000000

@<SCITEGIC>MOL_PROPERTY
U
SciTegic.value.DoubleValue
9.719

@<SCITEGIC>MOL_PROPERTY
W
SciTegic.value.DoubleValue
-65.560

@<SCITEGIC>MOL_PROPERTY
W(PB)
SciTegic.value.DoubleValue
-67.414

@<SCITEGIC>MOL_PROPERTY
W(SA)
SciTegic.value.DoubleValue
1.854

@<SCITEGIC>MOL_PROPERTY
Valence
SciTegic.value.DoubleValue
7.002

@<SCITEGIC>MOL_PROPERTY
Coulomb
SciTegic.value.DoubleValue
2.402

@<SCITEGIC>MOL_PROPERTY
VdW
SciTegic.value.DoubleValue
0.314

@<SCITEGIC>MOL_PROPERTY
VdW6
SciTegic.value.DoubleValue
-5.861

@<SCITEGIC>MOL_PROPERTY
VdW12
SciTegic.value.DoubleValue
6.175

@<SCITEGIC>MOL_PROPERTY
Bond
SciTegic.value.DoubleValue
0.134

@<SCITEGIC>MOL_PROPERTY
Angle
SciTegic.value.DoubleValue
2.733

@<SCITEGIC>MOL_PROPERTY
Pdih
SciTegic.value.DoubleValue
4.133

@<SCITEGIC>MOL_PROPERTY
Idih
SciTegic.value.DoubleValue
0.002

@<SCITEGIC>MOL_PROPERTY
Tether
SciTegic.value.DoubleValue
0.000

@<TRIPOS>MOLECULE
guest-s18_confgen4.mol2 : confsearch ligand conformer 48
          16          15           1
SMALL
USER_CHARGES
 
@<TRIPOS>ATOM
       1    C1      22.111276   19.170102   23.021576 C.2        1 MOL1         0.6075
       2    O1      22.399061   18.605939   24.058728 O.co2      1 MOL1        -0.6830
       3    O2      22.786916   19.105697   22.013775 O.co2      1 MOL1        -0.6830
       4    C2      20.852199   20.032576   22.996834 C.3        1 MOL1        -0.2050
       5    H1      20.882075   20.673532   22.108279 H          1 MOL1         0.0710
       6    H2      20.899146   20.701990   23.863761 H          1 MOL1         0.0710
       7    C3      19.526632   19.224324   23.044578 C.3        1 MOL1        -0.1947
       8    H3      19.505685   18.635563   23.972089 H          1 MOL1         0.0712
       9    H4      18.680972   19.922672   23.104073 H          1 MOL1         0.0712
      10    C4      19.316683   18.272024   21.843313 C.3        1 MOL1        -0.1921
      11    H5      18.399894   17.690171   22.010866 H          1 MOL1         0.0712
      12    H6      20.139344   17.545156   21.793420 H          1 MOL1         0.0712
      13    C5      19.197362   19.011666   20.493819 C.3        1 MOL1        -0.2936
      14    H7      18.404215   19.769802   20.528672 H          1 MOL1         0.0724
      15    H8      18.955510   18.305178   19.689305 H          1 MOL1         0.0724
      16    H9      20.139329   19.507758   20.227216 H          1 MOL1         0.0724
@<TRIPOS>BOND
    1     1     2    1
    2     1     3    2
    3     1     4    1
    4     4     5    1
    5     4     6    1
    6     4     7    1
    7     7     8    1
    8     7     9    1
    9     7    10    1
   10    10    11    1
   11    10    12    1
   12    10    13    1
   13    13    14    1
   14    13    15    1
   15    13    16    1
@<TRIPOS>SUBSTRUCTURE
       1 MOL1            1 RESIDUE      1      MOL     
@<SCITEGIC>MOL_PROPERTY
VConf Rank
SciTegic.value.IntegerValue
48

@<SCITEGIC>MOL_PROPERTY
Conf_Id
SciTegic.value.IntegerValue
39

@<SCITEGIC>MOL_PROPERTY
Delta U+W
SciTegic.value.DoubleValue
1.129

@<SCITEGIC>MOL_PROPERTY
U+W
SciTegic.value.DoubleValue
-55.775

@<SCITEGIC>MOL_PROPERTY
Grad RMS
SciTegic.value.DoubleValue
0.000000

@<SCITEGIC>MOL_PROPERTY
U
SciTegic.value.DoubleValue
9.718

@<SCITEGIC>MOL_PROPERTY
W
SciTegic.value.DoubleValue
-65.493

@<SCITEGIC>MOL_PROPERTY
W(PB)
SciTegic.value.DoubleValue
-67.361

@<SCITEGIC>MOL_PROPERTY
W(SA)
SciTegic.value.DoubleValue
1.869

@<SCITEGIC>MOL_PROPERTY
Valence
SciTegic.value.DoubleValue
7.002

@<SCITEGIC>MOL_PROPERTY
Coulomb
SciTegic.value.DoubleValue
2.402

@<SCITEGIC>MOL_PROPERTY
VdW
SciTegic.value.DoubleValue
0.314

@<SCITEGIC>MOL_PROPERTY
VdW6
SciTegic.value.DoubleValue
-5.861

@<SCITEGIC>MOL_PROPERTY
VdW12
SciTegic.value.DoubleValue
6.175

@<SCITEGIC>MOL_PROPERTY
Bond
SciTegic.value.DoubleValue
0.134

@<SCITEGIC>MOL_PROPERTY
Angle
SciTegic.value.DoubleValue
2.734

@<SCITEGIC>MOL_PROPERTY
Pdih
SciTegic.value.DoubleValue
4.133

@<SCITEGIC>MOL_PROPERTY
Idih
SciTegic.value.DoubleValue
0.002

@<SCITEGIC>MOL_PROPERTY
Tether
SciTegic.value.DoubleValue
0.000

@<TRIPOS>MOLECULE
guest-s18_confgen4.mol2 : confsearch ligand conformer 49
          16          15           1
SMALL
USER_CHARGES
 
@<TRIPOS>ATOM
       1    C1      20.364884   18.636146   20.380710 C.2        1 MOL1         0.6075
       2    O1      21.518259   18.927316   20.132182 O.co2      1 MOL1        -0.6830
       3    O2      19.429516   18.941958   19.667461 O.co2      1 MOL1        -0.6830
       4    C2      20.089006   17.764562   21.604593 C.3        1 MOL1        -0.2050
       5    H1      21.041812   17.515469   22.087390 H          1 MOL1         0.0710
       6    H2      19.674180   16.823088   21.226050 H          1 MOL1         0.0710
       7    C3      19.102224   18.369678   22.642417 C.3        1 MOL1        -0.1947
       8    H3      18.235004   18.803826   22.125710 H          1 MOL1         0.0712
       9    H4      18.708856   17.547569   23.255483 H          1 MOL1         0.0712
      10    C4      19.728390   19.413427   23.598486 C.3        1 MOL1        -0.1921
      11    H5      20.596051   18.976195   24.111540 H          1 MOL1         0.0712
      12    H6      18.994943   19.651386   24.381252 H          1 MOL1         0.0712
      13    C5      20.144053   20.726309   22.902891 C.3        1 MOL1        -0.2936
      14    H7      20.993042   20.568619   22.226613 H          1 MOL1         0.0724
      15    H8      20.448796   21.474600   23.645831 H          1 MOL1         0.0724
      16    H9      19.312272   21.144669   22.321131 H          1 MOL1         0.0724
@<TRIPOS>BOND
    1     1     2    1
    2     1     3    2
    3     1     4    1
    4     4     5    1
    5     4     6    1
    6     4     7    1
    7     7     8    1
    8     7     9    1
    9     7    10    1
   10    10    11    1
   11    10    12    1
   12    10    13    1
   13    13    14    1
   14    13    15    1
   15    13    16    1
@<TRIPOS>SUBSTRUCTURE
       1 MOL1            1 RESIDUE      1      MOL     
@<SCITEGIC>MOL_PROPERTY
VConf Rank
SciTegic.value.IntegerValue
49

@<SCITEGIC>MOL_PROPERTY
Conf_Id
SciTegic.value.IntegerValue
47

@<SCITEGIC>MOL_PROPERTY
Delta U+W
SciTegic.value.DoubleValue
2.301

@<SCITEGIC>MOL_PROPERTY
U+W
SciTegic.value.DoubleValue
-54.603

@<SCITEGIC>MOL_PROPERTY
Grad RMS
SciTegic.value.DoubleValue
0.000000

@<SCITEGIC>MOL_PROPERTY
U
SciTegic.value.DoubleValue
11.258

@<SCITEGIC>MOL_PROPERTY
W
SciTegic.value.DoubleValue
-65.861

@<SCITEGIC>MOL_PROPERTY
W(PB)
SciTegic.value.DoubleValue
-67.702

@<SCITEGIC>MOL_PROPERTY
W(SA)
SciTegic.value.DoubleValue
1.841

@<SCITEGIC>MOL_PROPERTY
Valence
SciTegic.value.DoubleValue
8.169

@<SCITEGIC>MOL_PROPERTY
Coulomb
SciTegic.value.DoubleValue
2.735

@<SCITEGIC>MOL_PROPERTY
VdW
SciTegic.value.DoubleValue
0.355

@<SCITEGIC>MOL_PROPERTY
VdW6
SciTegic.value.DoubleValue
-6.245

@<SCITEGIC>MOL_PROPERTY
VdW12
SciTegic.value.DoubleValue
6.600

@<SCITEGIC>MOL_PROPERTY
Bond
SciTegic.value.DoubleValue
0.149

@<SCITEGIC>MOL_PROPERTY
Angle
SciTegic.value.DoubleValue
3.168

@<SCITEGIC>MOL_PROPERTY
Pdih
SciTegic.value.DoubleValue
4.840

@<SCITEGIC>MOL_PROPERTY
Idih
SciTegic.value.DoubleValue
0.011

@<SCITEGIC>MOL_PROPERTY
Tether
SciTegic.value.DoubleValue
0.000

@<TRIPOS>MOLECULE
guest-s18_confgen4.mol2 : confsearch ligand conformer 50
          16          15           1
SMALL
USER_CHARGES
 
@<TRIPOS>ATOM
       1    C1      18.755070   19.222945   23.912386 C.2        1 MOL1         0.6075
       2    O1      18.069713   18.221740   23.983335 O.co2      1 MOL1        -0.6830
       3    O2      18.317570   20.345326   24.072612 O.co2      1 MOL1        -0.6830
       4    C2      20.258997   19.058685   23.700514 C.3        1 MOL1        -0.2050
       5    H1      20.632558   18.494562   24.563049 H          1 MOL1         0.0710
       6    H2      20.735098   20.045906   23.741753 H          1 MOL1         0.0710
       7    C3      20.669318   18.317742   22.396817 C.3        1 MOL1        -0.1947
       8    H3      21.694464   17.945427   22.526862 H          1 MOL1         0.0712
       9    H4      20.039473   17.428102   22.257618 H          1 MOL1         0.0712
      10    C4      20.643333   19.192219   21.120033 C.3        1 MOL1        -0.1921
      11    H5      21.098873   18.621589   20.298962 H          1 MOL1         0.0712
      12    H6      21.272619   20.081335   21.263919 H          1 MOL1         0.0712
      13    C5      19.226427   19.623589   20.688081 C.3        1 MOL1        -0.2936
      14    H7      19.257533   20.118127   19.708676 H          1 MOL1         0.0724
      15    H8      18.789885   20.332932   21.401708 H          1 MOL1         0.0724
      16    H9      18.557223   18.756791   20.609621 H          1 MOL1         0.0724
@<TRIPOS>BOND
    1     1     2    1
    2     1     3    2
    3     1     4    1
    4     4     5    1
    5     4     6    1
    6     4     7    1
    7     7     8    1
    8     7     9    1
    9     7    10    1
   10    10    11    1
   11    10    12    1
   12    10    13    1
   13    13    14    1
   14    13    15    1
   15    13    16    1
@<TRIPOS>SUBSTRUCTURE
       1 MOL1            1 RESIDUE      1      MOL     
@<SCITEGIC>MOL_PROPERTY
VConf Rank
SciTegic.value.IntegerValue
50

@<SCITEGIC>MOL_PROPERTY
Conf_Id
SciTegic.value.IntegerValue
45

@<SCITEGIC>MOL_PROPERTY
Delta U+W
SciTegic.value.DoubleValue
2.303

@<SCITEGIC>MOL_PROPERTY
U+W
SciTegic.value.DoubleValue
-54.601

@<SCITEGIC>MOL_PROPERTY
Grad RMS
SciTegic.value.DoubleValue
0.000000

@<SCITEGIC>MOL_PROPERTY
U
SciTegic.value.DoubleValue
11.258

@<SCITEGIC>MOL_PROPERTY
W
SciTegic.value.DoubleValue
-65.860

@<SCITEGIC>MOL_PROPERTY
W(PB)
SciTegic.value.DoubleValue
-67.709

@<SCITEGIC>MOL_PROPERTY
W(SA)
SciTegic.value.DoubleValue
1.849

@<SCITEGIC>MOL_PROPERTY
Valence
SciTegic.value.DoubleValue
8.169

@<SCITEGIC>MOL_PROPERTY
Coulomb
SciTegic.value.DoubleValue
2.735

@<SCITEGIC>MOL_PROPERTY
VdW
SciTegic.value.DoubleValue
0.355

@<SCITEGIC>MOL_PROPERTY
VdW6
SciTegic.value.DoubleValue
-6.245

@<SCITEGIC>MOL_PROPERTY
VdW12
SciTegic.value.DoubleValue
6.600

@<SCITEGIC>MOL_PROPERTY
Bond
SciTegic.value.DoubleValue
0.149

@<SCITEGIC>MOL_PROPERTY
Angle
SciTegic.value.DoubleValue
3.168

@<SCITEGIC>MOL_PROPERTY
Pdih
SciTegic.value.DoubleValue
4.840

@<SCITEGIC>MOL_PROPERTY
Idih
SciTegic.value.DoubleValue
0.011

@<SCITEGIC>MOL_PROPERTY
Tether
SciTegic.value.DoubleValue
0.000

@<TRIPOS>MOLECULE
guest-s18_confgen4.mol2 : confsearch ligand conformer 51
          16          15           1
SMALL
USER_CHARGES
 
@<TRIPOS>ATOM
       1    C1      18.432748   17.296505   23.283262 C.2        1 MOL1         0.6075
       2    O1      17.708916   18.139221   23.776894 O.co2      1 MOL1        -0.6830
       3    O2      18.295766   16.106344   23.483423 O.co2      1 MOL1        -0.6830
       4    C2      19.578211   17.722602   22.363343 C.3        1 MOL1        -0.2050
       5    H1      19.429865   17.218566   21.401001 H          1 MOL1         0.0710
       6    H2      20.506716   17.327697   22.792402 H          1 MOL1         0.0710
       7    C3      19.714622   19.251943   22.137825 C.3        1 MOL1        -0.1947
       8    H3      18.779601   19.642734   21.712988 H          1 MOL1         0.0712
       9    H4      19.857576   19.751970   23.105816 H          1 MOL1         0.0712
      10    C4      20.892244   19.590544   21.199842 C.3        1 MOL1        -0.1921
      11    H5      20.749621   19.092492   20.230769 H          1 MOL1         0.0712
      12    H6      21.828250   19.201796   21.624422 H          1 MOL1         0.0712
      13    C5      21.022547   21.110652   20.979767 C.3        1 MOL1        -0.2936
      14    H7      20.110835   21.521401   20.526407 H          1 MOL1         0.0724
      15    H8      21.863987   21.333996   20.311008 H          1 MOL1         0.0724
      16    H9      21.197423   21.631517   21.930339 H          1 MOL1         0.0724
@<TRIPOS>BOND
    1     1     2    1
    2     1     3    2
    3     1     4    1
    4     4     5    1
    5     4     6    1
    6     4     7    1
    7     7     8    1
    8     7     9    1
    9     7    10    1
   10    10    11    1
   11    10    12    1
   12    10    13    1
   13    13    14    1
   14    13    15    1
   15    13    16    1
@<TRIPOS>SUBSTRUCTURE
       1 MOL1            1 RESIDUE      1      MOL     
@<SCITEGIC>MOL_PROPERTY
VConf Rank
SciTegic.value.IntegerValue
51

@<SCITEGIC>MOL_PROPERTY
Conf_Id
SciTegic.value.IntegerValue
0

@<SCITEGIC>MOL_PROPERTY
Delta U+W
SciTegic.value.DoubleValue
0.000

@<SCITEGIC>MOL_PROPERTY
U+W
SciTegic.value.DoubleValue
-56.904

@<SCITEGIC>MOL_PROPERTY
Grad RMS
SciTegic.value.DoubleValue
0.000000

@<SCITEGIC>MOL_PROPERTY
U
SciTegic.value.DoubleValue
7.329

@<SCITEGIC>MOL_PROPERTY
W
SciTegic.value.DoubleValue
-64.233

@<SCITEGIC>MOL_PROPERTY
W(PB)
SciTegic.value.DoubleValue
-66.148

@<SCITEGIC>MOL_PROPERTY
W(SA)
SciTegic.value.DoubleValue
1.915

@<SCITEGIC>MOL_PROPERTY
Valence
SciTegic.value.DoubleValue
6.755

@<SCITEGIC>MOL_PROPERTY
Coulomb
SciTegic.value.DoubleValue
-0.421

@<SCITEGIC>MOL_PROPERTY
VdW
SciTegic.value.DoubleValue
0.995

@<SCITEGIC>MOL_PROPERTY
VdW6
SciTegic.value.DoubleValue
-4.495

@<SCITEGIC>MOL_PROPERTY
VdW12
SciTegic.value.DoubleValue
5.490

@<SCITEGIC>MOL_PROPERTY
Bond
SciTegic.value.DoubleValue
0.106

@<SCITEGIC>MOL_PROPERTY
Angle
SciTegic.value.DoubleValue
2.715

@<SCITEGIC>MOL_PROPERTY
Pdih
SciTegic.value.DoubleValue
3.934

@<SCITEGIC>MOL_PROPERTY
Idih
SciTegic.value.DoubleValue
0.000

@<SCITEGIC>MOL_PROPERTY
Tether
SciTegic.value.DoubleValue
0.000

@<TRIPOS>MOLECULE
guest-s18_confgen4.mol2 : confsearch ligand conformer 52
          16          15           1
SMALL
USER_CHARGES
 
@<TRIPOS>ATOM
       1    C1      20.012918   20.879053   19.848840 C.2        1 MOL1         0.6075
       2    O1      20.359571   22.009252   20.128707 O.co2      1 MOL1        -0.6830
       3    O2      20.187079   20.373462   18.758019 O.co2      1 MOL1        -0.6830
       4    C2      19.338771   20.043208   20.931185 C.3        1 MOL1        -0.2050
       5    H1      18.621456   19.370633   20.445436 H          1 MOL1         0.0710
       6    H2      18.763776   20.719242   21.575552 H          1 MOL1         0.0710
       7    C3      20.346530   19.227352   21.777862 C.3        1 MOL1        -0.1947
       8    H3      20.922816   18.564648   21.117356 H          1 MOL1         0.0712
       9    H4      21.065192   19.913312   22.247474 H          1 MOL1         0.0712
      10    C4      19.639007   18.391364   22.864646 C.3        1 MOL1        -0.1921
      11    H5      18.920735   17.704777   22.395369 H          1 MOL1         0.0712
      12    H6      19.063112   19.053791   23.525761 H          1 MOL1         0.0712
      13    C5      20.647973   17.582164   23.703266 C.3        1 MOL1        -0.2936
      14    H7      21.360198   18.246807   24.209680 H          1 MOL1         0.0724
      15    H8      21.216787   16.887846   23.070933 H          1 MOL1         0.0724
      16    H9      20.128822   16.993681   24.470938 H          1 MOL1         0.0724
@<TRIPOS>BOND
    1     1     2    1
    2     1     3    2
    3     1     4    1
    4     4     5    1
    5     4     6    1
    6     4     7    1
    7     7     8    1
    8     7     9    1
    9     7    10    1
   10    10    11    1
   11    10    12    1
   12    10    13    1
   13    13    14    1
   14    13    15    1
   15    13    16    1
@<TRIPOS>SUBSTRUCTURE
       1 MOL1            1 RESIDUE      1      MOL     
@<SCITEGIC>MOL_PROPERTY
VConf Rank
SciTegic.value.IntegerValue
52

@<SCITEGIC>MOL_PROPERTY
Conf_Id
SciTegic.value.IntegerValue
22

@<SCITEGIC>MOL_PROPERTY
Delta U+W
SciTegic.value.DoubleValue
-1.185

@<SCITEGIC>MOL_PROPERTY
U+W
SciTegic.value.DoubleValue
-58.089

@<SCITEGIC>MOL_PROPERTY
Grad RMS
SciTegic.value.DoubleValue
0.000000

@<SCITEGIC>MOL_PROPERTY
U
SciTegic.value.DoubleValue
6.298

@<SCITEGIC>MOL_PROPERTY
W
SciTegic.value.DoubleValue
-64.387

@<SCITEGIC>MOL_PROPERTY
W(PB)
SciTegic.value.DoubleValue
-66.329

@<SCITEGIC>MOL_PROPERTY
W(SA)
SciTegic.value.DoubleValue
1.942

@<SCITEGIC>MOL_PROPERTY
Valence
SciTegic.value.DoubleValue
6.246

@<SCITEGIC>MOL_PROPERTY
Coulomb
SciTegic.value.DoubleValue
-0.408

@<SCITEGIC>MOL_PROPERTY
VdW
SciTegic.value.DoubleValue
0.460

@<SCITEGIC>MOL_PROPERTY
VdW6
SciTegic.value.DoubleValue
-4.207

@<SCITEGIC>MOL_PROPERTY
VdW12
SciTegic.value.DoubleValue
4.667

@<SCITEGIC>MOL_PROPERTY
Bond
SciTegic.value.DoubleValue
0.072

@<SCITEGIC>MOL_PROPERTY
Angle
SciTegic.value.DoubleValue
2.246

@<SCITEGIC>MOL_PROPERTY
Pdih
SciTegic.value.DoubleValue
3.928

@<SCITEGIC>MOL_PROPERTY
Idih
SciTegic.value.DoubleValue
0.001

@<SCITEGIC>MOL_PROPERTY
Tether
SciTegic.value.DoubleValue
0.000

@<TRIPOS>MOLECULE
guest-s18_confgen4.mol2 : confsearch ligand conformer 53
          16          15           1
SMALL
USER_CHARGES
 
@<TRIPOS>ATOM
       1    C1      19.498193   21.204136   23.487010 C.2        1 MOL1         0.6075
       2    O1      19.933192   21.297536   24.617517 O.co2      1 MOL1        -0.6830
       3    O2      18.543632   21.836188   23.080462 O.co2      1 MOL1        -0.6830
       4    C2      20.174742   20.225771   22.533251 C.3        1 MOL1        -0.2050
       5    H1      21.240678   20.184403   22.787488 H          1 MOL1         0.0710
       6    H2      20.097747   20.638343   21.520841 H          1 MOL1         0.0710
       7    C3      19.556184   18.804847   22.591148 C.3        1 MOL1        -0.1947
       8    H3      19.569985   18.455830   23.632985 H          1 MOL1         0.0712
       9    H4      18.499580   18.852619   22.293468 H          1 MOL1         0.0712
      10    C4      20.300277   17.773475   21.711939 C.3        1 MOL1        -0.1921
      11    H5      19.870370   16.778795   21.893875 H          1 MOL1         0.0712
      12    H6      21.354298   17.716974   22.017274 H          1 MOL1         0.0712
      13    C5      20.213045   18.084865   20.202515 C.3        1 MOL1        -0.2936
      14    H7      20.731814   19.019514   19.955349 H          1 MOL1         0.0724
      15    H8      19.167605   18.174766   19.879680 H          1 MOL1         0.0724
      16    H9      20.679374   17.281510   19.617565 H          1 MOL1         0.0724
@<TRIPOS>BOND
    1     1     2    1
    2     1     3    2
    3     1     4    1
    4     4     5    1
    5     4     6    1
    6     4     7    1
    7     7     8    1
    8     7     9    1
    9     7    10    1
   10    10    11    1
   11    10    12    1
   12    10    13    1
   13    13    14    1
   14    13    15    1
   15    13    16    1
@<TRIPOS>SUBSTRUCTURE
       1 MOL1            1 RESIDUE      1      MOL     
@<SCITEGIC>MOL_PROPERTY
VConf Rank
SciTegic.value.IntegerValue
53

@<SCITEGIC>MOL_PROPERTY
Conf_Id
SciTegic.value.IntegerValue
36

@<SCITEGIC>MOL_PROPERTY
Delta U+W
SciTegic.value.DoubleValue
-0.427

@<SCITEGIC>MOL_PROPERTY
U+W
SciTegic.value.DoubleValue
-57.331

@<SCITEGIC>MOL_PROPERTY
Grad RMS
SciTegic.value.DoubleValue
0.000000

@<SCITEGIC>MOL_PROPERTY
U
SciTegic.value.DoubleValue
7.263

@<SCITEGIC>MOL_PROPERTY
W
SciTegic.value.DoubleValue
-64.594

@<SCITEGIC>MOL_PROPERTY
W(PB)
SciTegic.value.DoubleValue
-66.513

@<SCITEGIC>MOL_PROPERTY
W(SA)
SciTegic.value.DoubleValue
1.920

@<SCITEGIC>MOL_PROPERTY
Valence
SciTegic.value.DoubleValue
6.734

@<SCITEGIC>MOL_PROPERTY
Coulomb
SciTegic.value.DoubleValue
-0.068

@<SCITEGIC>MOL_PROPERTY
VdW
SciTegic.value.DoubleValue
0.598

@<SCITEGIC>MOL_PROPERTY
VdW6
SciTegic.value.DoubleValue
-4.819

@<SCITEGIC>MOL_PROPERTY
VdW12
SciTegic.value.DoubleValue
5.417

@<SCITEGIC>MOL_PROPERTY
Bond
SciTegic.value.DoubleValue
0.107

@<SCITEGIC>MOL_PROPERTY
Angle
SciTegic.value.DoubleValue
2.469

@<SCITEGIC>MOL_PROPERTY
Pdih
SciTegic.value.DoubleValue
4.157

@<SCITEGIC>MOL_PROPERTY
Idih
SciTegic.value.DoubleValue
0.001

@<SCITEGIC>MOL_PROPERTY
Tether
SciTegic.value.DoubleValue
0.000

@<TRIPOS>MOLECULE
guest-s18_confgen4.mol2 : confsearch ligand conformer 54
          16          15           1
SMALL
USER_CHARGES
 
@<TRIPOS>ATOM
       1    C1      19.580233   20.560449   19.859007 C.2        1 MOL1         0.6075
       2    O1      18.630962   20.148801   19.222306 O.co2      1 MOL1        -0.6830
       3    O2      20.441771   21.278331   19.391684 O.co2      1 MOL1        -0.6830
       4    C2      19.708414   20.137141   21.318100 C.3        1 MOL1        -0.2050
       5    H1      18.696581   20.029372   21.725160 H          1 MOL1         0.0710
       6    H2      20.195028   20.951935   21.867542 H          1 MOL1         0.0710
       7    C3      20.509597   18.821028   21.494016 C.3        1 MOL1        -0.1947
       8    H3      19.990134   18.003536   20.975196 H          1 MOL1         0.0712
       9    H4      21.484781   18.932479   21.000028 H          1 MOL1         0.0712
      10    C4      20.743180   18.435816   22.973022 C.3        1 MOL1        -0.1921
      11    H5      21.273081   19.248356   23.489127 H          1 MOL1         0.0712
      12    H6      21.406016   17.560244   23.009490 H          1 MOL1         0.0712
      13    C5      19.438723   18.104350   23.728966 C.3        1 MOL1        -0.2936
      14    H7      18.791265   18.985745   23.816853 H          1 MOL1         0.0724
      15    H8      19.662588   17.754104   24.744948 H          1 MOL1         0.0724
      16    H9      18.876935   17.313452   23.215036 H          1 MOL1         0.0724
@<TRIPOS>BOND
    1     1     2    1
    2     1     3    2
    3     1     4    1
    4     4     5    1
    5     4     6    1
    6     4     7    1
    7     7     8    1
    8     7     9    1
    9     7    10    1
   10    10    11    1
   11    10    12    1
   12    10    13    1
   13    13    14    1
   14    13    15    1
   15    13    16    1
@<TRIPOS>SUBSTRUCTURE
       1 MOL1            1 RESIDUE      1      MOL     
@<SCITEGIC>MOL_PROPERTY
VConf Rank
SciTegic.value.IntegerValue
54

@<SCITEGIC>MOL_PROPERTY
Conf_Id
SciTegic.value.IntegerValue
17

@<SCITEGIC>MOL_PROPERTY
Delta U+W
SciTegic.value.DoubleValue
-0.432

@<SCITEGIC>MOL_PROPERTY
U+W
SciTegic.value.DoubleValue
-57.336

@<SCITEGIC>MOL_PROPERTY
Grad RMS
SciTegic.value.DoubleValue
0.000000

@<SCITEGIC>MOL_PROPERTY
U
SciTegic.value.DoubleValue
7.263

@<SCITEGIC>MOL_PROPERTY
W
SciTegic.value.DoubleValue
-64.599

@<SCITEGIC>MOL_PROPERTY
W(PB)
SciTegic.value.DoubleValue
-66.503

@<SCITEGIC>MOL_PROPERTY
W(SA)
SciTegic.value.DoubleValue
1.904

@<SCITEGIC>MOL_PROPERTY
Valence
SciTegic.value.DoubleValue
6.734

@<SCITEGIC>MOL_PROPERTY
Coulomb
SciTegic.value.DoubleValue
-0.068

@<SCITEGIC>MOL_PROPERTY
VdW
SciTegic.value.DoubleValue
0.598

@<SCITEGIC>MOL_PROPERTY
VdW6
SciTegic.value.DoubleValue
-4.819

@<SCITEGIC>MOL_PROPERTY
VdW12
SciTegic.value.DoubleValue
5.417

@<SCITEGIC>MOL_PROPERTY
Bond
SciTegic.value.DoubleValue
0.107

@<SCITEGIC>MOL_PROPERTY
Angle
SciTegic.value.DoubleValue
2.469

@<SCITEGIC>MOL_PROPERTY
Pdih
SciTegic.value.DoubleValue
4.157

@<SCITEGIC>MOL_PROPERTY
Idih
SciTegic.value.DoubleValue
0.001

@<SCITEGIC>MOL_PROPERTY
Tether
SciTegic.value.DoubleValue
0.000

@<TRIPOS>MOLECULE
guest-s18_confgen4.mol2 : confsearch ligand conformer 55
          16          15           1
SMALL
USER_CHARGES
 
@<TRIPOS>ATOM
       1    C1      22.188596   20.256549   22.461351 C.2        1 MOL1         0.6075
       2    O1      22.940091   19.661118   23.207715 O.co2      1 MOL1        -0.6830
       3    O2      22.530326   20.711714   21.387895 O.co2      1 MOL1        -0.6830
       4    C2      20.744232   20.463593   22.909054 C.3        1 MOL1        -0.2050
       5    H1      20.310417   21.284471   22.325062 H          1 MOL1         0.0710
       6    H2      20.768871   20.796216   23.953558 H          1 MOL1         0.0710
       7    C3      19.857996   19.196459   22.790763 C.3        1 MOL1        -0.1947
       8    H3      20.319367   18.375237   23.356763 H          1 MOL1         0.0712
       9    H4      18.885357   19.396695   23.260269 H          1 MOL1         0.0712
      10    C4      19.635822   18.761791   21.325879 C.3        1 MOL1        -0.1921
      11    H5      20.601748   18.538832   20.851538 H          1 MOL1         0.0712
      12    H6      19.185928   19.588107   20.758276 H          1 MOL1         0.0712
      13    C5      18.724978   17.521436   21.235170 C.3        1 MOL1        -0.2936
      14    H7      19.166956   16.670111   21.769354 H          1 MOL1         0.0724
      15    H8      18.578088   17.225436   20.188306 H          1 MOL1         0.0724
      16    H9      17.738327   17.725517   21.671387 H          1 MOL1         0.0724
@<TRIPOS>BOND
    1     1     2    1
    2     1     3    2
    3     1     4    1
    4     4     5    1
    5     4     6    1
    6     4     7    1
    7     7     8    1
    8     7     9    1
    9     7    10    1
   10    10    11    1
   11    10    12    1
   12    10    13    1
   13    13    14    1
   14    13    15    1
   15    13    16    1
@<TRIPOS>SUBSTRUCTURE
       1 MOL1            1 RESIDUE      1      MOL     
@<SCITEGIC>MOL_PROPERTY
VConf Rank
SciTegic.value.IntegerValue
55

@<SCITEGIC>MOL_PROPERTY
Conf_Id
SciTegic.value.IntegerValue
19

@<SCITEGIC>MOL_PROPERTY
Delta U+W
SciTegic.value.DoubleValue
0.048

@<SCITEGIC>MOL_PROPERTY
U+W
SciTegic.value.DoubleValue
-56.856

@<SCITEGIC>MOL_PROPERTY
Grad RMS
SciTegic.value.DoubleValue
0.000000

@<SCITEGIC>MOL_PROPERTY
U
SciTegic.value.DoubleValue
8.276

@<SCITEGIC>MOL_PROPERTY
W
SciTegic.value.DoubleValue
-65.132

@<SCITEGIC>MOL_PROPERTY
W(PB)
SciTegic.value.DoubleValue
-67.031

@<SCITEGIC>MOL_PROPERTY
W(SA)
SciTegic.value.DoubleValue
1.899

@<SCITEGIC>MOL_PROPERTY
Valence
SciTegic.value.DoubleValue
6.513

@<SCITEGIC>MOL_PROPERTY
Coulomb
SciTegic.value.DoubleValue
1.428

@<SCITEGIC>MOL_PROPERTY
VdW
SciTegic.value.DoubleValue
0.335

@<SCITEGIC>MOL_PROPERTY
VdW6
SciTegic.value.DoubleValue
-5.021

@<SCITEGIC>MOL_PROPERTY
VdW12
SciTegic.value.DoubleValue
5.356

@<SCITEGIC>MOL_PROPERTY
Bond
SciTegic.value.DoubleValue
0.092

@<SCITEGIC>MOL_PROPERTY
Angle
SciTegic.value.DoubleValue
2.417

@<SCITEGIC>MOL_PROPERTY
Pdih
SciTegic.value.DoubleValue
4.003

@<SCITEGIC>MOL_PROPERTY
Idih
SciTegic.value.DoubleValue
0.001

@<SCITEGIC>MOL_PROPERTY
Tether
SciTegic.value.DoubleValue
0.000

@<TRIPOS>MOLECULE
guest-s18_confgen4.mol2 : confsearch ligand conformer 56
          16          15           1
SMALL
USER_CHARGES
 
@<TRIPOS>ATOM
       1    C1      21.360048   19.821997   20.377498 C.2        1 MOL1         0.6075
       2    O1      22.530396   19.690823   20.676532 O.co2      1 MOL1        -0.6830
       3    O2      20.900847   20.837363   19.893320 O.co2      1 MOL1        -0.6830
       4    C2      20.422924   18.638263   20.601264 C.3        1 MOL1        -0.2050
       5    H1      20.930923   17.742001   20.225914 H          1 MOL1         0.0710
       6    H2      19.527912   18.777862   19.982757 H          1 MOL1         0.0710
       7    C3      20.020492   18.421982   22.083261 C.3        1 MOL1        -0.1947
       8    H3      19.465970   17.477570   22.167813 H          1 MOL1         0.0712
       9    H4      20.927112   18.312270   22.694511 H          1 MOL1         0.0712
      10    C4      19.152576   19.572761   22.636993 C.3        1 MOL1        -0.1921
      11    H5      18.252569   19.689350   22.017499 H          1 MOL1         0.0712
      12    H6      19.705527   20.520540   22.576303 H          1 MOL1         0.0712
      13    C5      18.738857   19.316705   24.099738 C.3        1 MOL1        -0.2936
      14    H7      18.153725   18.391779   24.186614 H          1 MOL1         0.0724
      15    H8      18.123836   20.143647   24.477934 H          1 MOL1         0.0724
      16    H9      19.621085   19.226764   24.747067 H          1 MOL1         0.0724
@<TRIPOS>BOND
    1     1     2    1
    2     1     3    2
    3     1     4    1
    4     4     5    1
    5     4     6    1
    6     4     7    1
    7     7     8    1
    8     7     9    1
    9     7    10    1
   10    10    11    1
   11    10    12    1
   12    10    13    1
   13    13    14    1
   14    13    15    1
   15    13    16    1
@<TRIPOS>SUBSTRUCTURE
       1 MOL1            1 RESIDUE      1      MOL     
@<SCITEGIC>MOL_PROPERTY
VConf Rank
SciTegic.value.IntegerValue
56

@<SCITEGIC>MOL_PROPERTY
Conf_Id
SciTegic.value.IntegerValue
20

@<SCITEGIC>MOL_PROPERTY
Delta U+W
SciTegic.value.DoubleValue
-0.010

@<SCITEGIC>MOL_PROPERTY
U+W
SciTegic.value.DoubleValue
-56.914

@<SCITEGIC>MOL_PROPERTY
Grad RMS
SciTegic.value.DoubleValue
0.000000

@<SCITEGIC>MOL_PROPERTY
U
SciTegic.value.DoubleValue
8.277

@<SCITEGIC>MOL_PROPERTY
W
SciTegic.value.DoubleValue
-65.191

@<SCITEGIC>MOL_PROPERTY
W(PB)
SciTegic.value.DoubleValue
-67.081

@<SCITEGIC>MOL_PROPERTY
W(SA)
SciTegic.value.DoubleValue
1.890

@<SCITEGIC>MOL_PROPERTY
Valence
SciTegic.value.DoubleValue
6.513

@<SCITEGIC>MOL_PROPERTY
Coulomb
SciTegic.value.DoubleValue
1.429

@<SCITEGIC>MOL_PROPERTY
VdW
SciTegic.value.DoubleValue
0.335

@<SCITEGIC>MOL_PROPERTY
VdW6
SciTegic.value.DoubleValue
-5.021

@<SCITEGIC>MOL_PROPERTY
VdW12
SciTegic.value.DoubleValue
5.356

@<SCITEGIC>MOL_PROPERTY
Bond
SciTegic.value.DoubleValue
0.092

@<SCITEGIC>MOL_PROPERTY
Angle
SciTegic.value.DoubleValue
2.417

@<SCITEGIC>MOL_PROPERTY
Pdih
SciTegic.value.DoubleValue
4.002

@<SCITEGIC>MOL_PROPERTY
Idih
SciTegic.value.DoubleValue
0.001

@<SCITEGIC>MOL_PROPERTY
Tether
SciTegic.value.DoubleValue
0.000

@<TRIPOS>MOLECULE
guest-s18_confgen4.mol2 : confsearch ligand conformer 57
          16          15           1
SMALL
USER_CHARGES
 
@<TRIPOS>ATOM
       1    C1      18.951787   18.871513   24.097022 C.2        1 MOL1         0.6075
       2    O1      18.455228   17.818544   24.445551 O.co2      1 MOL1        -0.6830
       3    O2      18.414075   19.949969   24.252256 O.co2      1 MOL1        -0.6830
       4    C2      20.339284   18.837546   23.461852 C.3        1 MOL1        -0.2050
       5    H1      20.984028   18.243284   24.119909 H          1 MOL1         0.0710
       6    H2      20.750468   19.853505   23.460022 H          1 MOL1         0.0710
       7    C3      20.369405   18.232119   22.031737 C.3        1 MOL1        -0.1947
       8    H3      21.410704   18.173637   21.687283 H          1 MOL1         0.0712
       9    H4      20.002028   17.197628   22.078813 H          1 MOL1         0.0712
      10    C4      19.532155   19.012891   20.990873 C.3        1 MOL1        -0.1921
      11    H5      18.480318   19.048571   21.307045 H          1 MOL1         0.0712
      12    H6      19.550523   18.463110   20.039804 H          1 MOL1         0.0712
      13    C5      20.047939   20.447093   20.746997 C.3        1 MOL1        -0.2936
      14    H7      19.931900   21.069581   21.643396 H          1 MOL1         0.0724
      15    H8      19.483243   20.925061   19.936117 H          1 MOL1         0.0724
      16    H9      21.108517   20.441697   20.463783 H          1 MOL1         0.0724
@<TRIPOS>BOND
    1     1     2    1
    2     1     3    2
    3     1     4    1
    4     4     5    1
    5     4     6    1
    6     4     7    1
    7     7     8    1
    8     7     9    1
    9     7    10    1
   10    10    11    1
   11    10    12    1
   12    10    13    1
   13    13    14    1
   14    13    15    1
   15    13    16    1
@<TRIPOS>SUBSTRUCTURE
       1 MOL1            1 RESIDUE      1      MOL     
@<SCITEGIC>MOL_PROPERTY
VConf Rank
SciTegic.value.IntegerValue
57

@<SCITEGIC>MOL_PROPERTY
Conf_Id
SciTegic.value.IntegerValue
37

@<SCITEGIC>MOL_PROPERTY
Delta U+W
SciTegic.value.DoubleValue
1.063

@<SCITEGIC>MOL_PROPERTY
U+W
SciTegic.value.DoubleValue
-55.841

@<SCITEGIC>MOL_PROPERTY
Grad RMS
SciTegic.value.DoubleValue
0.000000

@<SCITEGIC>MOL_PROPERTY
U
SciTegic.value.DoubleValue
9.719

@<SCITEGIC>MOL_PROPERTY
W
SciTegic.value.DoubleValue
-65.560

@<SCITEGIC>MOL_PROPERTY
W(PB)
SciTegic.value.DoubleValue
-67.414

@<SCITEGIC>MOL_PROPERTY
W(SA)
SciTegic.value.DoubleValue
1.854

@<SCITEGIC>MOL_PROPERTY
Valence
SciTegic.value.DoubleValue
7.002

@<SCITEGIC>MOL_PROPERTY
Coulomb
SciTegic.value.DoubleValue
2.402

@<SCITEGIC>MOL_PROPERTY
VdW
SciTegic.value.DoubleValue
0.314

@<SCITEGIC>MOL_PROPERTY
VdW6
SciTegic.value.DoubleValue
-5.861

@<SCITEGIC>MOL_PROPERTY
VdW12
SciTegic.value.DoubleValue
6.175

@<SCITEGIC>MOL_PROPERTY
Bond
SciTegic.value.DoubleValue
0.134

@<SCITEGIC>MOL_PROPERTY
Angle
SciTegic.value.DoubleValue
2.733

@<SCITEGIC>MOL_PROPERTY
Pdih
SciTegic.value.DoubleValue
4.133

@<SCITEGIC>MOL_PROPERTY
Idih
SciTegic.value.DoubleValue
0.002

@<SCITEGIC>MOL_PROPERTY
Tether
SciTegic.value.DoubleValue
0.000

@<TRIPOS>MOLECULE
guest-s18_confgen4.mol2 : confsearch ligand conformer 58
          16          15           1
SMALL
USER_CHARGES
 
@<TRIPOS>ATOM
       1    C1      20.658128   18.971530   20.094826 C.2        1 MOL1         0.6075
       2    O1      20.115019   19.617176   19.220207 O.co2      1 MOL1        -0.6830
       3    O2      21.862724   18.836231   20.178161 O.co2      1 MOL1        -0.6830
       4    C2      19.776224   18.265748   21.121404 C.3        1 MOL1        -0.2050
       5    H1      20.381924   17.524798   21.655603 H          1 MOL1         0.0710
       6    H2      19.016695   17.703115   20.566030 H          1 MOL1         0.0710
       7    C3      19.074332   19.223681   22.122599 C.3        1 MOL1        -0.1947
       8    H3      18.434948   19.916745   21.558503 H          1 MOL1         0.0712
       9    H4      18.402850   18.641277   22.767803 H          1 MOL1         0.0712
      10    C4      20.043597   20.044652   23.006072 C.3        1 MOL1        -0.1921
      11    H5      19.456886   20.745677   23.615551 H          1 MOL1         0.0712
      12    H6      20.698451   20.659011   22.372569 H          1 MOL1         0.0712
      13    C5      20.903019   19.169169   23.942750 C.3        1 MOL1        -0.2936
      14    H7      20.272509   18.518737   24.562799 H          1 MOL1         0.0724
      15    H8      21.502551   19.798606   24.612998 H          1 MOL1         0.0724
      16    H9      21.596442   18.537996   23.372424 H          1 MOL1         0.0724
@<TRIPOS>BOND
    1     1     2    1
    2     1     3    2
    3     1     4    1
    4     4     5    1
    5     4     6    1
    6     4     7    1
    7     7     8    1
    8     7     9    1
    9     7    10    1
   10    10    11    1
   11    10    12    1
   12    10    13    1
   13    13    14    1
   14    13    15    1
   15    13    16    1
@<TRIPOS>SUBSTRUCTURE
       1 MOL1            1 RESIDUE      1      MOL     
@<SCITEGIC>MOL_PROPERTY
VConf Rank
SciTegic.value.IntegerValue
58

@<SCITEGIC>MOL_PROPERTY
Conf_Id
SciTegic.value.IntegerValue
39

@<SCITEGIC>MOL_PROPERTY
Delta U+W
SciTegic.value.DoubleValue
1.129

@<SCITEGIC>MOL_PROPERTY
U+W
SciTegic.value.DoubleValue
-55.775

@<SCITEGIC>MOL_PROPERTY
Grad RMS
SciTegic.value.DoubleValue
0.000000

@<SCITEGIC>MOL_PROPERTY
U
SciTegic.value.DoubleValue
9.718

@<SCITEGIC>MOL_PROPERTY
W
SciTegic.value.DoubleValue
-65.493

@<SCITEGIC>MOL_PROPERTY
W(PB)
SciTegic.value.DoubleValue
-67.361

@<SCITEGIC>MOL_PROPERTY
W(SA)
SciTegic.value.DoubleValue
1.869

@<SCITEGIC>MOL_PROPERTY
Valence
SciTegic.value.DoubleValue
7.002

@<SCITEGIC>MOL_PROPERTY
Coulomb
SciTegic.value.DoubleValue
2.402

@<SCITEGIC>MOL_PROPERTY
VdW
SciTegic.value.DoubleValue
0.314

@<SCITEGIC>MOL_PROPERTY
VdW6
SciTegic.value.DoubleValue
-5.861

@<SCITEGIC>MOL_PROPERTY
VdW12
SciTegic.value.DoubleValue
6.175

@<SCITEGIC>MOL_PROPERTY
Bond
SciTegic.value.DoubleValue
0.134

@<SCITEGIC>MOL_PROPERTY
Angle
SciTegic.value.DoubleValue
2.734

@<SCITEGIC>MOL_PROPERTY
Pdih
SciTegic.value.DoubleValue
4.133

@<SCITEGIC>MOL_PROPERTY
Idih
SciTegic.value.DoubleValue
0.002

@<SCITEGIC>MOL_PROPERTY
Tether
SciTegic.value.DoubleValue
0.000

@<TRIPOS>MOLECULE
guest-s18_confgen4.mol2 : confsearch ligand conformer 59
          16          15           1
SMALL
USER_CHARGES
 
@<TRIPOS>ATOM
       1    C1      21.652723   18.591823   21.452827 C.2        1 MOL1         0.6075
       2    O1      22.574498   18.858331   22.198563 O.co2      1 MOL1        -0.6830
       3    O2      21.633260   18.899782   20.277267 O.co2      1 MOL1        -0.6830
       4    C2      20.502585   17.748900   22.000842 C.3        1 MOL1        -0.2050
       5    H1      20.714293   17.492891   23.046125 H          1 MOL1         0.0710
       6    H2      20.514749   16.807535   21.439208 H          1 MOL1         0.0710
       7    C3      19.091823   18.390772   21.879451 C.3        1 MOL1        -0.1947
       8    H3      18.964805   18.829653   20.880056 H          1 MOL1         0.0712
       9    H4      18.346403   17.587521   21.954202 H          1 MOL1         0.0712
      10    C4      18.763450   19.441913   22.967033 C.3        1 MOL1        -0.1921
      11    H5      18.893516   18.999871   23.964487 H          1 MOL1         0.0712
      12    H6      17.700525   19.707483   22.883639 H          1 MOL1         0.0712
      13    C5      19.599874   20.733797   22.858778 C.3        1 MOL1        -0.2936
      14    H7      20.653896   20.548548   23.099023 H          1 MOL1         0.0724
      15    H8      19.229530   21.490970   23.561845 H          1 MOL1         0.0724
      16    H9      19.545360   21.155032   21.846395 H          1 MOL1         0.0724
@<TRIPOS>BOND
    1     1     2    1
    2     1     3    2
    3     1     4    1
    4     4     5    1
    5     4     6    1
    6     4     7    1
    7     7     8    1
    8     7     9    1
    9     7    10    1
   10    10    11    1
   11    10    12    1
   12    10    13    1
   13    13    14    1
   14    13    15    1
   15    13    16    1
@<TRIPOS>SUBSTRUCTURE
       1 MOL1            1 RESIDUE      1      MOL     
@<SCITEGIC>MOL_PROPERTY
VConf Rank
SciTegic.value.IntegerValue
59

@<SCITEGIC>MOL_PROPERTY
Conf_Id
SciTegic.value.IntegerValue
47

@<SCITEGIC>MOL_PROPERTY
Delta U+W
SciTegic.value.DoubleValue
2.301

@<SCITEGIC>MOL_PROPERTY
U+W
SciTegic.value.DoubleValue
-54.603

@<SCITEGIC>MOL_PROPERTY
Grad RMS
SciTegic.value.DoubleValue
0.000000

@<SCITEGIC>MOL_PROPERTY
U
SciTegic.value.DoubleValue
11.258

@<SCITEGIC>MOL_PROPERTY
W
SciTegic.value.DoubleValue
-65.861

@<SCITEGIC>MOL_PROPERTY
W(PB)
SciTegic.value.DoubleValue
-67.702

@<SCITEGIC>MOL_PROPERTY
W(SA)
SciTegic.value.DoubleValue
1.841

@<SCITEGIC>MOL_PROPERTY
Valence
SciTegic.value.DoubleValue
8.169

@<SCITEGIC>MOL_PROPERTY
Coulomb
SciTegic.value.DoubleValue
2.735

@<SCITEGIC>MOL_PROPERTY
VdW
SciTegic.value.DoubleValue
0.355

@<SCITEGIC>MOL_PROPERTY
VdW6
SciTegic.value.DoubleValue
-6.245

@<SCITEGIC>MOL_PROPERTY
VdW12
SciTegic.value.DoubleValue
6.600

@<SCITEGIC>MOL_PROPERTY
Bond
SciTegic.value.DoubleValue
0.149

@<SCITEGIC>MOL_PROPERTY
Angle
SciTegic.value.DoubleValue
3.168

@<SCITEGIC>MOL_PROPERTY
Pdih
SciTegic.value.DoubleValue
4.840

@<SCITEGIC>MOL_PROPERTY
Idih
SciTegic.value.DoubleValue
0.011

@<SCITEGIC>MOL_PROPERTY
Tether
SciTegic.value.DoubleValue
0.000

@<TRIPOS>MOLECULE
guest-s18_confgen4.mol2 : confsearch ligand conformer 60
          16          15           1
SMALL
USER_CHARGES
 
@<TRIPOS>ATOM
       1    C1      18.413084   20.216585   23.054669 C.2        1 MOL1         0.6075
       2    O1      18.236856   19.863180   24.204107 O.co2      1 MOL1        -0.6830
       3    O2      17.508724   20.381542   22.259848 O.co2      1 MOL1        -0.6830
       4    C2      19.834394   20.557960   22.610815 C.3        1 MOL1        -0.2050
       5    H1      20.161983   21.393828   23.239909 H          1 MOL1         0.0710
       6    H2      19.806047   20.933440   21.580674 H          1 MOL1         0.0710
       7    C3      20.864790   19.400241   22.733104 C.3        1 MOL1        -0.1947
       8    H3      21.870616   19.841430   22.744041 H          1 MOL1         0.0712
       9    H4      20.745818   18.893699   23.700989 H          1 MOL1         0.0712
      10    C4      20.815659   18.366088   21.582593 C.3        1 MOL1        -0.1921
      11    H5      21.678857   17.693695   21.682945 H          1 MOL1         0.0712
      12    H6      20.933089   18.876616   20.616776 H          1 MOL1         0.0712
      13    C5      19.530641   17.512435   21.565550 C.3        1 MOL1        -0.2936
      14    H7      19.612885   16.709630   20.821567 H          1 MOL1         0.0724
      15    H8      18.653402   18.116268   21.303182 H          1 MOL1         0.0724
      16    H9      19.351311   17.050380   22.545180 H          1 MOL1         0.0724
@<TRIPOS>BOND
    1     1     2    1
    2     1     3    2
    3     1     4    1
    4     4     5    1
    5     4     6    1
    6     4     7    1
    7     7     8    1
    8     7     9    1
    9     7    10    1
   10    10    11    1
   11    10    12    1
   12    10    13    1
   13    13    14    1
   14    13    15    1
   15    13    16    1
@<TRIPOS>SUBSTRUCTURE
       1 MOL1            1 RESIDUE      1      MOL     
@<SCITEGIC>MOL_PROPERTY
VConf Rank
SciTegic.value.IntegerValue
60

@<SCITEGIC>MOL_PROPERTY
Conf_Id
SciTegic.value.IntegerValue
45

@<SCITEGIC>MOL_PROPERTY
Delta U+W
SciTegic.value.DoubleValue
2.303

@<SCITEGIC>MOL_PROPERTY
U+W
SciTegic.value.DoubleValue
-54.601

@<SCITEGIC>MOL_PROPERTY
Grad RMS
SciTegic.value.DoubleValue
0.000000

@<SCITEGIC>MOL_PROPERTY
U
SciTegic.value.DoubleValue
11.258

@<SCITEGIC>MOL_PROPERTY
W
SciTegic.value.DoubleValue
-65.860

@<SCITEGIC>MOL_PROPERTY
W(PB)
SciTegic.value.DoubleValue
-67.709

@<SCITEGIC>MOL_PROPERTY
W(SA)
SciTegic.value.DoubleValue
1.849

@<SCITEGIC>MOL_PROPERTY
Valence
SciTegic.value.DoubleValue
8.169

@<SCITEGIC>MOL_PROPERTY
Coulomb
SciTegic.value.DoubleValue
2.735

@<SCITEGIC>MOL_PROPERTY
VdW
SciTegic.value.DoubleValue
0.355

@<SCITEGIC>MOL_PROPERTY
VdW6
SciTegic.value.DoubleValue
-6.245

@<SCITEGIC>MOL_PROPERTY
VdW12
SciTegic.value.DoubleValue
6.600

@<SCITEGIC>MOL_PROPERTY
Bond
SciTegic.value.DoubleValue
0.149

@<SCITEGIC>MOL_PROPERTY
Angle
SciTegic.value.DoubleValue
3.168

@<SCITEGIC>MOL_PROPERTY
Pdih
SciTegic.value.DoubleValue
4.840

@<SCITEGIC>MOL_PROPERTY
Idih
SciTegic.value.DoubleValue
0.011

@<SCITEGIC>MOL_PROPERTY
Tether
SciTegic.value.DoubleValue
0.000

@<TRIPOS>MOLECULE
guest-s18_confgen4.mol2 : confsearch ligand conformer 61
          16          15           1
SMALL
USER_CHARGES
 
@<TRIPOS>ATOM
       1    C1      21.178687   16.630054   21.807344 C.2        1 MOL1         0.6075
       2    O1      22.288933   17.036504   22.090061 O.co2      1 MOL1        -0.6830
       3    O2      20.937572   15.459736   21.589323 O.co2      1 MOL1        -0.6830
       4    C2      20.010335   17.612944   21.713667 C.3        1 MOL1        -0.2050
       5    H1      19.241016   17.274883   22.417956 H          1 MOL1         0.0710
       6    H2      19.585795   17.521660   20.706892 H          1 MOL1         0.0710
       7    C3      20.366209   19.096224   21.999295 C.3        1 MOL1        -0.1947
       8    H3      20.796039   19.180565   23.007066 H          1 MOL1         0.0712
       9    H4      21.141158   19.427595   21.294231 H          1 MOL1         0.0712
      10    C4      19.131732   20.014816   21.883051 C.3        1 MOL1        -0.1921
      11    H5      18.356602   19.685563   22.588930 H          1 MOL1         0.0712
      12    H6      18.701917   19.932748   20.875071 H          1 MOL1         0.0712
      13    C5      19.491500   21.486425   22.167788 C.3        1 MOL1        -0.2936
      14    H7      19.895182   21.602825   23.182165 H          1 MOL1         0.0724
      15    H8      18.603207   22.125601   22.081000 H          1 MOL1         0.0724
      16    H9      20.243044   21.851839   21.455663 H          1 MOL1         0.0724
@<TRIPOS>BOND
    1     1     2    1
    2     1     3    2
    3     1     4    1
    4     4     5    1
    5     4     6    1
    6     4     7    1
    7     7     8    1
    8     7     9    1
    9     7    10    1
   10    10    11    1
   11    10    12    1
   12    10    13    1
   13    13    14    1
   14    13    15    1
   15    13    16    1
@<TRIPOS>SUBSTRUCTURE
       1 MOL1            1 RESIDUE      1      MOL     
@<SCITEGIC>MOL_PROPERTY
VConf Rank
SciTegic.value.IntegerValue
61

@<SCITEGIC>MOL_PROPERTY
Conf_Id
SciTegic.value.IntegerValue
0

@<SCITEGIC>MOL_PROPERTY
Delta U+W
SciTegic.value.DoubleValue
0.000

@<SCITEGIC>MOL_PROPERTY
U+W
SciTegic.value.DoubleValue
-56.904

@<SCITEGIC>MOL_PROPERTY
Grad RMS
SciTegic.value.DoubleValue
0.000000

@<SCITEGIC>MOL_PROPERTY
U
SciTegic.value.DoubleValue
7.329

@<SCITEGIC>MOL_PROPERTY
W
SciTegic.value.DoubleValue
-64.233

@<SCITEGIC>MOL_PROPERTY
W(PB)
SciTegic.value.DoubleValue
-66.148

@<SCITEGIC>MOL_PROPERTY
W(SA)
SciTegic.value.DoubleValue
1.915

@<SCITEGIC>MOL_PROPERTY
Valence
SciTegic.value.DoubleValue
6.755

@<SCITEGIC>MOL_PROPERTY
Coulomb
SciTegic.value.DoubleValue
-0.421

@<SCITEGIC>MOL_PROPERTY
VdW
SciTegic.value.DoubleValue
0.995

@<SCITEGIC>MOL_PROPERTY
VdW6
SciTegic.value.DoubleValue
-4.495

@<SCITEGIC>MOL_PROPERTY
VdW12
SciTegic.value.DoubleValue
5.490

@<SCITEGIC>MOL_PROPERTY
Bond
SciTegic.value.DoubleValue
0.106

@<SCITEGIC>MOL_PROPERTY
Angle
SciTegic.value.DoubleValue
2.715

@<SCITEGIC>MOL_PROPERTY
Pdih
SciTegic.value.DoubleValue
3.934

@<SCITEGIC>MOL_PROPERTY
Idih
SciTegic.value.DoubleValue
0.000

@<SCITEGIC>MOL_PROPERTY
Tether
SciTegic.value.DoubleValue
0.000

@<TRIPOS>MOLECULE
guest-s18_confgen4.mol2 : confsearch ligand conformer 62
          16          15           1
SMALL
USER_CHARGES
 
@<TRIPOS>ATOM
       1    C1      17.405105   18.963227   22.658773 C.2        1 MOL1         0.6075
       2    O1      16.686433   18.424553   21.840737 O.co2      1 MOL1        -0.6830
       3    O2      17.205065   18.926709   23.856476 O.co2      1 MOL1        -0.6830
       4    C2      18.635266   19.710610   22.156074 C.3        1 MOL1        -0.2050
       5    H1      18.825417   20.550338   22.835447 H          1 MOL1         0.0710
       6    H2      18.397887   20.136229   21.173552 H          1 MOL1         0.0710
       7    C3      19.890202   18.808624   22.057995 C.3        1 MOL1        -0.1947
       8    H3      20.107614   18.380354   23.046360 H          1 MOL1         0.0712
       9    H4      19.680047   17.966181   21.384440 H          1 MOL1         0.0712
      10    C4      21.119528   19.588708   21.547318 C.3        1 MOL1        -0.1921
      11    H5      21.330425   20.430853   22.221003 H          1 MOL1         0.0712
      12    H6      20.902732   20.016608   20.558663 H          1 MOL1         0.0712
      13    C5      22.364555   18.684845   21.452229 C.3        1 MOL1        -0.2936
      14    H7      22.192201   17.850414   20.759778 H          1 MOL1         0.0724
      15    H8      22.623038   18.267699   22.434394 H          1 MOL1         0.0724
      16    H9      23.229229   19.254640   21.087783 H          1 MOL1         0.0724
@<TRIPOS>BOND
    1     1     2    1
    2     1     3    2
    3     1     4    1
    4     4     5    1
    5     4     6    1
    6     4     7    1
    7     7     8    1
    8     7     9    1
    9     7    10    1
   10    10    11    1
   11    10    12    1
   12    10    13    1
   13    13    14    1
   14    13    15    1
   15    13    16    1
@<TRIPOS>SUBSTRUCTURE
       1 MOL1            1 RESIDUE      1      MOL     
@<SCITEGIC>MOL_PROPERTY
VConf Rank
SciTegic.value.IntegerValue
62

@<SCITEGIC>MOL_PROPERTY
Conf_Id
SciTegic.value.IntegerValue
22

@<SCITEGIC>MOL_PROPERTY
Delta U+W
SciTegic.value.DoubleValue
-1.185

@<SCITEGIC>MOL_PROPERTY
U+W
SciTegic.value.DoubleValue
-58.089

@<SCITEGIC>MOL_PROPERTY
Grad RMS
SciTegic.value.DoubleValue
0.000000

@<SCITEGIC>MOL_PROPERTY
U
SciTegic.value.DoubleValue
6.298

@<SCITEGIC>MOL_PROPERTY
W
SciTegic.value.DoubleValue
-64.387

@<SCITEGIC>MOL_PROPERTY
W(PB)
SciTegic.value.DoubleValue
-66.329

@<SCITEGIC>MOL_PROPERTY
W(SA)
SciTegic.value.DoubleValue
1.942

@<SCITEGIC>MOL_PROPERTY
Valence
SciTegic.value.DoubleValue
6.246

@<SCITEGIC>MOL_PROPERTY
Coulomb
SciTegic.value.DoubleValue
-0.408

@<SCITEGIC>MOL_PROPERTY
VdW
SciTegic.value.DoubleValue
0.460

@<SCITEGIC>MOL_PROPERTY
VdW6
SciTegic.value.DoubleValue
-4.207

@<SCITEGIC>MOL_PROPERTY
VdW12
SciTegic.value.DoubleValue
4.667

@<SCITEGIC>MOL_PROPERTY
Bond
SciTegic.value.DoubleValue
0.072

@<SCITEGIC>MOL_PROPERTY
Angle
SciTegic.value.DoubleValue
2.246

@<SCITEGIC>MOL_PROPERTY
Pdih
SciTegic.value.DoubleValue
3.928

@<SCITEGIC>MOL_PROPERTY
Idih
SciTegic.value.DoubleValue
0.001

@<SCITEGIC>MOL_PROPERTY
Tether
SciTegic.value.DoubleValue
0.000

@<TRIPOS>MOLECULE
guest-s18_confgen4.mol2 : confsearch ligand conformer 63
          16          15           1
SMALL
USER_CHARGES
 
@<TRIPOS>ATOM
       1    C1      18.388607   17.177878   22.575562 C.2        1 MOL1         0.6075
       2    O1      17.751287   17.141097   23.609227 O.co2      1 MOL1        -0.6830
       3    O2      18.647773   16.194358   21.911123 O.co2      1 MOL1        -0.6830
       4    C2      18.908249   18.529079   22.097230 C.3        1 MOL1        -0.2050
       5    H1      18.189694   19.298397   22.404468 H          1 MOL1         0.0710
       6    H2      18.919806   18.514056   21.001439 H          1 MOL1         0.0710
       7    C3      20.317429   18.861992   22.652543 C.3        1 MOL1        -0.1947
       8    H3      20.292821   18.783589   23.748297 H          1 MOL1         0.0712
       9    H4      21.036555   18.108249   22.303204 H          1 MOL1         0.0712
      10    C4      20.812938   20.274790   22.266693 C.3        1 MOL1        -0.1921
      11    H5      21.761009   20.470702   22.786394 H          1 MOL1         0.0712
      12    H6      20.099810   21.029470   22.626260 H          1 MOL1         0.0712
      13    C5      21.032185   20.449383   20.748674 C.3        1 MOL1        -0.2936
      14    H7      20.087385   20.374520   20.195927 H          1 MOL1         0.0724
      15    H8      21.720163   19.686824   20.360809 H          1 MOL1         0.0724
      16    H9      21.465007   21.435188   20.534518 H          1 MOL1         0.0724
@<TRIPOS>BOND
    1     1     2    1
    2     1     3    2
    3     1     4    1
    4     4     5    1
    5     4     6    1
    6     4     7    1
    7     7     8    1
    8     7     9    1
    9     7    10    1
   10    10    11    1
   11    10    12    1
   12    10    13    1
   13    13    14    1
   14    13    15    1
   15    13    16    1
@<TRIPOS>SUBSTRUCTURE
       1 MOL1            1 RESIDUE      1      MOL     
@<SCITEGIC>MOL_PROPERTY
VConf Rank
SciTegic.value.IntegerValue
63

@<SCITEGIC>MOL_PROPERTY
Conf_Id
SciTegic.value.IntegerValue
36

@<SCITEGIC>MOL_PROPERTY
Delta U+W
SciTegic.value.DoubleValue
-0.427

@<SCITEGIC>MOL_PROPERTY
U+W
SciTegic.value.DoubleValue
-57.331

@<SCITEGIC>MOL_PROPERTY
Grad RMS
SciTegic.value.DoubleValue
0.000000

@<SCITEGIC>MOL_PROPERTY
U
SciTegic.value.DoubleValue
7.263

@<SCITEGIC>MOL_PROPERTY
W
SciTegic.value.DoubleValue
-64.594

@<SCITEGIC>MOL_PROPERTY
W(PB)
SciTegic.value.DoubleValue
-66.513

@<SCITEGIC>MOL_PROPERTY
W(SA)
SciTegic.value.DoubleValue
1.920

@<SCITEGIC>MOL_PROPERTY
Valence
SciTegic.value.DoubleValue
6.734

@<SCITEGIC>MOL_PROPERTY
Coulomb
SciTegic.value.DoubleValue
-0.068

@<SCITEGIC>MOL_PROPERTY
VdW
SciTegic.value.DoubleValue
0.598

@<SCITEGIC>MOL_PROPERTY
VdW6
SciTegic.value.DoubleValue
-4.819

@<SCITEGIC>MOL_PROPERTY
VdW12
SciTegic.value.DoubleValue
5.417

@<SCITEGIC>MOL_PROPERTY
Bond
SciTegic.value.DoubleValue
0.107

@<SCITEGIC>MOL_PROPERTY
Angle
SciTegic.value.DoubleValue
2.469

@<SCITEGIC>MOL_PROPERTY
Pdih
SciTegic.value.DoubleValue
4.157

@<SCITEGIC>MOL_PROPERTY
Idih
SciTegic.value.DoubleValue
0.001

@<SCITEGIC>MOL_PROPERTY
Tether
SciTegic.value.DoubleValue
0.000

@<TRIPOS>MOLECULE
guest-s18_confgen4.mol2 : confsearch ligand conformer 64
          16          15           1
SMALL
USER_CHARGES
 
@<TRIPOS>ATOM
       1    C1      18.091965   20.571284   23.061555 C.2        1 MOL1         0.6075
       2    O1      17.812797   21.525012   22.362681 O.co2      1 MOL1        -0.6830
       3    O2      17.814416   20.499792   24.242170 O.co2      1 MOL1        -0.6830
       4    C2      18.849344   19.409660   22.427855 C.3        1 MOL1        -0.2050
       5    H1      18.528727   19.331839   21.382739 H          1 MOL1         0.0710
       6    H2      18.540699   18.486240   22.932435 H          1 MOL1         0.0710
       7    C3      20.388653   19.576987   22.514607 C.3        1 MOL1        -0.1947
       8    H3      20.690279   20.482099   21.969536 H          1 MOL1         0.0712
       9    H4      20.667626   19.739374   23.564957 H          1 MOL1         0.0712
      10    C4      21.171541   18.357575   21.975602 C.3        1 MOL1        -0.1921
      11    H5      20.878628   17.454320   22.528514 H          1 MOL1         0.0712
      12    H6      22.241671   18.509468   22.173237 H          1 MOL1         0.0712
      13    C5      20.972727   18.127168   20.462222 C.3        1 MOL1        -0.2936
      14    H7      19.934413   17.858810   20.230553 H          1 MOL1         0.0724
      15    H8      21.613640   17.307873   20.111518 H          1 MOL1         0.0724
      16    H9      21.232163   19.027639   19.890300 H          1 MOL1         0.0724
@<TRIPOS>BOND
    1     1     2    1
    2     1     3    2
    3     1     4    1
    4     4     5    1
    5     4     6    1
    6     4     7    1
    7     7     8    1
    8     7     9    1
    9     7    10    1
   10    10    11    1
   11    10    12    1
   12    10    13    1
   13    13    14    1
   14    13    15    1
   15    13    16    1
@<TRIPOS>SUBSTRUCTURE
       1 MOL1            1 RESIDUE      1      MOL     
@<SCITEGIC>MOL_PROPERTY
VConf Rank
SciTegic.value.IntegerValue
64

@<SCITEGIC>MOL_PROPERTY
Conf_Id
SciTegic.value.IntegerValue
17

@<SCITEGIC>MOL_PROPERTY
Delta U+W
SciTegic.value.DoubleValue
-0.432

@<SCITEGIC>MOL_PROPERTY
U+W
SciTegic.value.DoubleValue
-57.336

@<SCITEGIC>MOL_PROPERTY
Grad RMS
SciTegic.value.DoubleValue
0.000000

@<SCITEGIC>MOL_PROPERTY
U
SciTegic.value.DoubleValue
7.263

@<SCITEGIC>MOL_PROPERTY
W
SciTegic.value.DoubleValue
-64.599

@<SCITEGIC>MOL_PROPERTY
W(PB)
SciTegic.value.DoubleValue
-66.503

@<SCITEGIC>MOL_PROPERTY
W(SA)
SciTegic.value.DoubleValue
1.904

@<SCITEGIC>MOL_PROPERTY
Valence
SciTegic.value.DoubleValue
6.734

@<SCITEGIC>MOL_PROPERTY
Coulomb
SciTegic.value.DoubleValue
-0.068

@<SCITEGIC>MOL_PROPERTY
VdW
SciTegic.value.DoubleValue
0.598

@<SCITEGIC>MOL_PROPERTY
VdW6
SciTegic.value.DoubleValue
-4.819

@<SCITEGIC>MOL_PROPERTY
VdW12
SciTegic.value.DoubleValue
5.417

@<SCITEGIC>MOL_PROPERTY
Bond
SciTegic.value.DoubleValue
0.107

@<SCITEGIC>MOL_PROPERTY
Angle
SciTegic.value.DoubleValue
2.469

@<SCITEGIC>MOL_PROPERTY
Pdih
SciTegic.value.DoubleValue
4.157

@<SCITEGIC>MOL_PROPERTY
Idih
SciTegic.value.DoubleValue
0.001

@<SCITEGIC>MOL_PROPERTY
Tether
SciTegic.value.DoubleValue
0.000

@<TRIPOS>MOLECULE
guest-s18_confgen4.mol2 : confsearch ligand conformer 65
          16          15           1
SMALL
USER_CHARGES
 
@<TRIPOS>ATOM
       1    C1      19.218767   16.953018   22.080887 C.2        1 MOL1         0.6075
       2    O1      18.083239   16.904516   21.651276 O.co2      1 MOL1        -0.6830
       3    O2      20.106869   16.208673   21.715529 O.co2      1 MOL1        -0.6830
       4    C2      19.538479   17.989647   23.154515 C.3        1 MOL1        -0.2050
       5    H1      20.457129   17.686857   23.671703 H          1 MOL1         0.0710
       6    H2      18.731175   17.954276   23.895625 H          1 MOL1         0.0710
       7    C3      19.681031   19.436193   22.613945 C.3        1 MOL1        -0.1947
       8    H3      18.765328   19.715166   22.074236 H          1 MOL1         0.0712
       9    H4      19.770259   20.126920   23.463353 H          1 MOL1         0.0712
      10    C4      20.905643   19.606533   21.689018 C.3        1 MOL1        -0.1921
      11    H5      20.817195   18.934349   20.824108 H          1 MOL1         0.0712
      12    H6      21.819019   19.315415   22.226021 H          1 MOL1         0.0712
      13    C5      21.043133   21.059711   21.193323 C.3        1 MOL1        -0.2936
      14    H7      20.154762   21.366417   20.625715 H          1 MOL1         0.0724
      15    H8      21.917071   21.163247   20.537099 H          1 MOL1         0.0724
      16    H9      21.168001   21.752345   22.035987 H          1 MOL1         0.0724
@<TRIPOS>BOND
    1     1     2    1
    2     1     3    2
    3     1     4    1
    4     4     5    1
    5     4     6    1
    6     4     7    1
    7     7     8    1
    8     7     9    1
    9     7    10    1
   10    10    11    1
   11    10    12    1
   12    10    13    1
   13    13    14    1
   14    13    15    1
   15    13    16    1
@<TRIPOS>SUBSTRUCTURE
       1 MOL1            1 RESIDUE      1      MOL     
@<SCITEGIC>MOL_PROPERTY
VConf Rank
SciTegic.value.IntegerValue
65

@<SCITEGIC>MOL_PROPERTY
Conf_Id
SciTegic.value.IntegerValue
19

@<SCITEGIC>MOL_PROPERTY
Delta U+W
SciTegic.value.DoubleValue
0.048

@<SCITEGIC>MOL_PROPERTY
U+W
SciTegic.value.DoubleValue
-56.856

@<SCITEGIC>MOL_PROPERTY
Grad RMS
SciTegic.value.DoubleValue
0.000000

@<SCITEGIC>MOL_PROPERTY
U
SciTegic.value.DoubleValue
8.276

@<SCITEGIC>MOL_PROPERTY
W
SciTegic.value.DoubleValue
-65.132

@<SCITEGIC>MOL_PROPERTY
W(PB)
SciTegic.value.DoubleValue
-67.031

@<SCITEGIC>MOL_PROPERTY
W(SA)
SciTegic.value.DoubleValue
1.899

@<SCITEGIC>MOL_PROPERTY
Valence
SciTegic.value.DoubleValue
6.513

@<SCITEGIC>MOL_PROPERTY
Coulomb
SciTegic.value.DoubleValue
1.428

@<SCITEGIC>MOL_PROPERTY
VdW
SciTegic.value.DoubleValue
0.335

@<SCITEGIC>MOL_PROPERTY
VdW6
SciTegic.value.DoubleValue
-5.021

@<SCITEGIC>MOL_PROPERTY
VdW12
SciTegic.value.DoubleValue
5.356

@<SCITEGIC>MOL_PROPERTY
Bond
SciTegic.value.DoubleValue
0.092

@<SCITEGIC>MOL_PROPERTY
Angle
SciTegic.value.DoubleValue
2.417

@<SCITEGIC>MOL_PROPERTY
Pdih
SciTegic.value.DoubleValue
4.003

@<SCITEGIC>MOL_PROPERTY
Idih
SciTegic.value.DoubleValue
0.001

@<SCITEGIC>MOL_PROPERTY
Tether
SciTegic.value.DoubleValue
0.000

@<TRIPOS>MOLECULE
guest-s18_confgen4.mol2 : confsearch ligand conformer 66
          16          15           1
SMALL
USER_CHARGES
 
@<TRIPOS>ATOM
       1    C1      19.007776   20.704702   20.512300 C.2        1 MOL1         0.6075
       2    O1      19.741865   21.651598   20.310205 O.co2      1 MOL1        -0.6830
       3    O2      17.820921   20.814056   20.748268 O.co2      1 MOL1        -0.6830
       4    C2      19.606061   19.302326   20.442351 C.3        1 MOL1        -0.2050
       5    H1      20.233588   19.257666   19.544324 H          1 MOL1         0.0710
       6    H2      18.792654   18.581004   20.296927 H          1 MOL1         0.0710
       7    C3      20.450795   18.912863   21.683232 C.3        1 MOL1        -0.1947
       8    H3      20.951467   17.955023   21.487197 H          1 MOL1         0.0712
       9    H4      21.243347   19.659210   21.833066 H          1 MOL1         0.0712
      10    C4      19.599958   18.788936   22.965772 C.3        1 MOL1        -0.1921
      11    H5      18.800409   18.051424   22.810285 H          1 MOL1         0.0712
      12    H6      19.109965   19.748237   23.183419 H          1 MOL1         0.0712
      13    C5      20.457504   18.368432   24.175790 C.3        1 MOL1        -0.2936
      14    H7      20.933344   17.394566   24.000935 H          1 MOL1         0.0724
      15    H8      19.838239   18.285903   25.078463 H          1 MOL1         0.0724
      16    H9      21.246905   19.105731   24.372484 H          1 MOL1         0.0724
@<TRIPOS>BOND
    1     1     2    1
    2     1     3    2
    3     1     4    1
    4     4     5    1
    5     4     6    1
    6     4     7    1
    7     7     8    1
    8     7     9    1
    9     7    10    1
   10    10    11    1
   11    10    12    1
   12    10    13    1
   13    13    14    1
   14    13    15    1
   15    13    16    1
@<TRIPOS>SUBSTRUCTURE
       1 MOL1            1 RESIDUE      1      MOL     
@<SCITEGIC>MOL_PROPERTY
VConf Rank
SciTegic.value.IntegerValue
66

@<SCITEGIC>MOL_PROPERTY
Conf_Id
SciTegic.value.IntegerValue
20

@<SCITEGIC>MOL_PROPERTY
Delta U+W
SciTegic.value.DoubleValue
-0.010

@<SCITEGIC>MOL_PROPERTY
U+W
SciTegic.value.DoubleValue
-56.914

@<SCITEGIC>MOL_PROPERTY
Grad RMS
SciTegic.value.DoubleValue
0.000000

@<SCITEGIC>MOL_PROPERTY
U
SciTegic.value.DoubleValue
8.277

@<SCITEGIC>MOL_PROPERTY
W
SciTegic.value.DoubleValue
-65.191

@<SCITEGIC>MOL_PROPERTY
W(PB)
SciTegic.value.DoubleValue
-67.081

@<SCITEGIC>MOL_PROPERTY
W(SA)
SciTegic.value.DoubleValue
1.890

@<SCITEGIC>MOL_PROPERTY
Valence
SciTegic.value.DoubleValue
6.513

@<SCITEGIC>MOL_PROPERTY
Coulomb
SciTegic.value.DoubleValue
1.429

@<SCITEGIC>MOL_PROPERTY
VdW
SciTegic.value.DoubleValue
0.335

@<SCITEGIC>MOL_PROPERTY
VdW6
SciTegic.value.DoubleValue
-5.021

@<SCITEGIC>MOL_PROPERTY
VdW12
SciTegic.value.DoubleValue
5.356

@<SCITEGIC>MOL_PROPERTY
Bond
SciTegic.value.DoubleValue
0.092

@<SCITEGIC>MOL_PROPERTY
Angle
SciTegic.value.DoubleValue
2.417

@<SCITEGIC>MOL_PROPERTY
Pdih
SciTegic.value.DoubleValue
4.002

@<SCITEGIC>MOL_PROPERTY
Idih
SciTegic.value.DoubleValue
0.001

@<SCITEGIC>MOL_PROPERTY
Tether
SciTegic.value.DoubleValue
0.000

@<TRIPOS>MOLECULE
guest-s18_confgen4.mol2 : confsearch ligand conformer 67
          16          15           1
SMALL
USER_CHARGES
 
@<TRIPOS>ATOM
       1    C1      18.275124   18.442777   23.429349 C.2        1 MOL1         0.6075
       2    O1      18.468220   17.892427   24.495470 O.co2      1 MOL1        -0.6830
       3    O2      17.500299   18.026760   22.590972 O.co2      1 MOL1        -0.6830
       4    C2      19.021360   19.743637   23.145376 C.3        1 MOL1        -0.2050
       5    H1      18.874603   20.398890   24.011971 H          1 MOL1         0.0710
       6    H2      18.545250   20.243909   22.294321 H          1 MOL1         0.0710
       7    C3      20.543037   19.561689   22.892250 C.3        1 MOL1        -0.1947
       8    H3      21.009692   20.549359   22.777740 H          1 MOL1         0.0712
       9    H4      20.997208   19.108006   23.784021 H          1 MOL1         0.0712
      10    C4      20.884927   18.691296   21.659563 C.3        1 MOL1        -0.1921
      11    H5      20.452501   17.688012   21.777998 H          1 MOL1         0.0712
      12    H6      21.974256   18.555107   21.615488 H          1 MOL1         0.0712
      13    C5      20.405822   19.307179   20.327801 C.3        1 MOL1        -0.2936
      14    H7      19.310141   19.347424   20.279308 H          1 MOL1         0.0724
      15    H8      20.753260   18.703777   19.479242 H          1 MOL1         0.0724
      16    H9      20.795902   20.325499   20.201591 H          1 MOL1         0.0724
@<TRIPOS>BOND
    1     1     2    1
    2     1     3    2
    3     1     4    1
    4     4     5    1
    5     4     6    1
    6     4     7    1
    7     7     8    1
    8     7     9    1
    9     7    10    1
   10    10    11    1
   11    10    12    1
   12    10    13    1
   13    13    14    1
   14    13    15    1
   15    13    16    1
@<TRIPOS>SUBSTRUCTURE
       1 MOL1            1 RESIDUE      1      MOL     
@<SCITEGIC>MOL_PROPERTY
VConf Rank
SciTegic.value.IntegerValue
67

@<SCITEGIC>MOL_PROPERTY
Conf_Id
SciTegic.value.IntegerValue
37

@<SCITEGIC>MOL_PROPERTY
Delta U+W
SciTegic.value.DoubleValue
1.063

@<SCITEGIC>MOL_PROPERTY
U+W
SciTegic.value.DoubleValue
-55.841

@<SCITEGIC>MOL_PROPERTY
Grad RMS
SciTegic.value.DoubleValue
0.000000

@<SCITEGIC>MOL_PROPERTY
U
SciTegic.value.DoubleValue
9.719

@<SCITEGIC>MOL_PROPERTY
W
SciTegic.value.DoubleValue
-65.560

@<SCITEGIC>MOL_PROPERTY
W(PB)
SciTegic.value.DoubleValue
-67.414

@<SCITEGIC>MOL_PROPERTY
W(SA)
SciTegic.value.DoubleValue
1.854

@<SCITEGIC>MOL_PROPERTY
Valence
SciTegic.value.DoubleValue
7.002

@<SCITEGIC>MOL_PROPERTY
Coulomb
SciTegic.value.DoubleValue
2.402

@<SCITEGIC>MOL_PROPERTY
VdW
SciTegic.value.DoubleValue
0.314

@<SCITEGIC>MOL_PROPERTY
VdW6
SciTegic.value.DoubleValue
-5.861

@<SCITEGIC>MOL_PROPERTY
VdW12
SciTegic.value.DoubleValue
6.175

@<SCITEGIC>MOL_PROPERTY
Bond
SciTegic.value.DoubleValue
0.134

@<SCITEGIC>MOL_PROPERTY
Angle
SciTegic.value.DoubleValue
2.733

@<SCITEGIC>MOL_PROPERTY
Pdih
SciTegic.value.DoubleValue
4.133

@<SCITEGIC>MOL_PROPERTY
Idih
SciTegic.value.DoubleValue
0.002

@<SCITEGIC>MOL_PROPERTY
Tether
SciTegic.value.DoubleValue
0.000

@<TRIPOS>MOLECULE
guest-s18_confgen4.mol2 : confsearch ligand conformer 68
          16          15           1
SMALL
USER_CHARGES
 
@<TRIPOS>ATOM
       1    C1      21.548102   20.173984   20.928310 C.2        1 MOL1         0.6075
       2    O1      22.252015   21.078357   21.332538 O.co2      1 MOL1        -0.6830
       3    O2      21.961244   19.255847   20.248133 O.co2      1 MOL1        -0.6830
       4    C2      20.059977   20.214562   21.265330 C.3        1 MOL1        -0.2050
       5    H1      19.532837   19.505286   20.617024 H          1 MOL1         0.0710
       6    H2      19.692572   21.212011   20.997018 H          1 MOL1         0.0710
       7    C3      19.738287   19.934505   22.758904 C.3        1 MOL1        -0.1947
       8    H3      20.237643   20.694404   23.375793 H          1 MOL1         0.0712
       9    H4      18.660211   20.062743   22.925273 H          1 MOL1         0.0712
      10    C4      20.165824   18.531333   23.251154 C.3        1 MOL1        -0.1921
      11    H5      19.972735   18.462548   24.330558 H          1 MOL1         0.0712
      12    H6      21.249617   18.403396   23.122224 H          1 MOL1         0.0712
      13    C5      19.420907   17.382950   22.537882 C.3        1 MOL1        -0.2936
      14    H7      18.333362   17.506649   22.621614 H          1 MOL1         0.0724
      15    H8      19.687352   16.416693   22.985337 H          1 MOL1         0.0724
      16    H9      19.683615   17.338881   21.473209 H          1 MOL1         0.0724
@<TRIPOS>BOND
    1     1     2    1
    2     1     3    2
    3     1     4    1
    4     4     5    1
    5     4     6    1
    6     4     7    1
    7     7     8    1
    8     7     9    1
    9     7    10    1
   10    10    11    1
   11    10    12    1
   12    10    13    1
   13    13    14    1
   14    13    15    1
   15    13    16    1
@<TRIPOS>SUBSTRUCTURE
       1 MOL1            1 RESIDUE      1      MOL     
@<SCITEGIC>MOL_PROPERTY
VConf Rank
SciTegic.value.IntegerValue
68

@<SCITEGIC>MOL_PROPERTY
Conf_Id
SciTegic.value.IntegerValue
39

@<SCITEGIC>MOL_PROPERTY
Delta U+W
SciTegic.value.DoubleValue
1.129

@<SCITEGIC>MOL_PROPERTY
U+W
SciTegic.value.DoubleValue
-55.775

@<SCITEGIC>MOL_PROPERTY
Grad RMS
SciTegic.value.DoubleValue
0.000000

@<SCITEGIC>MOL_PROPERTY
U
SciTegic.value.DoubleValue
9.718

@<SCITEGIC>MOL_PROPERTY
W
SciTegic.value.DoubleValue
-65.493

@<SCITEGIC>MOL_PROPERTY
W(PB)
SciTegic.value.DoubleValue
-67.361

@<SCITEGIC>MOL_PROPERTY
W(SA)
SciTegic.value.DoubleValue
1.869

@<SCITEGIC>MOL_PROPERTY
Valence
SciTegic.value.DoubleValue
7.002

@<SCITEGIC>MOL_PROPERTY
Coulomb
SciTegic.value.DoubleValue
2.402

@<SCITEGIC>MOL_PROPERTY
VdW
SciTegic.value.DoubleValue
0.314

@<SCITEGIC>MOL_PROPERTY
VdW6
SciTegic.value.DoubleValue
-5.861

@<SCITEGIC>MOL_PROPERTY
VdW12
SciTegic.value.DoubleValue
6.175

@<SCITEGIC>MOL_PROPERTY
Bond
SciTegic.value.DoubleValue
0.134

@<SCITEGIC>MOL_PROPERTY
Angle
SciTegic.value.DoubleValue
2.734

@<SCITEGIC>MOL_PROPERTY
Pdih
SciTegic.value.DoubleValue
4.133

@<SCITEGIC>MOL_PROPERTY
Idih
SciTegic.value.DoubleValue
0.002

@<SCITEGIC>MOL_PROPERTY
Tether
SciTegic.value.DoubleValue
0.000

@<TRIPOS>MOLECULE
guest-s18_confgen4.mol2 : confsearch ligand conformer 69
          16          15           1
SMALL
USER_CHARGES
 
@<TRIPOS>ATOM
       1    C1      18.173688   18.368034   22.975071 C.2        1 MOL1         0.6075
       2    O1      17.747240   17.472779   22.272590 O.co2      1 MOL1        -0.6830
       3    O2      17.494149   19.301472   23.354650 O.co2      1 MOL1        -0.6830
       4    C2      19.612106   18.265902   23.479232 C.3        1 MOL1        -0.2050
       5    H1      20.053935   17.332098   23.110753 H          1 MOL1         0.0710
       6    H2      19.551268   18.174556   24.569967 H          1 MOL1         0.0710
       7    C3      20.527803   19.471023   23.124034 C.3        1 MOL1        -0.1947
       8    H3      19.994019   20.413843   23.307626 H          1 MOL1         0.0712
       9    H4      21.379560   19.465486   23.817526 H          1 MOL1         0.0712
      10    C4      21.092443   19.451991   21.683068 C.3        1 MOL1        -0.1921
      11    H5      21.623554   18.507163   21.502921 H          1 MOL1         0.0712
      12    H6      21.842929   20.249525   21.593605 H          1 MOL1         0.0712
      13    C5      20.023019   19.662588   20.591159 C.3        1 MOL1        -0.2936
      14    H7      19.341167   18.805705   20.529294 H          1 MOL1         0.0724
      15    H8      20.496269   19.779131   19.607684 H          1 MOL1         0.0724
      16    H9      19.428138   20.563524   20.790560 H          1 MOL1         0.0724
@<TRIPOS>BOND
    1     1     2    1
    2     1     3    2
    3     1     4    1
    4     4     5    1
    5     4     6    1
    6     4     7    1
    7     7     8    1
    8     7     9    1
    9     7    10    1
   10    10    11    1
   11    10    12    1
   12    10    13    1
   13    13    14    1
   14    13    15    1
   15    13    16    1
@<TRIPOS>SUBSTRUCTURE
       1 MOL1            1 RESIDUE      1      MOL     
@<SCITEGIC>MOL_PROPERTY
VConf Rank
SciTegic.value.IntegerValue
69

@<SCITEGIC>MOL_PROPERTY
Conf_Id
SciTegic.value.IntegerValue
47

@<SCITEGIC>MOL_PROPERTY
Delta U+W
SciTegic.value.DoubleValue
2.301

@<SCITEGIC>MOL_PROPERTY
U+W
SciTegic.value.DoubleValue
-54.603

@<SCITEGIC>MOL_PROPERTY
Grad RMS
SciTegic.value.DoubleValue
0.000000

@<SCITEGIC>MOL_PROPERTY
U
SciTegic.value.DoubleValue
11.258

@<SCITEGIC>MOL_PROPERTY
W
SciTegic.value.DoubleValue
-65.861

@<SCITEGIC>MOL_PROPERTY
W(PB)
SciTegic.value.DoubleValue
-67.702

@<SCITEGIC>MOL_PROPERTY
W(SA)
SciTegic.value.DoubleValue
1.841

@<SCITEGIC>MOL_PROPERTY
Valence
SciTegic.value.DoubleValue
8.169

@<SCITEGIC>MOL_PROPERTY
Coulomb
SciTegic.value.DoubleValue
2.735

@<SCITEGIC>MOL_PROPERTY
VdW
SciTegic.value.DoubleValue
0.355

@<SCITEGIC>MOL_PROPERTY
VdW6
SciTegic.value.DoubleValue
-6.245

@<SCITEGIC>MOL_PROPERTY
VdW12
SciTegic.value.DoubleValue
6.600

@<SCITEGIC>MOL_PROPERTY
Bond
SciTegic.value.DoubleValue
0.149

@<SCITEGIC>MOL_PROPERTY
Angle
SciTegic.value.DoubleValue
3.168

@<SCITEGIC>MOL_PROPERTY
Pdih
SciTegic.value.DoubleValue
4.840

@<SCITEGIC>MOL_PROPERTY
Idih
SciTegic.value.DoubleValue
0.011

@<SCITEGIC>MOL_PROPERTY
Tether
SciTegic.value.DoubleValue
0.000

@<TRIPOS>MOLECULE
guest-s18_confgen4.mol2 : confsearch ligand conformer 70
          16          15           1
SMALL
USER_CHARGES
 
@<TRIPOS>ATOM
       1    C1      19.928158   20.706023   21.064989 C.2        1 MOL1         0.6075
       2    O1      20.628078   20.446896   20.105758 O.co2      1 MOL1        -0.6830
       3    O2      20.023948   21.735323   21.703883 O.co2      1 MOL1        -0.6830
       4    C2      18.811357   19.730594   21.432358 C.3        1 MOL1        -0.2050
       5    H1      18.139368   19.690516   20.567157 H          1 MOL1         0.0710
       6    H2      18.229444   20.150409   22.261882 H          1 MOL1         0.0710
       7    C3      19.276225   18.287775   21.777551 C.3        1 MOL1        -0.1947
       8    H3      18.413679   17.617354   21.663516 H          1 MOL1         0.0712
       9    H4      20.021840   17.949173   21.044784 H          1 MOL1         0.0712
      10    C4      19.824601   18.110940   23.214066 C.3        1 MOL1        -0.1921
      11    H5      19.970007   17.037933   23.400634 H          1 MOL1         0.0712
      12    H6      19.077076   18.452234   23.943420 H          1 MOL1         0.0712
      13    C5      21.163037   18.836282   23.464569 C.3        1 MOL1        -0.2936
      14    H7      21.570170   18.562521   24.446438 H          1 MOL1         0.0724
      15    H8      21.035353   19.925575   23.452835 H          1 MOL1         0.0724
      16    H9      21.905815   18.567468   22.702107 H          1 MOL1         0.0724
@<TRIPOS>BOND
    1     1     2    1
    2     1     3    2
    3     1     4    1
    4     4     5    1
    5     4     6    1
    6     4     7    1
    7     7     8    1
    8     7     9    1
    9     7    10    1
   10    10    11    1
   11    10    12    1
   12    10    13    1
   13    13    14    1
   14    13    15    1
   15    13    16    1
@<TRIPOS>SUBSTRUCTURE
       1 MOL1            1 RESIDUE      1      MOL     
@<SCITEGIC>MOL_PROPERTY
VConf Rank
SciTegic.value.IntegerValue
70

@<SCITEGIC>MOL_PROPERTY
Conf_Id
SciTegic.value.IntegerValue
45

@<SCITEGIC>MOL_PROPERTY
Delta U+W
SciTegic.value.DoubleValue
2.303

@<SCITEGIC>MOL_PROPERTY
U+W
SciTegic.value.DoubleValue
-54.601

@<SCITEGIC>MOL_PROPERTY
Grad RMS
SciTegic.value.DoubleValue
0.000000

@<SCITEGIC>MOL_PROPERTY
U
SciTegic.value.DoubleValue
11.258

@<SCITEGIC>MOL_PROPERTY
W
SciTegic.value.DoubleValue
-65.860

@<SCITEGIC>MOL_PROPERTY
W(PB)
SciTegic.value.DoubleValue
-67.709

@<SCITEGIC>MOL_PROPERTY
W(SA)
SciTegic.value.DoubleValue
1.849

@<SCITEGIC>MOL_PROPERTY
Valence
SciTegic.value.DoubleValue
8.169

@<SCITEGIC>MOL_PROPERTY
Coulomb
SciTegic.value.DoubleValue
2.735

@<SCITEGIC>MOL_PROPERTY
VdW
SciTegic.value.DoubleValue
0.355

@<SCITEGIC>MOL_PROPERTY
VdW6
SciTegic.value.DoubleValue
-6.245

@<SCITEGIC>MOL_PROPERTY
VdW12
SciTegic.value.DoubleValue
6.600

@<SCITEGIC>MOL_PROPERTY
Bond
SciTegic.value.DoubleValue
0.149

@<SCITEGIC>MOL_PROPERTY
Angle
SciTegic.value.DoubleValue
3.168

@<SCITEGIC>MOL_PROPERTY
Pdih
SciTegic.value.DoubleValue
4.840

@<SCITEGIC>MOL_PROPERTY
Idih
SciTegic.value.DoubleValue
0.011

@<SCITEGIC>MOL_PROPERTY
Tether
SciTegic.value.DoubleValue
0.000

@<TRIPOS>MOLECULE
guest-s18_confgen4.mol2 : confsearch ligand conformer 71
          16          15           1
SMALL
USER_CHARGES
 
@<TRIPOS>ATOM
       1    C1      22.303017   17.960896   22.906173 C.2        1 MOL1         0.6075
       2    O1      22.264377   18.551257   23.968133 O.co2      1 MOL1        -0.6830
       3    O2      23.180003   17.171084   22.619110 O.co2      1 MOL1        -0.6830
       4    C2      21.211538   18.202338   21.862011 C.3        1 MOL1        -0.2050
       5    H1      20.752201   17.232193   21.638426 H          1 MOL1         0.0710
       6    H2      21.705995   18.542143   20.944292 H          1 MOL1         0.0710
       7    C3      20.113546   19.219323   22.272501 C.3        1 MOL1        -0.1947
       8    H3      19.625488   18.876360   23.195347 H          1 MOL1         0.0712
       9    H4      20.580264   20.187657   22.500481 H          1 MOL1         0.0712
      10    C4      19.056507   19.401048   21.163041 C.3        1 MOL1        -0.1921
      11    H5      18.587725   18.433638   20.935311 H          1 MOL1         0.0712
      12    H6      19.543062   19.745720   20.240021 H          1 MOL1         0.0712
      13    C5      17.968885   20.412090   21.576580 C.3        1 MOL1        -0.2936
      14    H7      17.444083   20.076481   22.480692 H          1 MOL1         0.0724
      15    H8      17.225775   20.529505   20.777116 H          1 MOL1         0.0724
      16    H9      18.406464   21.398246   21.780272 H          1 MOL1         0.0724
@<TRIPOS>BOND
    1     1     2    1
    2     1     3    2
    3     1     4    1
    4     4     5    1
    5     4     6    1
    6     4     7    1
    7     7     8    1
    8     7     9    1
    9     7    10    1
   10    10    11    1
   11    10    12    1
   12    10    13    1
   13    13    14    1
   14    13    15    1
   15    13    16    1
@<TRIPOS>SUBSTRUCTURE
       1 MOL1            1 RESIDUE      1      MOL     
@<SCITEGIC>MOL_PROPERTY
VConf Rank
SciTegic.value.IntegerValue
71

@<SCITEGIC>MOL_PROPERTY
Conf_Id
SciTegic.value.IntegerValue
0

@<SCITEGIC>MOL_PROPERTY
Delta U+W
SciTegic.value.DoubleValue
0.000

@<SCITEGIC>MOL_PROPERTY
U+W
SciTegic.value.DoubleValue
-56.904

@<SCITEGIC>MOL_PROPERTY
Grad RMS
SciTegic.value.DoubleValue
0.000000

@<SCITEGIC>MOL_PROPERTY
U
SciTegic.value.DoubleValue
7.329

@<SCITEGIC>MOL_PROPERTY
W
SciTegic.value.DoubleValue
-64.233

@<SCITEGIC>MOL_PROPERTY
W(PB)
SciTegic.value.DoubleValue
-66.148

@<SCITEGIC>MOL_PROPERTY
W(SA)
SciTegic.value.DoubleValue
1.915

@<SCITEGIC>MOL_PROPERTY
Valence
SciTegic.value.DoubleValue
6.755

@<SCITEGIC>MOL_PROPERTY
Coulomb
SciTegic.value.DoubleValue
-0.421

@<SCITEGIC>MOL_PROPERTY
VdW
SciTegic.value.DoubleValue
0.995

@<SCITEGIC>MOL_PROPERTY
VdW6
SciTegic.value.DoubleValue
-4.495

@<SCITEGIC>MOL_PROPERTY
VdW12
SciTegic.value.DoubleValue
5.490

@<SCITEGIC>MOL_PROPERTY
Bond
SciTegic.value.DoubleValue
0.106

@<SCITEGIC>MOL_PROPERTY
Angle
SciTegic.value.DoubleValue
2.715

@<SCITEGIC>MOL_PROPERTY
Pdih
SciTegic.value.DoubleValue
3.934

@<SCITEGIC>MOL_PROPERTY
Idih
SciTegic.value.DoubleValue
0.000

@<SCITEGIC>MOL_PROPERTY
Tether
SciTegic.value.DoubleValue
0.000

@<TRIPOS>MOLECULE
guest-s18_confgen4.mol2 : confsearch ligand conformer 72
          16          15           1
SMALL
USER_CHARGES
 
@<TRIPOS>ATOM
       1    C1      20.315612   20.671273   19.707909 C.2        1 MOL1         0.6075
       2    O1      19.586872   20.368238   18.784355 O.co2      1 MOL1        -0.6830
       3    O2      20.696732   21.805309   19.918985 O.co2      1 MOL1        -0.6830
       4    C2      20.761555   19.571300   20.664872 C.3        1 MOL1        -0.2050
       5    H1      21.764462   19.823149   21.030384 H          1 MOL1         0.0710
       6    H2      20.849327   18.638357   20.094991 H          1 MOL1         0.0710
       7    C3      19.791609   19.379531   21.856715 C.3        1 MOL1        -0.1947
       8    H3      19.704731   20.325070   22.409850 H          1 MOL1         0.0712
       9    H4      18.789530   19.140290   21.474416 H          1 MOL1         0.0712
      10    C4      20.265664   18.261705   22.808711 C.3        1 MOL1        -0.1921
      11    H5      21.267454   18.500919   23.191766 H          1 MOL1         0.0712
      12    H6      20.352054   17.315834   22.256078 H          1 MOL1         0.0712
      13    C5      19.295664   18.076457   23.992301 C.3        1 MOL1        -0.2936
      14    H7      18.292082   17.805447   23.638962 H          1 MOL1         0.0724
      15    H8      19.214225   18.999294   24.581548 H          1 MOL1         0.0724
      16    H9      19.647172   17.278419   24.659179 H          1 MOL1         0.0724
@<TRIPOS>BOND
    1     1     2    1
    2     1     3    2
    3     1     4    1
    4     4     5    1
    5     4     6    1
    6     4     7    1
    7     7     8    1
    8     7     9    1
    9     7    10    1
   10    10    11    1
   11    10    12    1
   12    10    13    1
   13    13    14    1
   14    13    15    1
   15    13    16    1
@<TRIPOS>SUBSTRUCTURE
       1 MOL1            1 RESIDUE      1      MOL     
@<SCITEGIC>MOL_PROPERTY
VConf Rank
SciTegic.value.IntegerValue
72

@<SCITEGIC>MOL_PROPERTY
Conf_Id
SciTegic.value.IntegerValue
22

@<SCITEGIC>MOL_PROPERTY
Delta U+W
SciTegic.value.DoubleValue
-1.185

@<SCITEGIC>MOL_PROPERTY
U+W
SciTegic.value.DoubleValue
-58.089

@<SCITEGIC>MOL_PROPERTY
Grad RMS
SciTegic.value.DoubleValue
0.000000

@<SCITEGIC>MOL_PROPERTY
U
SciTegic.value.DoubleValue
6.298

@<SCITEGIC>MOL_PROPERTY
W
SciTegic.value.DoubleValue
-64.387

@<SCITEGIC>MOL_PROPERTY
W(PB)
SciTegic.value.DoubleValue
-66.329

@<SCITEGIC>MOL_PROPERTY
W(SA)
SciTegic.value.DoubleValue
1.942

@<SCITEGIC>MOL_PROPERTY
Valence
SciTegic.value.DoubleValue
6.246

@<SCITEGIC>MOL_PROPERTY
Coulomb
SciTegic.value.DoubleValue
-0.408

@<SCITEGIC>MOL_PROPERTY
VdW
SciTegic.value.DoubleValue
0.460

@<SCITEGIC>MOL_PROPERTY
VdW6
SciTegic.value.DoubleValue
-4.207

@<SCITEGIC>MOL_PROPERTY
VdW12
SciTegic.value.DoubleValue
4.667

@<SCITEGIC>MOL_PROPERTY
Bond
SciTegic.value.DoubleValue
0.072

@<SCITEGIC>MOL_PROPERTY
Angle
SciTegic.value.DoubleValue
2.246

@<SCITEGIC>MOL_PROPERTY
Pdih
SciTegic.value.DoubleValue
3.928

@<SCITEGIC>MOL_PROPERTY
Idih
SciTegic.value.DoubleValue
0.001

@<SCITEGIC>MOL_PROPERTY
Tether
SciTegic.value.DoubleValue
0.000

@<TRIPOS>MOLECULE
guest-s18_confgen4.mol2 : confsearch ligand conformer 73
          16          15           1
SMALL
USER_CHARGES
 
@<TRIPOS>ATOM
       1    C1      18.102275   20.663975   21.026488 C.2        1 MOL1         0.6075
       2    O1      18.269609   21.351867   20.039169 O.co2      1 MOL1        -0.6830
       3    O2      17.235919   20.873593   21.851984 O.co2      1 MOL1        -0.6830
       4    C2      19.043476   19.485849   21.251727 C.3        1 MOL1        -0.2050
       5    H1      19.338065   19.093069   20.271162 H          1 MOL1         0.0710
       6    H2      18.476944   18.697802   21.760786 H          1 MOL1         0.0710
       7    C3      20.301465   19.870001   22.073239 C.3        1 MOL1        -0.1947
       8    H3      20.798074   20.718612   21.582660 H          1 MOL1         0.0712
       9    H4      19.996065   20.221723   23.068392 H          1 MOL1         0.0712
      10    C4      21.318843   18.714743   22.217215 C.3        1 MOL1        -0.1921
      11    H5      22.221280   19.098582   22.712781 H          1 MOL1         0.0712
      12    H6      21.633312   18.370716   21.222159 H          1 MOL1         0.0712
      13    C5      20.773678   17.521466   23.030737 C.3        1 MOL1        -0.2936
      14    H7      19.937603   17.033053   22.514778 H          1 MOL1         0.0724
      15    H8      20.426011   17.846513   24.020041 H          1 MOL1         0.0724
      16    H9      21.558096   16.768008   23.179050 H          1 MOL1         0.0724
@<TRIPOS>BOND
    1     1     2    1
    2     1     3    2
    3     1     4    1
    4     4     5    1
    5     4     6    1
    6     4     7    1
    7     7     8    1
    8     7     9    1
    9     7    10    1
   10    10    11    1
   11    10    12    1
   12    10    13    1
   13    13    14    1
   14    13    15    1
   15    13    16    1
@<TRIPOS>SUBSTRUCTURE
       1 MOL1            1 RESIDUE      1      MOL     
@<SCITEGIC>MOL_PROPERTY
VConf Rank
SciTegic.value.IntegerValue
73

@<SCITEGIC>MOL_PROPERTY
Conf_Id
SciTegic.value.IntegerValue
36

@<SCITEGIC>MOL_PROPERTY
Delta U+W
SciTegic.value.DoubleValue
-0.427

@<SCITEGIC>MOL_PROPERTY
U+W
SciTegic.value.DoubleValue
-57.331

@<SCITEGIC>MOL_PROPERTY
Grad RMS
SciTegic.value.DoubleValue
0.000000

@<SCITEGIC>MOL_PROPERTY
U
SciTegic.value.DoubleValue
7.263

@<SCITEGIC>MOL_PROPERTY
W
SciTegic.value.DoubleValue
-64.594

@<SCITEGIC>MOL_PROPERTY
W(PB)
SciTegic.value.DoubleValue
-66.513

@<SCITEGIC>MOL_PROPERTY
W(SA)
SciTegic.value.DoubleValue
1.920

@<SCITEGIC>MOL_PROPERTY
Valence
SciTegic.value.DoubleValue
6.734

@<SCITEGIC>MOL_PROPERTY
Coulomb
SciTegic.value.DoubleValue
-0.068

@<SCITEGIC>MOL_PROPERTY
VdW
SciTegic.value.DoubleValue
0.598

@<SCITEGIC>MOL_PROPERTY
VdW6
SciTegic.value.DoubleValue
-4.819

@<SCITEGIC>MOL_PROPERTY
VdW12
SciTegic.value.DoubleValue
5.417

@<SCITEGIC>MOL_PROPERTY
Bond
SciTegic.value.DoubleValue
0.107

@<SCITEGIC>MOL_PROPERTY
Angle
SciTegic.value.DoubleValue
2.469

@<SCITEGIC>MOL_PROPERTY
Pdih
SciTegic.value.DoubleValue
4.157

@<SCITEGIC>MOL_PROPERTY
Idih
SciTegic.value.DoubleValue
0.001

@<SCITEGIC>MOL_PROPERTY
Tether
SciTegic.value.DoubleValue
0.000

@<TRIPOS>MOLECULE
guest-s18_confgen4.mol2 : confsearch ligand conformer 74
          16          15           1
SMALL
USER_CHARGES
 
@<TRIPOS>ATOM
       1    C1      21.401981   18.196030   23.922912 C.2        1 MOL1         0.6075
       2    O1      22.444728   18.809192   24.035469 O.co2      1 MOL1        -0.6830
       3    O2      21.221901   17.086964   24.385016 O.co2      1 MOL1        -0.6830
       4    C2      20.264258   18.844769   23.142338 C.3        1 MOL1        -0.2050
       5    H1      20.325645   19.927636   23.299656 H          1 MOL1         0.0710
       6    H2      19.316329   18.506059   23.577394 H          1 MOL1         0.0710
       7    C3      20.306856   18.510764   21.628528 C.3        1 MOL1        -0.1947
       8    H3      21.241606   18.892459   21.195099 H          1 MOL1         0.0712
       9    H4      20.331793   17.418810   21.508343 H          1 MOL1         0.0712
      10    C4      19.099564   19.069687   20.840836 C.3        1 MOL1        -0.1921
      11    H5      18.165150   18.678778   21.266793 H          1 MOL1         0.0712
      12    H6      19.149343   18.698425   19.807882 H          1 MOL1         0.0712
      13    C5      19.052161   20.612391   20.813481 C.3        1 MOL1        -0.2936
      14    H7      18.888331   21.026296   21.816289 H          1 MOL1         0.0724
      15    H8      18.231263   20.959610   20.172720 H          1 MOL1         0.0724
      16    H9      19.988378   21.027270   20.417724 H          1 MOL1         0.0724
@<TRIPOS>BOND
    1     1     2    1
    2     1     3    2
    3     1     4    1
    4     4     5    1
    5     4     6    1
    6     4     7    1
    7     7     8    1
    8     7     9    1
    9     7    10    1
   10    10    11    1
   11    10    12    1
   12    10    13    1
   13    13    14    1
   14    13    15    1
   15    13    16    1
@<TRIPOS>SUBSTRUCTURE
       1 MOL1            1 RESIDUE      1      MOL     
@<SCITEGIC>MOL_PROPERTY
VConf Rank
SciTegic.value.IntegerValue
74

@<SCITEGIC>MOL_PROPERTY
Conf_Id
SciTegic.value.IntegerValue
17

@<SCITEGIC>MOL_PROPERTY
Delta U+W
SciTegic.value.DoubleValue
-0.432

@<SCITEGIC>MOL_PROPERTY
U+W
SciTegic.value.DoubleValue
-57.336

@<SCITEGIC>MOL_PROPERTY
Grad RMS
SciTegic.value.DoubleValue
0.000000

@<SCITEGIC>MOL_PROPERTY
U
SciTegic.value.DoubleValue
7.263

@<SCITEGIC>MOL_PROPERTY
W
SciTegic.value.DoubleValue
-64.599

@<SCITEGIC>MOL_PROPERTY
W(PB)
SciTegic.value.DoubleValue
-66.503

@<SCITEGIC>MOL_PROPERTY
W(SA)
SciTegic.value.DoubleValue
1.904

@<SCITEGIC>MOL_PROPERTY
Valence
SciTegic.value.DoubleValue
6.734

@<SCITEGIC>MOL_PROPERTY
Coulomb
SciTegic.value.DoubleValue
-0.068

@<SCITEGIC>MOL_PROPERTY
VdW
SciTegic.value.DoubleValue
0.598

@<SCITEGIC>MOL_PROPERTY
VdW6
SciTegic.value.DoubleValue
-4.819

@<SCITEGIC>MOL_PROPERTY
VdW12
SciTegic.value.DoubleValue
5.417

@<SCITEGIC>MOL_PROPERTY
Bond
SciTegic.value.DoubleValue
0.107

@<SCITEGIC>MOL_PROPERTY
Angle
SciTegic.value.DoubleValue
2.469

@<SCITEGIC>MOL_PROPERTY
Pdih
SciTegic.value.DoubleValue
4.157

@<SCITEGIC>MOL_PROPERTY
Idih
SciTegic.value.DoubleValue
0.001

@<SCITEGIC>MOL_PROPERTY
Tether
SciTegic.value.DoubleValue
0.000

@<TRIPOS>MOLECULE
guest-s18_confgen4.mol2 : confsearch ligand conformer 75
          16          15           1
SMALL
USER_CHARGES
 
@<TRIPOS>ATOM
       1    C1      21.046610   17.304083   20.898368 C.2        1 MOL1         0.6075
       2    O1      20.207696   16.605812   20.364530 O.co2      1 MOL1        -0.6830
       3    O2      22.033862   17.722553   20.326986 O.co2      1 MOL1        -0.6830
       4    C2      20.860496   17.653180   22.372473 C.3        1 MOL1        -0.2050
       5    H1      21.827506   17.968758   22.782821 H          1 MOL1         0.0710
       6    H2      20.580099   16.731055   22.895252 H          1 MOL1         0.0710
       7    C3      19.787674   18.742174   22.633583 C.3        1 MOL1        -0.1947
       8    H3      18.832322   18.425383   22.192481 H          1 MOL1         0.0712
       9    H4      19.623041   18.827956   23.716217 H          1 MOL1         0.0712
      10    C4      20.192149   20.121540   22.069728 C.3        1 MOL1        -0.1921
      11    H5      20.339759   20.052419   20.982918 H          1 MOL1         0.0712
      12    H6      21.153585   20.431288   22.502250 H          1 MOL1         0.0712
      13    C5      19.124940   21.192022   22.372181 C.3        1 MOL1        -0.2936
      14    H7      18.159833   20.921587   21.923980 H          1 MOL1         0.0724
      15    H8      19.427252   22.165328   21.964260 H          1 MOL1         0.0724
      16    H9      18.980275   21.308141   23.454310 H          1 MOL1         0.0724
@<TRIPOS>BOND
    1     1     2    1
    2     1     3    2
    3     1     4    1
    4     4     5    1
    5     4     6    1
    6     4     7    1
    7     7     8    1
    8     7     9    1
    9     7    10    1
   10    10    11    1
   11    10    12    1
   12    10    13    1
   13    13    14    1
   14    13    15    1
   15    13    16    1
@<TRIPOS>SUBSTRUCTURE
       1 MOL1            1 RESIDUE      1      MOL     
@<SCITEGIC>MOL_PROPERTY
VConf Rank
SciTegic.value.IntegerValue
75

@<SCITEGIC>MOL_PROPERTY
Conf_Id
SciTegic.value.IntegerValue
19

@<SCITEGIC>MOL_PROPERTY
Delta U+W
SciTegic.value.DoubleValue
0.048

@<SCITEGIC>MOL_PROPERTY
U+W
SciTegic.value.DoubleValue
-56.856

@<SCITEGIC>MOL_PROPERTY
Grad RMS
SciTegic.value.DoubleValue
0.000000

@<SCITEGIC>MOL_PROPERTY
U
SciTegic.value.DoubleValue
8.276

@<SCITEGIC>MOL_PROPERTY
W
SciTegic.value.DoubleValue
-65.132

@<SCITEGIC>MOL_PROPERTY
W(PB)
SciTegic.value.DoubleValue
-67.031

@<SCITEGIC>MOL_PROPERTY
W(SA)
SciTegic.value.DoubleValue
1.899

@<SCITEGIC>MOL_PROPERTY
Valence
SciTegic.value.DoubleValue
6.513

@<SCITEGIC>MOL_PROPERTY
Coulomb
SciTegic.value.DoubleValue
1.428

@<SCITEGIC>MOL_PROPERTY
VdW
SciTegic.value.DoubleValue
0.335

@<SCITEGIC>MOL_PROPERTY
VdW6
SciTegic.value.DoubleValue
-5.021

@<SCITEGIC>MOL_PROPERTY
VdW12
SciTegic.value.DoubleValue
5.356

@<SCITEGIC>MOL_PROPERTY
Bond
SciTegic.value.DoubleValue
0.092

@<SCITEGIC>MOL_PROPERTY
Angle
SciTegic.value.DoubleValue
2.417

@<SCITEGIC>MOL_PROPERTY
Pdih
SciTegic.value.DoubleValue
4.003

@<SCITEGIC>MOL_PROPERTY
Idih
SciTegic.value.DoubleValue
0.001

@<SCITEGIC>MOL_PROPERTY
Tether
SciTegic.value.DoubleValue
0.000

@<TRIPOS>MOLECULE
guest-s18_confgen4.mol2 : confsearch ligand conformer 76
          16          15           1
SMALL
USER_CHARGES
 
@<TRIPOS>ATOM
       1    C1      18.169990   18.259856   23.476556 C.2        1 MOL1         0.6075
       2    O1      18.257823   18.604329   24.638437 O.co2      1 MOL1        -0.6830
       3    O2      18.019204   17.105605   23.128373 O.co2      1 MOL1        -0.6830
       4    C2      18.229026   19.339449   22.399295 C.3        1 MOL1        -0.2050
       5    H1      17.577550   20.160456   22.721416 H          1 MOL1         0.0710
       6    H2      17.797561   18.936330   21.474948 H          1 MOL1         0.0710
       7    C3      19.655016   19.886255   22.129857 C.3        1 MOL1        -0.1947
       8    H3      19.584434   20.746173   21.450064 H          1 MOL1         0.0712
       9    H4      20.085168   20.260248   23.069390 H          1 MOL1         0.0712
      10    C4      20.591113   18.824996   21.512085 C.3        1 MOL1        -0.1921
      11    H5      20.153792   18.443054   20.579214 H          1 MOL1         0.0712
      12    H6      20.685630   17.967913   22.193407 H          1 MOL1         0.0712
      13    C5      21.990529   19.403496   21.223425 C.3        1 MOL1        -0.2936
      14    H7      21.931304   20.241685   20.516782 H          1 MOL1         0.0724
      15    H8      22.643061   18.636761   20.785891 H          1 MOL1         0.0724
      16    H9      22.463596   19.765071   22.145879 H          1 MOL1         0.0724
@<TRIPOS>BOND
    1     1     2    1
    2     1     3    2
    3     1     4    1
    4     4     5    1
    5     4     6    1
    6     4     7    1
    7     7     8    1
    8     7     9    1
    9     7    10    1
   10    10    11    1
   11    10    12    1
   12    10    13    1
   13    13    14    1
   14    13    15    1
   15    13    16    1
@<TRIPOS>SUBSTRUCTURE
       1 MOL1            1 RESIDUE      1      MOL     
@<SCITEGIC>MOL_PROPERTY
VConf Rank
SciTegic.value.IntegerValue
76

@<SCITEGIC>MOL_PROPERTY
Conf_Id
SciTegic.value.IntegerValue
20

@<SCITEGIC>MOL_PROPERTY
Delta U+W
SciTegic.value.DoubleValue
-0.010

@<SCITEGIC>MOL_PROPERTY
U+W
SciTegic.value.DoubleValue
-56.914

@<SCITEGIC>MOL_PROPERTY
Grad RMS
SciTegic.value.DoubleValue
0.000000

@<SCITEGIC>MOL_PROPERTY
U
SciTegic.value.DoubleValue
8.277

@<SCITEGIC>MOL_PROPERTY
W
SciTegic.value.DoubleValue
-65.191

@<SCITEGIC>MOL_PROPERTY
W(PB)
SciTegic.value.DoubleValue
-67.081

@<SCITEGIC>MOL_PROPERTY
W(SA)
SciTegic.value.DoubleValue
1.890

@<SCITEGIC>MOL_PROPERTY
Valence
SciTegic.value.DoubleValue
6.513

@<SCITEGIC>MOL_PROPERTY
Coulomb
SciTegic.value.DoubleValue
1.429

@<SCITEGIC>MOL_PROPERTY
VdW
SciTegic.value.DoubleValue
0.335

@<SCITEGIC>MOL_PROPERTY
VdW6
SciTegic.value.DoubleValue
-5.021

@<SCITEGIC>MOL_PROPERTY
VdW12
SciTegic.value.DoubleValue
5.356

@<SCITEGIC>MOL_PROPERTY
Bond
SciTegic.value.DoubleValue
0.092

@<SCITEGIC>MOL_PROPERTY
Angle
SciTegic.value.DoubleValue
2.417

@<SCITEGIC>MOL_PROPERTY
Pdih
SciTegic.value.DoubleValue
4.002

@<SCITEGIC>MOL_PROPERTY
Idih
SciTegic.value.DoubleValue
0.001

@<SCITEGIC>MOL_PROPERTY
Tether
SciTegic.value.DoubleValue
0.000

@<TRIPOS>MOLECULE
guest-s18_confgen4.mol2 : confsearch ligand conformer 77
          16          15           1
SMALL
USER_CHARGES
 
@<TRIPOS>ATOM
       1    C1      17.949584   19.959696   22.737545 C.2        1 MOL1         0.6075
       2    O1      17.335581   20.758556   22.058128 O.co2      1 MOL1        -0.6830
       3    O2      18.104691   20.079224   23.936693 O.co2      1 MOL1        -0.6830
       4    C2      18.526178   18.724317   22.051161 C.3        1 MOL1        -0.2050
       5    H1      17.719262   18.272818   21.462164 H          1 MOL1         0.0710
       6    H2      18.798162   17.990245   22.818239 H          1 MOL1         0.0710
       7    C3      19.735625   19.019177   21.122197 C.3        1 MOL1        -0.1947
       8    H3      20.032158   18.092784   20.612064 H          1 MOL1         0.0712
       9    H4      19.414270   19.715014   20.334862 H          1 MOL1         0.0712
      10    C4      20.965150   19.617310   21.846418 C.3        1 MOL1        -0.1921
      11    H5      20.689775   20.563675   22.332380 H          1 MOL1         0.0712
      12    H6      21.729284   19.865586   21.097028 H          1 MOL1         0.0712
      13    C5      21.582335   18.660900   22.888918 C.3        1 MOL1        -0.2936
      14    H7      20.892409   18.483367   23.723767 H          1 MOL1         0.0724
      15    H8      22.503007   19.089786   23.305187 H          1 MOL1         0.0724
      16    H9      21.834130   17.693293   22.435706 H          1 MOL1         0.0724
@<TRIPOS>BOND
    1     1     2    1
    2     1     3    2
    3     1     4    1
    4     4     5    1
    5     4     6    1
    6     4     7    1
    7     7     8    1
    8     7     9    1
    9     7    10    1
   10    10    11    1
   11    10    12    1
   12    10    13    1
   13    13    14    1
   14    13    15    1
   15    13    16    1
@<TRIPOS>SUBSTRUCTURE
       1 MOL1            1 RESIDUE      1      MOL     
@<SCITEGIC>MOL_PROPERTY
VConf Rank
SciTegic.value.IntegerValue
77

@<SCITEGIC>MOL_PROPERTY
Conf_Id
SciTegic.value.IntegerValue
37

@<SCITEGIC>MOL_PROPERTY
Delta U+W
SciTegic.value.DoubleValue
1.063

@<SCITEGIC>MOL_PROPERTY
U+W
SciTegic.value.DoubleValue
-55.841

@<SCITEGIC>MOL_PROPERTY
Grad RMS
SciTegic.value.DoubleValue
0.000000

@<SCITEGIC>MOL_PROPERTY
U
SciTegic.value.DoubleValue
9.719

@<SCITEGIC>MOL_PROPERTY
W
SciTegic.value.DoubleValue
-65.560

@<SCITEGIC>MOL_PROPERTY
W(PB)
SciTegic.value.DoubleValue
-67.414

@<SCITEGIC>MOL_PROPERTY
W(SA)
SciTegic.value.DoubleValue
1.854

@<SCITEGIC>MOL_PROPERTY
Valence
SciTegic.value.DoubleValue
7.002

@<SCITEGIC>MOL_PROPERTY
Coulomb
SciTegic.value.DoubleValue
2.402

@<SCITEGIC>MOL_PROPERTY
VdW
SciTegic.value.DoubleValue
0.314

@<SCITEGIC>MOL_PROPERTY
VdW6
SciTegic.value.DoubleValue
-5.861

@<SCITEGIC>MOL_PROPERTY
VdW12
SciTegic.value.DoubleValue
6.175

@<SCITEGIC>MOL_PROPERTY
Bond
SciTegic.value.DoubleValue
0.134

@<SCITEGIC>MOL_PROPERTY
Angle
SciTegic.value.DoubleValue
2.733

@<SCITEGIC>MOL_PROPERTY
Pdih
SciTegic.value.DoubleValue
4.133

@<SCITEGIC>MOL_PROPERTY
Idih
SciTegic.value.DoubleValue
0.002

@<SCITEGIC>MOL_PROPERTY
Tether
SciTegic.value.DoubleValue
0.000

@<TRIPOS>MOLECULE
guest-s18_confgen4.mol2 : confsearch ligand conformer 78
          16          15           1
SMALL
USER_CHARGES
 
@<TRIPOS>ATOM
       1    C1      19.319801   18.174456   23.912429 C.2        1 MOL1         0.6075
       2    O1      18.733204   17.111010   23.870335 O.co2      1 MOL1        -0.6830
       3    O2      20.176892   18.435071   24.733267 O.co2      1 MOL1        -0.6830
       4    C2      18.932898   19.250301   22.901187 C.3        1 MOL1        -0.2050
       5    H1      19.339690   20.211170   23.236597 H          1 MOL1         0.0710
       6    H2      17.841389   19.348105   22.931582 H          1 MOL1         0.0710
       7    C3      19.379770   18.944808   21.445282 C.3        1 MOL1        -0.1947
       8    H3      18.911836   18.004442   21.122632 H          1 MOL1         0.0712
       9    H4      18.992050   19.726387   20.778065 H          1 MOL1         0.0712
      10    C4      20.911505   18.830457   21.258990 C.3        1 MOL1        -0.1921
      11    H5      21.119169   18.532971   20.221924 H          1 MOL1         0.0712
      12    H6      21.307310   18.027339   21.896122 H          1 MOL1         0.0712
      13    C5      21.661083   20.145905   21.559274 C.3        1 MOL1        -0.2936
      14    H7      21.260043   20.973677   20.960086 H          1 MOL1         0.0724
      15    H8      22.727857   20.042122   21.322456 H          1 MOL1         0.0724
      16    H9      21.581802   20.415927   22.620071 H          1 MOL1         0.0724
@<TRIPOS>BOND
    1     1     2    1
    2     1     3    2
    3     1     4    1
    4     4     5    1
    5     4     6    1
    6     4     7    1
    7     7     8    1
    8     7     9    1
    9     7    10    1
   10    10    11    1
   11    10    12    1
   12    10    13    1
   13    13    14    1
   14    13    15    1
   15    13    16    1
@<TRIPOS>SUBSTRUCTURE
       1 MOL1            1 RESIDUE      1      MOL     
@<SCITEGIC>MOL_PROPERTY
VConf Rank
SciTegic.value.IntegerValue
78

@<SCITEGIC>MOL_PROPERTY
Conf_Id
SciTegic.value.IntegerValue
39

@<SCITEGIC>MOL_PROPERTY
Delta U+W
SciTegic.value.DoubleValue
1.129

@<SCITEGIC>MOL_PROPERTY
U+W
SciTegic.value.DoubleValue
-55.775

@<SCITEGIC>MOL_PROPERTY
Grad RMS
SciTegic.value.DoubleValue
0.000000

@<SCITEGIC>MOL_PROPERTY
U
SciTegic.value.DoubleValue
9.718

@<SCITEGIC>MOL_PROPERTY
W
SciTegic.value.DoubleValue
-65.493

@<SCITEGIC>MOL_PROPERTY
W(PB)
SciTegic.value.DoubleValue
-67.361

@<SCITEGIC>MOL_PROPERTY
W(SA)
SciTegic.value.DoubleValue
1.869

@<SCITEGIC>MOL_PROPERTY
Valence
SciTegic.value.DoubleValue
7.002

@<SCITEGIC>MOL_PROPERTY
Coulomb
SciTegic.value.DoubleValue
2.402

@<SCITEGIC>MOL_PROPERTY
VdW
SciTegic.value.DoubleValue
0.314

@<SCITEGIC>MOL_PROPERTY
VdW6
SciTegic.value.DoubleValue
-5.861

@<SCITEGIC>MOL_PROPERTY
VdW12
SciTegic.value.DoubleValue
6.175

@<SCITEGIC>MOL_PROPERTY
Bond
SciTegic.value.DoubleValue
0.134

@<SCITEGIC>MOL_PROPERTY
Angle
SciTegic.value.DoubleValue
2.734

@<SCITEGIC>MOL_PROPERTY
Pdih
SciTegic.value.DoubleValue
4.133

@<SCITEGIC>MOL_PROPERTY
Idih
SciTegic.value.DoubleValue
0.002

@<SCITEGIC>MOL_PROPERTY
Tether
SciTegic.value.DoubleValue
0.000

@<TRIPOS>MOLECULE
guest-s18_confgen4.mol2 : confsearch ligand conformer 79
          16          15           1
SMALL
USER_CHARGES
 
@<TRIPOS>ATOM
       1    C1      21.477307   20.254976   21.937660 C.2        1 MOL1         0.6075
       2    O1      22.476458   19.598163   21.720597 O.co2      1 MOL1        -0.6830
       3    O2      21.443959   21.181670   22.723334 O.co2      1 MOL1        -0.6830
       4    C2      20.225567   19.956845   21.114299 C.3        1 MOL1        -0.2050
       5    H1      20.449158   19.151737   20.403815 H          1 MOL1         0.0710
       6    H2      20.027249   20.854892   20.517700 H          1 MOL1         0.0710
       7    C3      18.954889   19.608418   21.939500 C.3        1 MOL1        -0.1947
       8    H3      18.851315   20.307702   22.780817 H          1 MOL1         0.0712
       9    H4      18.078466   19.774207   21.298525 H          1 MOL1         0.0712
      10    C4      18.895820   18.148923   22.451309 C.3        1 MOL1        -0.1921
      11    H5      19.001673   17.453111   21.607584 H          1 MOL1         0.0712
      12    H6      17.898181   17.969773   22.875473 H          1 MOL1         0.0712
      13    C5      19.950743   17.822489   23.528744 C.3        1 MOL1        -0.2936
      14    H7      20.964247   17.825977   23.109463 H          1 MOL1         0.0724
      15    H8      19.772090   16.825340   23.951290 H          1 MOL1         0.0724
      16    H9      19.914167   18.550596   24.349629 H          1 MOL1         0.0724
@<TRIPOS>BOND
    1     1     2    1
    2     1     3    2
    3     1     4    1
    4     4     5    1
    5     4     6    1
    6     4     7    1
    7     7     8    1
    8     7     9    1
    9     7    10    1
   10    10    11    1
   11    10    12    1
   12    10    13    1
   13    13    14    1
   14    13    15    1
   15    13    16    1
@<TRIPOS>SUBSTRUCTURE
       1 MOL1            1 RESIDUE      1      MOL     
@<SCITEGIC>MOL_PROPERTY
VConf Rank
SciTegic.value.IntegerValue
79

@<SCITEGIC>MOL_PROPERTY
Conf_Id
SciTegic.value.IntegerValue
47

@<SCITEGIC>MOL_PROPERTY
Delta U+W
SciTegic.value.DoubleValue
2.301

@<SCITEGIC>MOL_PROPERTY
U+W
SciTegic.value.DoubleValue
-54.603

@<SCITEGIC>MOL_PROPERTY
Grad RMS
SciTegic.value.DoubleValue
0.000000

@<SCITEGIC>MOL_PROPERTY
U
SciTegic.value.DoubleValue
11.258

@<SCITEGIC>MOL_PROPERTY
W
SciTegic.value.DoubleValue
-65.861

@<SCITEGIC>MOL_PROPERTY
W(PB)
SciTegic.value.DoubleValue
-67.702

@<SCITEGIC>MOL_PROPERTY
W(SA)
SciTegic.value.DoubleValue
1.841

@<SCITEGIC>MOL_PROPERTY
Valence
SciTegic.value.DoubleValue
8.169

@<SCITEGIC>MOL_PROPERTY
Coulomb
SciTegic.value.DoubleValue
2.735

@<SCITEGIC>MOL_PROPERTY
VdW
SciTegic.value.DoubleValue
0.355

@<SCITEGIC>MOL_PROPERTY
VdW6
SciTegic.value.DoubleValue
-6.245

@<SCITEGIC>MOL_PROPERTY
VdW12
SciTegic.value.DoubleValue
6.600

@<SCITEGIC>MOL_PROPERTY
Bond
SciTegic.value.DoubleValue
0.149

@<SCITEGIC>MOL_PROPERTY
Angle
SciTegic.value.DoubleValue
3.168

@<SCITEGIC>MOL_PROPERTY
Pdih
SciTegic.value.DoubleValue
4.840

@<SCITEGIC>MOL_PROPERTY
Idih
SciTegic.value.DoubleValue
0.011

@<SCITEGIC>MOL_PROPERTY
Tether
SciTegic.value.DoubleValue
0.000

@<TRIPOS>MOLECULE
guest-s18_confgen4.mol2 : confsearch ligand conformer 80
          16          15           1
SMALL
USER_CHARGES
 
@<TRIPOS>ATOM
       1    C1      21.725562   19.316059   22.986417 C.2        1 MOL1         0.6075
       2    O1      22.049888   18.274764   23.522771 O.co2      1 MOL1        -0.6830
       3    O2      21.881262   20.407818   23.496945 O.co2      1 MOL1        -0.6830
       4    C2      21.177316   19.257825   21.561741 C.3        1 MOL1        -0.2050
       5    H1      21.974154   18.831196   20.941429 H          1 MOL1         0.0710
       6    H2      21.012629   20.280321   21.200691 H          1 MOL1         0.0710
       7    C3      19.887439   18.409118   21.380349 C.3        1 MOL1        -0.1947
       8    H3      19.803088   18.143487   20.317909 H          1 MOL1         0.0712
       9    H4      19.985077   17.458706   21.923234 H          1 MOL1         0.0712
      10    C4      18.578627   19.124786   21.793131 C.3        1 MOL1        -0.1921
      11    H5      17.728852   18.504248   21.476729 H          1 MOL1         0.0712
      12    H6      18.485702   20.075174   21.249661 H          1 MOL1         0.0712
      13    C5      18.459058   19.380432   23.309915 C.3        1 MOL1        -0.2936
      14    H7      17.459171   19.759354   23.557734 H          1 MOL1         0.0724
      15    H8      19.187636   20.127457   23.647745 H          1 MOL1         0.0724
      16    H9      18.622694   18.456270   23.879544 H          1 MOL1         0.0724
@<TRIPOS>BOND
    1     1     2    1
    2     1     3    2
    3     1     4    1
    4     4     5    1
    5     4     6    1
    6     4     7    1
    7     7     8    1
    8     7     9    1
    9     7    10    1
   10    10    11    1
   11    10    12    1
   12    10    13    1
   13    13    14    1
   14    13    15    1
   15    13    16    1
@<TRIPOS>SUBSTRUCTURE
       1 MOL1            1 RESIDUE      1      MOL     
@<SCITEGIC>MOL_PROPERTY
VConf Rank
SciTegic.value.IntegerValue
80

@<SCITEGIC>MOL_PROPERTY
Conf_Id
SciTegic.value.IntegerValue
45

@<SCITEGIC>MOL_PROPERTY
Delta U+W
SciTegic.value.DoubleValue
2.303

@<SCITEGIC>MOL_PROPERTY
U+W
SciTegic.value.DoubleValue
-54.601

@<SCITEGIC>MOL_PROPERTY
Grad RMS
SciTegic.value.DoubleValue
0.000000

@<SCITEGIC>MOL_PROPERTY
U
SciTegic.value.DoubleValue
11.258

@<SCITEGIC>MOL_PROPERTY
W
SciTegic.value.DoubleValue
-65.860

@<SCITEGIC>MOL_PROPERTY
W(PB)
SciTegic.value.DoubleValue
-67.709

@<SCITEGIC>MOL_PROPERTY
W(SA)
SciTegic.value.DoubleValue
1.849

@<SCITEGIC>MOL_PROPERTY
Valence
SciTegic.value.DoubleValue
8.169

@<SCITEGIC>MOL_PROPERTY
Coulomb
SciTegic.value.DoubleValue
2.735

@<SCITEGIC>MOL_PROPERTY
VdW
SciTegic.value.DoubleValue
0.355

@<SCITEGIC>MOL_PROPERTY
VdW6
SciTegic.value.DoubleValue
-6.245

@<SCITEGIC>MOL_PROPERTY
VdW12
SciTegic.value.DoubleValue
6.600

@<SCITEGIC>MOL_PROPERTY
Bond
SciTegic.value.DoubleValue
0.149

@<SCITEGIC>MOL_PROPERTY
Angle
SciTegic.value.DoubleValue
3.168

@<SCITEGIC>MOL_PROPERTY
Pdih
SciTegic.value.DoubleValue
4.840

@<SCITEGIC>MOL_PROPERTY
Idih
SciTegic.value.DoubleValue
0.011

@<SCITEGIC>MOL_PROPERTY
Tether
SciTegic.value.DoubleValue
0.000

@<TRIPOS>MOLECULE
guest-s18_confgen4.mol2 : confsearch ligand conformer 81
          16          15           1
SMALL
USER_CHARGES
 
@<TRIPOS>ATOM
       1    C1      20.634716   16.647449   20.884855 C.2        1 MOL1         0.6075
       2    O1      21.638620   17.037121   20.320843 O.co2      1 MOL1        -0.6830
       3    O2      20.256914   15.493847   20.842670 O.co2      1 MOL1        -0.6830
       4    C2      19.786329   17.630980   21.692817 C.3        1 MOL1        -0.2050
       5    H1      19.722463   17.243807   22.716623 H          1 MOL1         0.0710
       6    H2      18.772111   17.606729   21.276958 H          1 MOL1         0.0710
       7    C3      20.307321   19.092593   21.717348 C.3        1 MOL1        -0.1947
       8    H3      21.325669   19.109864   22.129827 H          1 MOL1         0.0712
       9    H4      20.374322   19.473160   20.688685 H          1 MOL1         0.0712
      10    C4      19.393274   20.013304   22.552853 C.3        1 MOL1        -0.1921
      11    H5      19.326816   19.634795   23.582325 H          1 MOL1         0.0712
      12    H6      18.374893   19.998315   22.140329 H          1 MOL1         0.0712
      13    C5      19.915862   21.463345   22.573423 C.3        1 MOL1        -0.2936
      14    H7      20.921815   21.512078   23.010633 H          1 MOL1         0.0724
      15    H8      19.254931   22.104308   23.171318 H          1 MOL1         0.0724
      16    H9      19.962871   21.878286   21.558000 H          1 MOL1         0.0724
@<TRIPOS>BOND
    1     1     2    1
    2     1     3    2
    3     1     4    1
    4     4     5    1
    5     4     6    1
    6     4     7    1
    7     7     8    1
    8     7     9    1
    9     7    10    1
   10    10    11    1
   11    10    12    1
   12    10    13    1
   13    13    14    1
   14    13    15    1
   15    13    16    1
@<TRIPOS>SUBSTRUCTURE
       1 MOL1            1 RESIDUE      1      MOL     
@<SCITEGIC>MOL_PROPERTY
VConf Rank
SciTegic.value.IntegerValue
81

@<SCITEGIC>MOL_PROPERTY
Conf_Id
SciTegic.value.IntegerValue
0

@<SCITEGIC>MOL_PROPERTY
Delta U+W
SciTegic.value.DoubleValue
0.000

@<SCITEGIC>MOL_PROPERTY
U+W
SciTegic.value.DoubleValue
-56.904

@<SCITEGIC>MOL_PROPERTY
Grad RMS
SciTegic.value.DoubleValue
0.000000

@<SCITEGIC>MOL_PROPERTY
U
SciTegic.value.DoubleValue
7.329

@<SCITEGIC>MOL_PROPERTY
W
SciTegic.value.DoubleValue
-64.233

@<SCITEGIC>MOL_PROPERTY
W(PB)
SciTegic.value.DoubleValue
-66.148

@<SCITEGIC>MOL_PROPERTY
W(SA)
SciTegic.value.DoubleValue
1.915

@<SCITEGIC>MOL_PROPERTY
Valence
SciTegic.value.DoubleValue
6.755

@<SCITEGIC>MOL_PROPERTY
Coulomb
SciTegic.value.DoubleValue
-0.421

@<SCITEGIC>MOL_PROPERTY
VdW
SciTegic.value.DoubleValue
0.995

@<SCITEGIC>MOL_PROPERTY
VdW6
SciTegic.value.DoubleValue
-4.495

@<SCITEGIC>MOL_PROPERTY
VdW12
SciTegic.value.DoubleValue
5.490

@<SCITEGIC>MOL_PROPERTY
Bond
SciTegic.value.DoubleValue
0.106

@<SCITEGIC>MOL_PROPERTY
Angle
SciTegic.value.DoubleValue
2.715

@<SCITEGIC>MOL_PROPERTY
Pdih
SciTegic.value.DoubleValue
3.934

@<SCITEGIC>MOL_PROPERTY
Idih
SciTegic.value.DoubleValue
0.000

@<SCITEGIC>MOL_PROPERTY
Tether
SciTegic.value.DoubleValue
0.000

@<TRIPOS>MOLECULE
guest-s18_confgen4.mol2 : confsearch ligand conformer 82
          16          15           1
SMALL
USER_CHARGES
 
@<TRIPOS>ATOM
       1    C1      17.889485   18.104046   20.593932 C.2        1 MOL1         0.6075
       2    O1      17.306969   17.206094   21.168561 O.co2      1 MOL1        -0.6830
       3    O2      17.343304   18.885975   19.841524 O.co2      1 MOL1        -0.6830
       4    C2      19.384184   18.269910   20.844826 C.3        1 MOL1        -0.2050
       5    H1      19.842512   18.660969   19.928388 H          1 MOL1         0.0710
       6    H2      19.812531   17.276041   21.022574 H          1 MOL1         0.0710
       7    C3      19.694718   19.206272   22.038500 C.3        1 MOL1        -0.1947
       8    H3      19.249011   20.193114   21.851312 H          1 MOL1         0.0712
       9    H4      19.218971   18.808162   22.945542 H          1 MOL1         0.0712
      10    C4      21.212642   19.356684   22.270541 C.3        1 MOL1        -0.1921
      11    H5      21.688665   19.755423   21.363927 H          1 MOL1         0.0712
      12    H6      21.658626   18.370102   22.458404 H          1 MOL1         0.0712
      13    C5      21.514167   20.289781   23.459874 C.3        1 MOL1        -0.2936
      14    H7      21.075745   19.898308   24.387240 H          1 MOL1         0.0724
      15    H8      21.105984   21.293856   23.284689 H          1 MOL1         0.0724
      16    H9      22.597229   20.385855   23.611190 H          1 MOL1         0.0724
@<TRIPOS>BOND
    1     1     2    1
    2     1     3    2
    3     1     4    1
    4     4     5    1
    5     4     6    1
    6     4     7    1
    7     7     8    1
    8     7     9    1
    9     7    10    1
   10    10    11    1
   11    10    12    1
   12    10    13    1
   13    13    14    1
   14    13    15    1
   15    13    16    1
@<TRIPOS>SUBSTRUCTURE
       1 MOL1            1 RESIDUE      1      MOL     
@<SCITEGIC>MOL_PROPERTY
VConf Rank
SciTegic.value.IntegerValue
82

@<SCITEGIC>MOL_PROPERTY
Conf_Id
SciTegic.value.IntegerValue
22

@<SCITEGIC>MOL_PROPERTY
Delta U+W
SciTegic.value.DoubleValue
-1.185

@<SCITEGIC>MOL_PROPERTY
U+W
SciTegic.value.DoubleValue
-58.089

@<SCITEGIC>MOL_PROPERTY
Grad RMS
SciTegic.value.DoubleValue
0.000000

@<SCITEGIC>MOL_PROPERTY
U
SciTegic.value.DoubleValue
6.298

@<SCITEGIC>MOL_PROPERTY
W
SciTegic.value.DoubleValue
-64.387

@<SCITEGIC>MOL_PROPERTY
W(PB)
SciTegic.value.DoubleValue
-66.329

@<SCITEGIC>MOL_PROPERTY
W(SA)
SciTegic.value.DoubleValue
1.942

@<SCITEGIC>MOL_PROPERTY
Valence
SciTegic.value.DoubleValue
6.246

@<SCITEGIC>MOL_PROPERTY
Coulomb
SciTegic.value.DoubleValue
-0.408

@<SCITEGIC>MOL_PROPERTY
VdW
SciTegic.value.DoubleValue
0.460

@<SCITEGIC>MOL_PROPERTY
VdW6
SciTegic.value.DoubleValue
-4.207

@<SCITEGIC>MOL_PROPERTY
VdW12
SciTegic.value.DoubleValue
4.667

@<SCITEGIC>MOL_PROPERTY
Bond
SciTegic.value.DoubleValue
0.072

@<SCITEGIC>MOL_PROPERTY
Angle
SciTegic.value.DoubleValue
2.246

@<SCITEGIC>MOL_PROPERTY
Pdih
SciTegic.value.DoubleValue
3.928

@<SCITEGIC>MOL_PROPERTY
Idih
SciTegic.value.DoubleValue
0.001

@<SCITEGIC>MOL_PROPERTY
Tether
SciTegic.value.DoubleValue
0.000

@<TRIPOS>MOLECULE
guest-s18_confgen4.mol2 : confsearch ligand conformer 83
          16          15           1
SMALL
USER_CHARGES
 
@<TRIPOS>ATOM
       1    C1      22.480395   19.315432   22.572258 C.2        1 MOL1         0.6075
       2    O1      22.893166   20.019512   23.472195 O.co2      1 MOL1        -0.6830
       3    O2      23.171963   18.928128   21.651559 O.co2      1 MOL1        -0.6830
       4    C2      21.009927   18.912921   22.588987 C.3        1 MOL1        -0.2050
       5    H1      20.693484   18.822657   23.635066 H          1 MOL1         0.0710
       6    H2      20.930655   17.917094   22.138253 H          1 MOL1         0.0710
       7    C3      20.101582   19.923346   21.841361 C.3        1 MOL1        -0.1947
       8    H3      20.269189   20.925545   22.259611 H          1 MOL1         0.0712
       9    H4      20.400702   19.973422   20.785270 H          1 MOL1         0.0712
      10    C4      18.595541   19.588566   21.942213 C.3        1 MOL1        -0.1921
      11    H5      18.020737   20.405405   21.484302 H          1 MOL1         0.0712
      12    H6      18.293602   19.550042   22.998020 H          1 MOL1         0.0712
      13    C5      18.218627   18.263467   21.245806 C.3        1 MOL1        -0.2936
      14    H7      18.682732   17.402847   21.743523 H          1 MOL1         0.0724
      15    H8      18.537023   18.267379   20.195159 H          1 MOL1         0.0724
      16    H9      17.131391   18.113810   21.268785 H          1 MOL1         0.0724
@<TRIPOS>BOND
    1     1     2    1
    2     1     3    2
    3     1     4    1
    4     4     5    1
    5     4     6    1
    6     4     7    1
    7     7     8    1
    8     7     9    1
    9     7    10    1
   10    10    11    1
   11    10    12    1
   12    10    13    1
   13    13    14    1
   14    13    15    1
   15    13    16    1
@<TRIPOS>SUBSTRUCTURE
       1 MOL1            1 RESIDUE      1      MOL     
@<SCITEGIC>MOL_PROPERTY
VConf Rank
SciTegic.value.IntegerValue
83

@<SCITEGIC>MOL_PROPERTY
Conf_Id
SciTegic.value.IntegerValue
36

@<SCITEGIC>MOL_PROPERTY
Delta U+W
SciTegic.value.DoubleValue
-0.427

@<SCITEGIC>MOL_PROPERTY
U+W
SciTegic.value.DoubleValue
-57.331

@<SCITEGIC>MOL_PROPERTY
Grad RMS
SciTegic.value.DoubleValue
0.000000

@<SCITEGIC>MOL_PROPERTY
U
SciTegic.value.DoubleValue
7.263

@<SCITEGIC>MOL_PROPERTY
W
SciTegic.value.DoubleValue
-64.594

@<SCITEGIC>MOL_PROPERTY
W(PB)
SciTegic.value.DoubleValue
-66.513

@<SCITEGIC>MOL_PROPERTY
W(SA)
SciTegic.value.DoubleValue
1.920

@<SCITEGIC>MOL_PROPERTY
Valence
SciTegic.value.DoubleValue
6.734

@<SCITEGIC>MOL_PROPERTY
Coulomb
SciTegic.value.DoubleValue
-0.068

@<SCITEGIC>MOL_PROPERTY
VdW
SciTegic.value.DoubleValue
0.598

@<SCITEGIC>MOL_PROPERTY
VdW6
SciTegic.value.DoubleValue
-4.819

@<SCITEGIC>MOL_PROPERTY
VdW12
SciTegic.value.DoubleValue
5.417

@<SCITEGIC>MOL_PROPERTY
Bond
SciTegic.value.DoubleValue
0.107

@<SCITEGIC>MOL_PROPERTY
Angle
SciTegic.value.DoubleValue
2.469

@<SCITEGIC>MOL_PROPERTY
Pdih
SciTegic.value.DoubleValue
4.157

@<SCITEGIC>MOL_PROPERTY
Idih
SciTegic.value.DoubleValue
0.001

@<SCITEGIC>MOL_PROPERTY
Tether
SciTegic.value.DoubleValue
0.000

@<TRIPOS>MOLECULE
guest-s18_confgen4.mol2 : confsearch ligand conformer 84
          16          15           1
SMALL
USER_CHARGES
 
@<TRIPOS>ATOM
       1    C1      21.512176   18.507341   23.964567 C.2        1 MOL1         0.6075
       2    O1      21.037758   17.602010   24.621273 O.co2      1 MOL1        -0.6830
       3    O2      22.380544   19.251223   24.375141 O.co2      1 MOL1        -0.6830
       4    C2      20.974848   18.735299   22.556062 C.3        1 MOL1        -0.2050
       5    H1      20.693642   17.759697   22.143458 H          1 MOL1         0.0710
       6    H2      21.792631   19.126100   21.938752 H          1 MOL1         0.0710
       7    C3      19.768346   19.709091   22.523245 C.3        1 MOL1        -0.1947
       8    H3      18.940588   19.287045   23.109761 H          1 MOL1         0.0712
       9    H4      20.056401   20.645229   23.021341 H          1 MOL1         0.0712
      10    C4      19.280959   20.037023   21.093098 C.3        1 MOL1        -0.1921
      11    H5      20.105498   20.469984   20.509950 H          1 MOL1         0.0712
      12    H6      18.503413   20.811008   21.153746 H          1 MOL1         0.0712
      13    C5      18.706802   18.811924   20.349857 C.3        1 MOL1        -0.2936
      14    H7      19.480483   18.056219   20.165170 H          1 MOL1         0.0724
      15    H8      18.296099   19.111376   19.376893 H          1 MOL1         0.0724
      16    H9      17.899099   18.344568   20.928168 H          1 MOL1         0.0724
@<TRIPOS>BOND
    1     1     2    1
    2     1     3    2
    3     1     4    1
    4     4     5    1
    5     4     6    1
    6     4     7    1
    7     7     8    1
    8     7     9    1
    9     7    10    1
   10    10    11    1
   11    10    12    1
   12    10    13    1
   13    13    14    1
   14    13    15    1
   15    13    16    1
@<TRIPOS>SUBSTRUCTURE
       1 MOL1            1 RESIDUE      1      MOL     
@<SCITEGIC>MOL_PROPERTY
VConf Rank
SciTegic.value.IntegerValue
84

@<SCITEGIC>MOL_PROPERTY
Conf_Id
SciTegic.value.IntegerValue
17

@<SCITEGIC>MOL_PROPERTY
Delta U+W
SciTegic.value.DoubleValue
-0.432

@<SCITEGIC>MOL_PROPERTY
U+W
SciTegic.value.DoubleValue
-57.336

@<SCITEGIC>MOL_PROPERTY
Grad RMS
SciTegic.value.DoubleValue
0.000000

@<SCITEGIC>MOL_PROPERTY
U
SciTegic.value.DoubleValue
7.263

@<SCITEGIC>MOL_PROPERTY
W
SciTegic.value.DoubleValue
-64.599

@<SCITEGIC>MOL_PROPERTY
W(PB)
SciTegic.value.DoubleValue
-66.503

@<SCITEGIC>MOL_PROPERTY
W(SA)
SciTegic.value.DoubleValue
1.904

@<SCITEGIC>MOL_PROPERTY
Valence
SciTegic.value.DoubleValue
6.734

@<SCITEGIC>MOL_PROPERTY
Coulomb
SciTegic.value.DoubleValue
-0.068

@<SCITEGIC>MOL_PROPERTY
VdW
SciTegic.value.DoubleValue
0.598

@<SCITEGIC>MOL_PROPERTY
VdW6
SciTegic.value.DoubleValue
-4.819

@<SCITEGIC>MOL_PROPERTY
VdW12
SciTegic.value.DoubleValue
5.417

@<SCITEGIC>MOL_PROPERTY
Bond
SciTegic.value.DoubleValue
0.107

@<SCITEGIC>MOL_PROPERTY
Angle
SciTegic.value.DoubleValue
2.469

@<SCITEGIC>MOL_PROPERTY
Pdih
SciTegic.value.DoubleValue
4.157

@<SCITEGIC>MOL_PROPERTY
Idih
SciTegic.value.DoubleValue
0.001

@<SCITEGIC>MOL_PROPERTY
Tether
SciTegic.value.DoubleValue
0.000

@<TRIPOS>MOLECULE
guest-s18_confgen4.mol2 : confsearch ligand conformer 85
          16          15           1
SMALL
USER_CHARGES
 
@<TRIPOS>ATOM
       1    C1      18.994166   19.889712   20.158434 C.2        1 MOL1         0.6075
       2    O1      19.399351   20.955578   19.738795 O.co2      1 MOL1        -0.6830
       3    O2      18.824683   18.912697   19.456310 O.co2      1 MOL1        -0.6830
       4    C2      18.657865   19.781624   21.643261 C.3        1 MOL1        -0.2050
       5    H1      17.999598   18.916889   21.791592 H          1 MOL1         0.0710
       6    H2      18.077664   20.671738   21.913996 H          1 MOL1         0.0710
       7    C3      19.899360   19.673267   22.566290 C.3        1 MOL1        -0.1947
       8    H3      20.562886   20.530572   22.386332 H          1 MOL1         0.0712
       9    H4      19.572415   19.740705   23.612769 H          1 MOL1         0.0712
      10    C4      20.678998   18.356403   22.360831 C.3        1 MOL1        -0.1921
      11    H5      21.029036   18.287529   21.321383 H          1 MOL1         0.0712
      12    H6      20.011131   17.500210   22.528951 H          1 MOL1         0.0712
      13    C5      21.887302   18.259196   23.313143 C.3        1 MOL1        -0.2936
      14    H7      22.587526   19.087864   23.144486 H          1 MOL1         0.0724
      15    H8      22.430494   17.318650   23.153670 H          1 MOL1         0.0724
      16    H9      21.564626   18.290648   24.362098 H          1 MOL1         0.0724
@<TRIPOS>BOND
    1     1     2    1
    2     1     3    2
    3     1     4    1
    4     4     5    1
    5     4     6    1
    6     4     7    1
    7     7     8    1
    8     7     9    1
    9     7    10    1
   10    10    11    1
   11    10    12    1
   12    10    13    1
   13    13    14    1
   14    13    15    1
   15    13    16    1
@<TRIPOS>SUBSTRUCTURE
       1 MOL1            1 RESIDUE      1      MOL     
@<SCITEGIC>MOL_PROPERTY
VConf Rank
SciTegic.value.IntegerValue
85

@<SCITEGIC>MOL_PROPERTY
Conf_Id
SciTegic.value.IntegerValue
19

@<SCITEGIC>MOL_PROPERTY
Delta U+W
SciTegic.value.DoubleValue
0.048

@<SCITEGIC>MOL_PROPERTY
U+W
SciTegic.value.DoubleValue
-56.856

@<SCITEGIC>MOL_PROPERTY
Grad RMS
SciTegic.value.DoubleValue
0.000000

@<SCITEGIC>MOL_PROPERTY
U
SciTegic.value.DoubleValue
8.276

@<SCITEGIC>MOL_PROPERTY
W
SciTegic.value.DoubleValue
-65.132

@<SCITEGIC>MOL_PROPERTY
W(PB)
SciTegic.value.DoubleValue
-67.031

@<SCITEGIC>MOL_PROPERTY
W(SA)
SciTegic.value.DoubleValue
1.899

@<SCITEGIC>MOL_PROPERTY
Valence
SciTegic.value.DoubleValue
6.513

@<SCITEGIC>MOL_PROPERTY
Coulomb
SciTegic.value.DoubleValue
1.428

@<SCITEGIC>MOL_PROPERTY
VdW
SciTegic.value.DoubleValue
0.335

@<SCITEGIC>MOL_PROPERTY
VdW6
SciTegic.value.DoubleValue
-5.021

@<SCITEGIC>MOL_PROPERTY
VdW12
SciTegic.value.DoubleValue
5.356

@<SCITEGIC>MOL_PROPERTY
Bond
SciTegic.value.DoubleValue
0.092

@<SCITEGIC>MOL_PROPERTY
Angle
SciTegic.value.DoubleValue
2.417

@<SCITEGIC>MOL_PROPERTY
Pdih
SciTegic.value.DoubleValue
4.003

@<SCITEGIC>MOL_PROPERTY
Idih
SciTegic.value.DoubleValue
0.001

@<SCITEGIC>MOL_PROPERTY
Tether
SciTegic.value.DoubleValue
0.000

@<TRIPOS>MOLECULE
guest-s18_confgen4.mol2 : confsearch ligand conformer 86
          16          15           1
SMALL
USER_CHARGES
 
@<TRIPOS>ATOM
       1    C1      17.875139   18.674405   20.902479 C.2        1 MOL1         0.6075
       2    O1      17.548490   19.547047   20.122647 O.co2      1 MOL1        -0.6830
       3    O2      17.112544   18.169131   21.702109 O.co2      1 MOL1        -0.6830
       4    C2      19.315306   18.171028   20.857438 C.3        1 MOL1        -0.2050
       5    H1      19.575355   18.014251   19.803858 H          1 MOL1         0.0710
       6    H2      19.358864   17.189092   21.344253 H          1 MOL1         0.0710
       7    C3      20.342521   19.135323   21.505518 C.3        1 MOL1        -0.1947
       8    H3      21.356375   18.763098   21.305250 H          1 MOL1         0.0712
       9    H4      20.267648   20.121997   21.027510 H          1 MOL1         0.0712
      10    C4      20.144506   19.276591   23.030321 C.3        1 MOL1        -0.1921
      11    H5      20.207305   18.287782   23.505390 H          1 MOL1         0.0712
      12    H6      19.139692   19.668036   23.242083 H          1 MOL1         0.0712
      13    C5      21.198298   20.213128   23.653838 C.3        1 MOL1        -0.2936
      14    H7      22.213226   19.828720   23.487812 H          1 MOL1         0.0724
      15    H8      21.042921   20.303227   24.736824 H          1 MOL1         0.0724
      16    H9      21.136608   21.218821   23.217689 H          1 MOL1         0.0724
@<TRIPOS>BOND
    1     1     2    1
    2     1     3    2
    3     1     4    1
    4     4     5    1
    5     4     6    1
    6     4     7    1
    7     7     8    1
    8     7     9    1
    9     7    10    1
   10    10    11    1
   11    10    12    1
   12    10    13    1
   13    13    14    1
   14    13    15    1
   15    13    16    1
@<TRIPOS>SUBSTRUCTURE
       1 MOL1            1 RESIDUE      1      MOL     
@<SCITEGIC>MOL_PROPERTY
VConf Rank
SciTegic.value.IntegerValue
86

@<SCITEGIC>MOL_PROPERTY
Conf_Id
SciTegic.value.IntegerValue
20

@<SCITEGIC>MOL_PROPERTY
Delta U+W
SciTegic.value.DoubleValue
-0.010

@<SCITEGIC>MOL_PROPERTY
U+W
SciTegic.value.DoubleValue
-56.914

@<SCITEGIC>MOL_PROPERTY
Grad RMS
SciTegic.value.DoubleValue
0.000000

@<SCITEGIC>MOL_PROPERTY
U
SciTegic.value.DoubleValue
8.277

@<SCITEGIC>MOL_PROPERTY
W
SciTegic.value.DoubleValue
-65.191

@<SCITEGIC>MOL_PROPERTY
W(PB)
SciTegic.value.DoubleValue
-67.081

@<SCITEGIC>MOL_PROPERTY
W(SA)
SciTegic.value.DoubleValue
1.890

@<SCITEGIC>MOL_PROPERTY
Valence
SciTegic.value.DoubleValue
6.513

@<SCITEGIC>MOL_PROPERTY
Coulomb
SciTegic.value.DoubleValue
1.429

@<SCITEGIC>MOL_PROPERTY
VdW
SciTegic.value.DoubleValue
0.335

@<SCITEGIC>MOL_PROPERTY
VdW6
SciTegic.value.DoubleValue
-5.021

@<SCITEGIC>MOL_PROPERTY
VdW12
SciTegic.value.DoubleValue
5.356

@<SCITEGIC>MOL_PROPERTY
Bond
SciTegic.value.DoubleValue
0.092

@<SCITEGIC>MOL_PROPERTY
Angle
SciTegic.value.DoubleValue
2.417

@<SCITEGIC>MOL_PROPERTY
Pdih
SciTegic.value.DoubleValue
4.002

@<SCITEGIC>MOL_PROPERTY
Idih
SciTegic.value.DoubleValue
0.001

@<SCITEGIC>MOL_PROPERTY
Tether
SciTegic.value.DoubleValue
0.000

@<TRIPOS>MOLECULE
guest-s18_confgen4.mol2 : confsearch ligand conformer 87
          16          15           1
SMALL
USER_CHARGES
 
@<TRIPOS>ATOM
       1    C1      19.385498   17.066754   22.134913 C.2        1 MOL1         0.6075
       2    O1      20.101272   16.212762   22.619837 O.co2      1 MOL1        -0.6830
       3    O2      18.883800   16.973825   21.032206 O.co2      1 MOL1        -0.6830
       4    C2      19.074433   18.305075   22.971301 C.3        1 MOL1        -0.2050
       5    H1      18.739971   17.957335   23.955726 H          1 MOL1         0.0710
       6    H2      18.222949   18.828625   22.521726 H          1 MOL1         0.0710
       7    C3      20.278113   19.270343   23.150443 C.3        1 MOL1        -0.1947
       8    H3      19.988358   20.085606   23.827023 H          1 MOL1         0.0712
       9    H4      21.092712   18.729208   23.651399 H          1 MOL1         0.0712
      10    C4      20.815493   19.871586   21.829944 C.3        1 MOL1        -0.1921
      11    H5      21.141562   19.066210   21.157154 H          1 MOL1         0.0712
      12    H6      21.710107   20.469075   22.053104 H          1 MOL1         0.0712
      13    C5      19.787174   20.766188   21.105589 C.3        1 MOL1        -0.2936
      14    H7      18.927916   20.180738   20.754289 H          1 MOL1         0.0724
      15    H8      20.244017   21.243187   20.228875 H          1 MOL1         0.0724
      16    H9      19.418228   21.559233   21.768932 H          1 MOL1         0.0724
@<TRIPOS>BOND
    1     1     2    1
    2     1     3    2
    3     1     4    1
    4     4     5    1
    5     4     6    1
    6     4     7    1
    7     7     8    1
    8     7     9    1
    9     7    10    1
   10    10    11    1
   11    10    12    1
   12    10    13    1
   13    13    14    1
   14    13    15    1
   15    13    16    1
@<TRIPOS>SUBSTRUCTURE
       1 MOL1            1 RESIDUE      1      MOL     
@<SCITEGIC>MOL_PROPERTY
VConf Rank
SciTegic.value.IntegerValue
87

@<SCITEGIC>MOL_PROPERTY
Conf_Id
SciTegic.value.IntegerValue
37

@<SCITEGIC>MOL_PROPERTY
Delta U+W
SciTegic.value.DoubleValue
1.063

@<SCITEGIC>MOL_PROPERTY
U+W
SciTegic.value.DoubleValue
-55.841

@<SCITEGIC>MOL_PROPERTY
Grad RMS
SciTegic.value.DoubleValue
0.000000

@<SCITEGIC>MOL_PROPERTY
U
SciTegic.value.DoubleValue
9.719

@<SCITEGIC>MOL_PROPERTY
W
SciTegic.value.DoubleValue
-65.560

@<SCITEGIC>MOL_PROPERTY
W(PB)
SciTegic.value.DoubleValue
-67.414

@<SCITEGIC>MOL_PROPERTY
W(SA)
SciTegic.value.DoubleValue
1.854

@<SCITEGIC>MOL_PROPERTY
Valence
SciTegic.value.DoubleValue
7.002

@<SCITEGIC>MOL_PROPERTY
Coulomb
SciTegic.value.DoubleValue
2.402

@<SCITEGIC>MOL_PROPERTY
VdW
SciTegic.value.DoubleValue
0.314

@<SCITEGIC>MOL_PROPERTY
VdW6
SciTegic.value.DoubleValue
-5.861

@<SCITEGIC>MOL_PROPERTY
VdW12
SciTegic.value.DoubleValue
6.175

@<SCITEGIC>MOL_PROPERTY
Bond
SciTegic.value.DoubleValue
0.134

@<SCITEGIC>MOL_PROPERTY
Angle
SciTegic.value.DoubleValue
2.733

@<SCITEGIC>MOL_PROPERTY
Pdih
SciTegic.value.DoubleValue
4.133

@<SCITEGIC>MOL_PROPERTY
Idih
SciTegic.value.DoubleValue
0.002

@<SCITEGIC>MOL_PROPERTY
Tether
SciTegic.value.DoubleValue
0.000

@<TRIPOS>MOLECULE
guest-s18_confgen4.mol2 : confsearch ligand conformer 88
          16          15           1
SMALL
USER_CHARGES
 
@<TRIPOS>ATOM
       1    C1      21.402967   20.857079   21.942469 C.2        1 MOL1         0.6075
       2    O1      21.690837   21.598603   22.861196 O.co2      1 MOL1        -0.6830
       3    O2      22.215254   20.429866   21.146242 O.co2      1 MOL1        -0.6830
       4    C2      19.937319   20.471473   21.760993 C.3        1 MOL1        -0.2050
       5    H1      19.807657   20.041822   20.761075 H          1 MOL1         0.0710
       6    H2      19.352314   21.398483   21.778401 H          1 MOL1         0.0710
       7    C3      19.395298   19.502878   22.847600 C.3        1 MOL1        -0.1947
       8    H3      19.490726   19.985830   23.829947 H          1 MOL1         0.0712
       9    H4      18.320558   19.344796   22.685378 H          1 MOL1         0.0712
      10    C4      20.110195   18.131450   22.893410 C.3        1 MOL1        -0.1921
      11    H5      19.714305   17.555789   23.741357 H          1 MOL1         0.0712
      12    H6      21.181889   18.274183   23.090122 H          1 MOL1         0.0712
      13    C5      19.926728   17.305958   21.602152 C.3        1 MOL1        -0.2936
      14    H7      18.862809   17.178930   21.363393 H          1 MOL1         0.0724
      15    H8      20.369197   16.308209   21.718674 H          1 MOL1         0.0724
      16    H9      20.418244   17.788800   20.747890 H          1 MOL1         0.0724
@<TRIPOS>BOND
    1     1     2    1
    2     1     3    2
    3     1     4    1
    4     4     5    1
    5     4     6    1
    6     4     7    1
    7     7     8    1
    8     7     9    1
    9     7    10    1
   10    10    11    1
   11    10    12    1
   12    10    13    1
   13    13    14    1
   14    13    15    1
   15    13    16    1
@<TRIPOS>SUBSTRUCTURE
       1 MOL1            1 RESIDUE      1      MOL     
@<SCITEGIC>MOL_PROPERTY
VConf Rank
SciTegic.value.IntegerValue
88

@<SCITEGIC>MOL_PROPERTY
Conf_Id
SciTegic.value.IntegerValue
39

@<SCITEGIC>MOL_PROPERTY
Delta U+W
SciTegic.value.DoubleValue
1.129

@<SCITEGIC>MOL_PROPERTY
U+W
SciTegic.value.DoubleValue
-55.775

@<SCITEGIC>MOL_PROPERTY
Grad RMS
SciTegic.value.DoubleValue
0.000000

@<SCITEGIC>MOL_PROPERTY
U
SciTegic.value.DoubleValue
9.718

@<SCITEGIC>MOL_PROPERTY
W
SciTegic.value.DoubleValue
-65.493

@<SCITEGIC>MOL_PROPERTY
W(PB)
SciTegic.value.DoubleValue
-67.361

@<SCITEGIC>MOL_PROPERTY
W(SA)
SciTegic.value.DoubleValue
1.869

@<SCITEGIC>MOL_PROPERTY
Valence
SciTegic.value.DoubleValue
7.002

@<SCITEGIC>MOL_PROPERTY
Coulomb
SciTegic.value.DoubleValue
2.402

@<SCITEGIC>MOL_PROPERTY
VdW
SciTegic.value.DoubleValue
0.314

@<SCITEGIC>MOL_PROPERTY
VdW6
SciTegic.value.DoubleValue
-5.861

@<SCITEGIC>MOL_PROPERTY
VdW12
SciTegic.value.DoubleValue
6.175

@<SCITEGIC>MOL_PROPERTY
Bond
SciTegic.value.DoubleValue
0.134

@<SCITEGIC>MOL_PROPERTY
Angle
SciTegic.value.DoubleValue
2.734

@<SCITEGIC>MOL_PROPERTY
Pdih
SciTegic.value.DoubleValue
4.133

@<SCITEGIC>MOL_PROPERTY
Idih
SciTegic.value.DoubleValue
0.002

@<SCITEGIC>MOL_PROPERTY
Tether
SciTegic.value.DoubleValue
0.000

@<TRIPOS>MOLECULE
guest-s18_confgen4.mol2 : confsearch ligand conformer 89
          16          15           1
SMALL
USER_CHARGES
 
@<TRIPOS>ATOM
       1    C1      20.822864   19.038561   24.037378 C.2        1 MOL1         0.6075
       2    O1      21.741428   19.833439   24.072439 O.co2      1 MOL1        -0.6830
       3    O2      20.925948   17.881475   24.394708 O.co2      1 MOL1        -0.6830
       4    C2      19.447315   19.544898   23.607093 C.3        1 MOL1        -0.2050
       5    H1      19.512396   20.619314   23.396445 H          1 MOL1         0.0710
       6    H2      18.791557   19.435818   24.478776 H          1 MOL1         0.0710
       7    C3      18.811777   18.797874   22.400847 C.3        1 MOL1        -0.1947
       8    H3      18.934342   17.712983   22.525473 H          1 MOL1         0.0712
       9    H4      17.729460   18.984201   22.418846 H          1 MOL1         0.0712
      10    C4      19.343155   19.236915   21.015047 C.3        1 MOL1        -0.1921
      11    H5      19.220626   20.322205   20.895205 H          1 MOL1         0.0712
      12    H6      18.720478   18.768849   20.240140 H          1 MOL1         0.0712
      13    C5      20.814522   18.849395   20.759713 C.3        1 MOL1        -0.2936
      14    H7      21.495293   19.419884   21.403214 H          1 MOL1         0.0724
      15    H8      21.091628   19.059094   19.718557 H          1 MOL1         0.0724
      16    H9      20.978499   17.779913   20.945858 H          1 MOL1         0.0724
@<TRIPOS>BOND
    1     1     2    1
    2     1     3    2
    3     1     4    1
    4     4     5    1
    5     4     6    1
    6     4     7    1
    7     7     8    1
    8     7     9    1
    9     7    10    1
   10    10    11    1
   11    10    12    1
   12    10    13    1
   13    13    14    1
   14    13    15    1
   15    13    16    1
@<TRIPOS>SUBSTRUCTURE
       1 MOL1            1 RESIDUE      1      MOL     
@<SCITEGIC>MOL_PROPERTY
VConf Rank
SciTegic.value.IntegerValue
89

@<SCITEGIC>MOL_PROPERTY
Conf_Id
SciTegic.value.IntegerValue
47

@<SCITEGIC>MOL_PROPERTY
Delta U+W
SciTegic.value.DoubleValue
2.301

@<SCITEGIC>MOL_PROPERTY
U+W
SciTegic.value.DoubleValue
-54.603

@<SCITEGIC>MOL_PROPERTY
Grad RMS
SciTegic.value.DoubleValue
0.000000

@<SCITEGIC>MOL_PROPERTY
U
SciTegic.value.DoubleValue
11.258

@<SCITEGIC>MOL_PROPERTY
W
SciTegic.value.DoubleValue
-65.861

@<SCITEGIC>MOL_PROPERTY
W(PB)
SciTegic.value.DoubleValue
-67.702

@<SCITEGIC>MOL_PROPERTY
W(SA)
SciTegic.value.DoubleValue
1.841

@<SCITEGIC>MOL_PROPERTY
Valence
SciTegic.value.DoubleValue
8.169

@<SCITEGIC>MOL_PROPERTY
Coulomb
SciTegic.value.DoubleValue
2.735

@<SCITEGIC>MOL_PROPERTY
VdW
SciTegic.value.DoubleValue
0.355

@<SCITEGIC>MOL_PROPERTY
VdW6
SciTegic.value.DoubleValue
-6.245

@<SCITEGIC>MOL_PROPERTY
VdW12
SciTegic.value.DoubleValue
6.600

@<SCITEGIC>MOL_PROPERTY
Bond
SciTegic.value.DoubleValue
0.149

@<SCITEGIC>MOL_PROPERTY
Angle
SciTegic.value.DoubleValue
3.168

@<SCITEGIC>MOL_PROPERTY
Pdih
SciTegic.value.DoubleValue
4.840

@<SCITEGIC>MOL_PROPERTY
Idih
SciTegic.value.DoubleValue
0.011

@<SCITEGIC>MOL_PROPERTY
Tether
SciTegic.value.DoubleValue
0.000

@<TRIPOS>MOLECULE
guest-s18_confgen4.mol2 : confsearch ligand conformer 90
          16          15           1
SMALL
USER_CHARGES
 
@<TRIPOS>ATOM
       1    C1      18.502328   17.954991   21.397411 C.2        1 MOL1         0.6075
       2    O1      17.496386   18.613204   21.218541 O.co2      1 MOL1        -0.6830
       3    O2      18.494865   16.841287   21.883648 O.co2      1 MOL1        -0.6830
       4    C2      19.834214   18.517530   20.904162 C.3        1 MOL1        -0.2050
       5    H1      19.736590   18.635434   19.818659 H          1 MOL1         0.0710
       6    H2      20.620056   17.770310   21.068761 H          1 MOL1         0.0710
       7    C3      20.250143   19.881044   21.524502 C.3        1 MOL1        -0.1947
       8    H3      20.990561   20.344593   20.858651 H          1 MOL1         0.0712
       9    H4      19.388814   20.563229   21.541087 H          1 MOL1         0.0712
      10    C4      20.879137   19.785019   22.935426 C.3        1 MOL1        -0.1921
      11    H5      21.277573   20.772618   23.205965 H          1 MOL1         0.0712
      12    H6      21.738586   19.100797   22.914985 H          1 MOL1         0.0712
      13    C5      19.888144   19.340930   24.031329 C.3        1 MOL1        -0.2936
      14    H7      20.349705   19.425774   25.023565 H          1 MOL1         0.0724
      15    H8      19.586056   18.295164   23.896732 H          1 MOL1         0.0724
      16    H9      18.984997   19.965092   24.022525 H          1 MOL1         0.0724
@<TRIPOS>BOND
    1     1     2    1
    2     1     3    2
    3     1     4    1
    4     4     5    1
    5     4     6    1
    6     4     7    1
    7     7     8    1
    8     7     9    1
    9     7    10    1
   10    10    11    1
   11    10    12    1
   12    10    13    1
   13    13    14    1
   14    13    15    1
   15    13    16    1
@<TRIPOS>SUBSTRUCTURE
       1 MOL1            1 RESIDUE      1      MOL     
@<SCITEGIC>MOL_PROPERTY
VConf Rank
SciTegic.value.IntegerValue
90

@<SCITEGIC>MOL_PROPERTY
Conf_Id
SciTegic.value.IntegerValue
45

@<SCITEGIC>MOL_PROPERTY
Delta U+W
SciTegic.value.DoubleValue
2.303

@<SCITEGIC>MOL_PROPERTY
U+W
SciTegic.value.DoubleValue
-54.601

@<SCITEGIC>MOL_PROPERTY
Grad RMS
SciTegic.value.DoubleValue
0.000000

@<SCITEGIC>MOL_PROPERTY
U
SciTegic.value.DoubleValue
11.258

@<SCITEGIC>MOL_PROPERTY
W
SciTegic.value.DoubleValue
-65.860

@<SCITEGIC>MOL_PROPERTY
W(PB)
SciTegic.value.DoubleValue
-67.709

@<SCITEGIC>MOL_PROPERTY
W(SA)
SciTegic.value.DoubleValue
1.849

@<SCITEGIC>MOL_PROPERTY
Valence
SciTegic.value.DoubleValue
8.169

@<SCITEGIC>MOL_PROPERTY
Coulomb
SciTegic.value.DoubleValue
2.735

@<SCITEGIC>MOL_PROPERTY
VdW
SciTegic.value.DoubleValue
0.355

@<SCITEGIC>MOL_PROPERTY
VdW6
SciTegic.value.DoubleValue
-6.245

@<SCITEGIC>MOL_PROPERTY
VdW12
SciTegic.value.DoubleValue
6.600

@<SCITEGIC>MOL_PROPERTY
Bond
SciTegic.value.DoubleValue
0.149

@<SCITEGIC>MOL_PROPERTY
Angle
SciTegic.value.DoubleValue
3.168

@<SCITEGIC>MOL_PROPERTY
Pdih
SciTegic.value.DoubleValue
4.840

@<SCITEGIC>MOL_PROPERTY
Idih
SciTegic.value.DoubleValue
0.011

@<SCITEGIC>MOL_PROPERTY
Tether
SciTegic.value.DoubleValue
0.000

@<TRIPOS>MOLECULE
guest-s18_confgen4.mol2 : confsearch ligand conformer 91
          16          15           1
SMALL
USER_CHARGES
 
@<TRIPOS>ATOM
       1    C1      21.780424   17.557862   23.340690 C.2        1 MOL1         0.6075
       2    O1      22.760591   17.982254   22.760224 O.co2      1 MOL1        -0.6830
       3    O2      21.841379   16.719651   24.217616 O.co2      1 MOL1        -0.6830
       4    C2      20.391912   18.083557   22.972489 C.3        1 MOL1        -0.2050
       5    H1      19.945449   18.495770   23.885129 H          1 MOL1         0.0710
       6    H2      19.782536   17.220642   22.678886 H          1 MOL1         0.0710
       7    C3      20.363505   19.151763   21.847111 C.3        1 MOL1        -0.1947
       8    H3      20.980023   20.011343   22.144594 H          1 MOL1         0.0712
       9    H4      20.816926   18.734895   20.937111 H          1 MOL1         0.0712
      10    C4      18.926777   19.624601   21.541340 C.3        1 MOL1        -0.1921
      11    H5      18.472774   20.043352   22.450202 H          1 MOL1         0.0712
      12    H6      18.309568   18.766145   21.241994 H          1 MOL1         0.0712
      13    C5      18.905125   20.685276   20.423020 C.3        1 MOL1        -0.2936
      14    H7      19.489764   21.569504   20.709041 H          1 MOL1         0.0724
      15    H8      17.876823   21.010488   20.218144 H          1 MOL1         0.0724
      16    H9      19.325352   20.282879   19.491916 H          1 MOL1         0.0724
@<TRIPOS>BOND
    1     1     2    1
    2     1     3    2
    3     1     4    1
    4     4     5    1
    5     4     6    1
    6     4     7    1
    7     7     8    1
    8     7     9    1
    9     7    10    1
   10    10    11    1
   11    10    12    1
   12    10    13    1
   13    13    14    1
   14    13    15    1
   15    13    16    1
@<TRIPOS>SUBSTRUCTURE
       1 MOL1            1 RESIDUE      1      MOL     
@<SCITEGIC>MOL_PROPERTY
VConf Rank
SciTegic.value.IntegerValue
91

@<SCITEGIC>MOL_PROPERTY
Conf_Id
SciTegic.value.IntegerValue
0

@<SCITEGIC>MOL_PROPERTY
Delta U+W
SciTegic.value.DoubleValue
0.000

@<SCITEGIC>MOL_PROPERTY
U+W
SciTegic.value.DoubleValue
-56.904

@<SCITEGIC>MOL_PROPERTY
Grad RMS
SciTegic.value.DoubleValue
0.000000

@<SCITEGIC>MOL_PROPERTY
U
SciTegic.value.DoubleValue
7.329

@<SCITEGIC>MOL_PROPERTY
W
SciTegic.value.DoubleValue
-64.233

@<SCITEGIC>MOL_PROPERTY
W(PB)
SciTegic.value.DoubleValue
-66.148

@<SCITEGIC>MOL_PROPERTY
W(SA)
SciTegic.value.DoubleValue
1.915

@<SCITEGIC>MOL_PROPERTY
Valence
SciTegic.value.DoubleValue
6.755

@<SCITEGIC>MOL_PROPERTY
Coulomb
SciTegic.value.DoubleValue
-0.421

@<SCITEGIC>MOL_PROPERTY
VdW
SciTegic.value.DoubleValue
0.995

@<SCITEGIC>MOL_PROPERTY
VdW6
SciTegic.value.DoubleValue
-4.495

@<SCITEGIC>MOL_PROPERTY
VdW12
SciTegic.value.DoubleValue
5.490

@<SCITEGIC>MOL_PROPERTY
Bond
SciTegic.value.DoubleValue
0.106

@<SCITEGIC>MOL_PROPERTY
Angle
SciTegic.value.DoubleValue
2.715

@<SCITEGIC>MOL_PROPERTY
Pdih
SciTegic.value.DoubleValue
3.934

@<SCITEGIC>MOL_PROPERTY
Idih
SciTegic.value.DoubleValue
0.000

@<SCITEGIC>MOL_PROPERTY
Tether
SciTegic.value.DoubleValue
0.000

@<TRIPOS>MOLECULE
guest-s18_confgen4.mol2 : confsearch ligand conformer 92
          16          15           1
SMALL
USER_CHARGES
 
@<TRIPOS>ATOM
       1    C1      17.737131   18.133815   23.037039 C.2        1 MOL1         0.6075
       2    O1      17.686081   18.188678   24.249568 O.co2      1 MOL1        -0.6830
       3    O2      16.759607   18.206157   22.319364 O.co2      1 MOL1        -0.6830
       4    C2      19.104492   17.984213   22.379372 C.3        1 MOL1        -0.2050
       5    H1      18.977449   17.406071   21.456083 H          1 MOL1         0.0710
       6    H2      19.741303   17.391779   23.047462 H          1 MOL1         0.0710
       7    C3      19.776194   19.344600   22.069173 C.3        1 MOL1        -0.1947
       8    H3      19.121276   19.930849   21.409670 H          1 MOL1         0.0712
       9    H4      19.885105   19.916594   23.001114 H          1 MOL1         0.0712
      10    C4      21.157086   19.164908   21.404787 C.3        1 MOL1        -0.1921
      11    H5      21.048502   18.593532   20.472437 H          1 MOL1         0.0712
      12    H6      21.812521   18.579236   22.064280 H          1 MOL1         0.0712
      13    C5      21.819592   20.522732   21.099007 C.3        1 MOL1        -0.2936
      14    H7      21.969021   21.102931   22.019067 H          1 MOL1         0.0724
      15    H8      21.199346   21.117343   20.415484 H          1 MOL1         0.0724
      16    H9      22.800039   20.377156   20.627115 H          1 MOL1         0.0724
@<TRIPOS>BOND
    1     1     2    1
    2     1     3    2
    3     1     4    1
    4     4     5    1
    5     4     6    1
    6     4     7    1
    7     7     8    1
    8     7     9    1
    9     7    10    1
   10    10    11    1
   11    10    12    1
   12    10    13    1
   13    13    14    1
   14    13    15    1
   15    13    16    1
@<TRIPOS>SUBSTRUCTURE
       1 MOL1            1 RESIDUE      1      MOL     
@<SCITEGIC>MOL_PROPERTY
VConf Rank
SciTegic.value.IntegerValue
92

@<SCITEGIC>MOL_PROPERTY
Conf_Id
SciTegic.value.IntegerValue
22

@<SCITEGIC>MOL_PROPERTY
Delta U+W
SciTegic.value.DoubleValue
-1.185

@<SCITEGIC>MOL_PROPERTY
U+W
SciTegic.value.DoubleValue
-58.089

@<SCITEGIC>MOL_PROPERTY
Grad RMS
SciTegic.value.DoubleValue
0.000000

@<SCITEGIC>MOL_PROPERTY
U
SciTegic.value.DoubleValue
6.298

@<SCITEGIC>MOL_PROPERTY
W
SciTegic.value.DoubleValue
-64.387

@<SCITEGIC>MOL_PROPERTY
W(PB)
SciTegic.value.DoubleValue
-66.329

@<SCITEGIC>MOL_PROPERTY
W(SA)
SciTegic.value.DoubleValue
1.942

@<SCITEGIC>MOL_PROPERTY
Valence
SciTegic.value.DoubleValue
6.246

@<SCITEGIC>MOL_PROPERTY
Coulomb
SciTegic.value.DoubleValue
-0.408

@<SCITEGIC>MOL_PROPERTY
VdW
SciTegic.value.DoubleValue
0.460

@<SCITEGIC>MOL_PROPERTY
VdW6
SciTegic.value.DoubleValue
-4.207

@<SCITEGIC>MOL_PROPERTY
VdW12
SciTegic.value.DoubleValue
4.667

@<SCITEGIC>MOL_PROPERTY
Bond
SciTegic.value.DoubleValue
0.072

@<SCITEGIC>MOL_PROPERTY
Angle
SciTegic.value.DoubleValue
2.246

@<SCITEGIC>MOL_PROPERTY
Pdih
SciTegic.value.DoubleValue
3.928

@<SCITEGIC>MOL_PROPERTY
Idih
SciTegic.value.DoubleValue
0.001

@<SCITEGIC>MOL_PROPERTY
Tether
SciTegic.value.DoubleValue
0.000

@<TRIPOS>MOLECULE
guest-s18_confgen4.mol2 : confsearch ligand conformer 93
          16          15           1
SMALL
USER_CHARGES
 
@<TRIPOS>ATOM
       1    C1      18.872897   21.164270   23.185905 C.2        1 MOL1         0.6075
       2    O1      17.864433   21.699236   22.770205 O.co2      1 MOL1        -0.6830
       3    O2      19.657107   21.704072   23.940614 O.co2      1 MOL1        -0.6830
       4    C2      19.180922   19.745924   22.719014 C.3        1 MOL1        -0.2050
       5    H1      18.228872   19.225173   22.560945 H          1 MOL1         0.0710
       6    H2      19.701616   19.231102   23.534461 H          1 MOL1         0.0710
       7    C3      20.030589   19.711189   21.422152 C.3        1 MOL1        -0.1947
       8    H3      19.523295   20.307958   20.651471 H          1 MOL1         0.0712
       9    H4      20.998527   20.198005   21.604948 H          1 MOL1         0.0712
      10    C4      20.259271   18.283600   20.874335 C.3        1 MOL1        -0.1921
      11    H5      20.770662   18.355207   19.904458 H          1 MOL1         0.0712
      12    H6      19.291437   17.800846   20.680361 H          1 MOL1         0.0712
      13    C5      21.101640   17.397660   21.816917 C.3        1 MOL1        -0.2936
      14    H7      20.576645   17.204037   22.760671 H          1 MOL1         0.0724
      15    H8      22.063324   17.873875   22.048506 H          1 MOL1         0.0724
      16    H9      21.309481   16.427419   21.347405 H          1 MOL1         0.0724
@<TRIPOS>BOND
    1     1     2    1
    2     1     3    2
    3     1     4    1
    4     4     5    1
    5     4     6    1
    6     4     7    1
    7     7     8    1
    8     7     9    1
    9     7    10    1
   10    10    11    1
   11    10    12    1
   12    10    13    1
   13    13    14    1
   14    13    15    1
   15    13    16    1
@<TRIPOS>SUBSTRUCTURE
       1 MOL1            1 RESIDUE      1      MOL     
@<SCITEGIC>MOL_PROPERTY
VConf Rank
SciTegic.value.IntegerValue
93

@<SCITEGIC>MOL_PROPERTY
Conf_Id
SciTegic.value.IntegerValue
36

@<SCITEGIC>MOL_PROPERTY
Delta U+W
SciTegic.value.DoubleValue
-0.427

@<SCITEGIC>MOL_PROPERTY
U+W
SciTegic.value.DoubleValue
-57.331

@<SCITEGIC>MOL_PROPERTY
Grad RMS
SciTegic.value.DoubleValue
0.000000

@<SCITEGIC>MOL_PROPERTY
U
SciTegic.value.DoubleValue
7.263

@<SCITEGIC>MOL_PROPERTY
W
SciTegic.value.DoubleValue
-64.594

@<SCITEGIC>MOL_PROPERTY
W(PB)
SciTegic.value.DoubleValue
-66.513

@<SCITEGIC>MOL_PROPERTY
W(SA)
SciTegic.value.DoubleValue
1.920

@<SCITEGIC>MOL_PROPERTY
Valence
SciTegic.value.DoubleValue
6.734

@<SCITEGIC>MOL_PROPERTY
Coulomb
SciTegic.value.DoubleValue
-0.068

@<SCITEGIC>MOL_PROPERTY
VdW
SciTegic.value.DoubleValue
0.598

@<SCITEGIC>MOL_PROPERTY
VdW6
SciTegic.value.DoubleValue
-4.819

@<SCITEGIC>MOL_PROPERTY
VdW12
SciTegic.value.DoubleValue
5.417

@<SCITEGIC>MOL_PROPERTY
Bond
SciTegic.value.DoubleValue
0.107

@<SCITEGIC>MOL_PROPERTY
Angle
SciTegic.value.DoubleValue
2.469

@<SCITEGIC>MOL_PROPERTY
Pdih
SciTegic.value.DoubleValue
4.157

@<SCITEGIC>MOL_PROPERTY
Idih
SciTegic.value.DoubleValue
0.001

@<SCITEGIC>MOL_PROPERTY
Tether
SciTegic.value.DoubleValue
0.000

@<TRIPOS>MOLECULE
guest-s18_confgen4.mol2 : confsearch ligand conformer 94
          16          15           1
SMALL
USER_CHARGES
 
@<TRIPOS>ATOM
       1    C1      18.882014   18.440026   24.233456 C.2        1 MOL1         0.6075
       2    O1      19.474915   18.923497   25.177216 O.co2      1 MOL1        -0.6830
       3    O2      18.138687   17.483526   24.326018 O.co2      1 MOL1        -0.6830
       4    C2      19.097773   19.054056   22.854693 C.3        1 MOL1        -0.2050
       5    H1      19.264286   20.128852   22.989614 H          1 MOL1         0.0710
       6    H2      18.170219   18.938017   22.281329 H          1 MOL1         0.0710
       7    C3      20.283127   18.410874   22.089024 C.3        1 MOL1        -0.1947
       8    H3      21.213066   18.570633   22.652052 H          1 MOL1         0.0712
       9    H4      20.128212   17.323830   22.046994 H          1 MOL1         0.0712
      10    C4      20.447069   18.945301   20.647526 C.3        1 MOL1        -0.1921
      11    H5      19.521198   18.775014   20.080828 H          1 MOL1         0.0712
      12    H6      21.231546   18.364737   20.142700 H          1 MOL1         0.0712
      13    C5      20.821822   20.441771   20.592139 C.3        1 MOL1        -0.2936
      14    H7      20.013946   21.072147   20.984244 H          1 MOL1         0.0724
      15    H8      21.011776   20.751527   19.556294 H          1 MOL1         0.0724
      16    H9      21.729633   20.641330   21.176354 H          1 MOL1         0.0724
@<TRIPOS>BOND
    1     1     2    1
    2     1     3    2
    3     1     4    1
    4     4     5    1
    5     4     6    1
    6     4     7    1
    7     7     8    1
    8     7     9    1
    9     7    10    1
   10    10    11    1
   11    10    12    1
   12    10    13    1
   13    13    14    1
   14    13    15    1
   15    13    16    1
@<TRIPOS>SUBSTRUCTURE
       1 MOL1            1 RESIDUE      1      MOL     
@<SCITEGIC>MOL_PROPERTY
VConf Rank
SciTegic.value.IntegerValue
94

@<SCITEGIC>MOL_PROPERTY
Conf_Id
SciTegic.value.IntegerValue
17

@<SCITEGIC>MOL_PROPERTY
Delta U+W
SciTegic.value.DoubleValue
-0.432

@<SCITEGIC>MOL_PROPERTY
U+W
SciTegic.value.DoubleValue
-57.336

@<SCITEGIC>MOL_PROPERTY
Grad RMS
SciTegic.value.DoubleValue
0.000000

@<SCITEGIC>MOL_PROPERTY
U
SciTegic.value.DoubleValue
7.263

@<SCITEGIC>MOL_PROPERTY
W
SciTegic.value.DoubleValue
-64.599

@<SCITEGIC>MOL_PROPERTY
W(PB)
SciTegic.value.DoubleValue
-66.503

@<SCITEGIC>MOL_PROPERTY
W(SA)
SciTegic.value.DoubleValue
1.904

@<SCITEGIC>MOL_PROPERTY
Valence
SciTegic.value.DoubleValue
6.734

@<SCITEGIC>MOL_PROPERTY
Coulomb
SciTegic.value.DoubleValue
-0.068

@<SCITEGIC>MOL_PROPERTY
VdW
SciTegic.value.DoubleValue
0.598

@<SCITEGIC>MOL_PROPERTY
VdW6
SciTegic.value.DoubleValue
-4.819

@<SCITEGIC>MOL_PROPERTY
VdW12
SciTegic.value.DoubleValue
5.417

@<SCITEGIC>MOL_PROPERTY
Bond
SciTegic.value.DoubleValue
0.107

@<SCITEGIC>MOL_PROPERTY
Angle
SciTegic.value.DoubleValue
2.469

@<SCITEGIC>MOL_PROPERTY
Pdih
SciTegic.value.DoubleValue
4.157

@<SCITEGIC>MOL_PROPERTY
Idih
SciTegic.value.DoubleValue
0.001

@<SCITEGIC>MOL_PROPERTY
Tether
SciTegic.value.DoubleValue
0.000

@<TRIPOS>MOLECULE
guest-s18_confgen4.mol2 : confsearch ligand conformer 95
          16          15           1
SMALL
USER_CHARGES
 
@<TRIPOS>ATOM
       1    C1      20.015254   17.533728   23.829991 C.2        1 MOL1         0.6075
       2    O1      20.200433   16.393125   23.454390 O.co2      1 MOL1        -0.6830
       3    O2      20.577791   18.024222   24.788755 O.co2      1 MOL1        -0.6830
       4    C2      19.003382   18.386604   23.069589 C.3        1 MOL1        -0.2050
       5    H1      18.697173   19.222272   23.710665 H          1 MOL1         0.0710
       6    H2      18.111819   17.769827   22.905474 H          1 MOL1         0.0710
       7    C3      19.521586   18.918843   21.708258 C.3        1 MOL1        -0.1947
       8    H3      19.851086   18.073442   21.088299 H          1 MOL1         0.0712
       9    H4      18.690559   19.398214   21.173322 H          1 MOL1         0.0712
      10    C4      20.675951   19.931931   21.867248 C.3        1 MOL1        -0.1921
      11    H5      21.521784   19.456827   22.383548 H          1 MOL1         0.0712
      12    H6      20.348948   20.770479   22.497553 H          1 MOL1         0.0712
      13    C5      21.149041   20.470154   20.502387 C.3        1 MOL1        -0.2936
      14    H7      21.510738   19.654314   19.862832 H          1 MOL1         0.0724
      15    H8      21.969586   21.187601   20.633125 H          1 MOL1         0.0724
      16    H9      20.331969   20.981698   19.976906 H          1 MOL1         0.0724
@<TRIPOS>BOND
    1     1     2    1
    2     1     3    2
    3     1     4    1
    4     4     5    1
    5     4     6    1
    6     4     7    1
    7     7     8    1
    8     7     9    1
    9     7    10    1
   10    10    11    1
   11    10    12    1
   12    10    13    1
   13    13    14    1
   14    13    15    1
   15    13    16    1
@<TRIPOS>SUBSTRUCTURE
       1 MOL1            1 RESIDUE      1      MOL     
@<SCITEGIC>MOL_PROPERTY
VConf Rank
SciTegic.value.IntegerValue
95

@<SCITEGIC>MOL_PROPERTY
Conf_Id
SciTegic.value.IntegerValue
19

@<SCITEGIC>MOL_PROPERTY
Delta U+W
SciTegic.value.DoubleValue
0.048

@<SCITEGIC>MOL_PROPERTY
U+W
SciTegic.value.DoubleValue
-56.856

@<SCITEGIC>MOL_PROPERTY
Grad RMS
SciTegic.value.DoubleValue
0.000000

@<SCITEGIC>MOL_PROPERTY
U
SciTegic.value.DoubleValue
8.276

@<SCITEGIC>MOL_PROPERTY
W
SciTegic.value.DoubleValue
-65.132

@<SCITEGIC>MOL_PROPERTY
W(PB)
SciTegic.value.DoubleValue
-67.031

@<SCITEGIC>MOL_PROPERTY
W(SA)
SciTegic.value.DoubleValue
1.899

@<SCITEGIC>MOL_PROPERTY
Valence
SciTegic.value.DoubleValue
6.513

@<SCITEGIC>MOL_PROPERTY
Coulomb
SciTegic.value.DoubleValue
1.428

@<SCITEGIC>MOL_PROPERTY
VdW
SciTegic.value.DoubleValue
0.335

@<SCITEGIC>MOL_PROPERTY
VdW6
SciTegic.value.DoubleValue
-5.021

@<SCITEGIC>MOL_PROPERTY
VdW12
SciTegic.value.DoubleValue
5.356

@<SCITEGIC>MOL_PROPERTY
Bond
SciTegic.value.DoubleValue
0.092

@<SCITEGIC>MOL_PROPERTY
Angle
SciTegic.value.DoubleValue
2.417

@<SCITEGIC>MOL_PROPERTY
Pdih
SciTegic.value.DoubleValue
4.003

@<SCITEGIC>MOL_PROPERTY
Idih
SciTegic.value.DoubleValue
0.001

@<SCITEGIC>MOL_PROPERTY
Tether
SciTegic.value.DoubleValue
0.000

@<TRIPOS>MOLECULE
guest-s18_confgen4.mol2 : confsearch ligand conformer 96
          16          15           1
SMALL
USER_CHARGES
 
@<TRIPOS>ATOM
       1    C1      19.050236   19.015132   24.308789 C.2        1 MOL1         0.6075
       2    O1      19.858024   19.362823   25.147199 O.co2      1 MOL1        -0.6830
       3    O2      18.417697   17.979868   24.374998 O.co2      1 MOL1        -0.6830
       4    C2      18.801233   19.941304   23.121481 C.3        1 MOL1        -0.2050
       5    H1      18.696736   20.959168   23.515524 H          1 MOL1         0.0710
       6    H2      17.838781   19.677088   22.666549 H          1 MOL1         0.0710
       7    C3      19.923888   19.913699   22.051936 C.3        1 MOL1        -0.1947
       8    H3      19.731868   20.703618   21.313211 H          1 MOL1         0.0712
       9    H4      20.885598   20.152112   22.527222 H          1 MOL1         0.0712
      10    C4      20.021308   18.553230   21.328179 C.3        1 MOL1        -0.1921
      11    H5      19.055441   18.310396   20.863947 H          1 MOL1         0.0712
      12    H6      20.233752   17.757264   22.055524 H          1 MOL1         0.0712
      13    C5      21.121294   18.563811   20.248240 C.3        1 MOL1        -0.2936
      14    H7      20.917280   19.328004   19.486793 H          1 MOL1         0.0724
      15    H8      21.177877   17.590057   19.744536 H          1 MOL1         0.0724
      16    H9      22.103784   18.774103   20.690893 H          1 MOL1         0.0724
@<TRIPOS>BOND
    1     1     2    1
    2     1     3    2
    3     1     4    1
    4     4     5    1
    5     4     6    1
    6     4     7    1
    7     7     8    1
    8     7     9    1
    9     7    10    1
   10    10    11    1
   11    10    12    1
   12    10    13    1
   13    13    14    1
   14    13    15    1
   15    13    16    1
@<TRIPOS>SUBSTRUCTURE
       1 MOL1            1 RESIDUE      1      MOL     
@<SCITEGIC>MOL_PROPERTY
VConf Rank
SciTegic.value.IntegerValue
96

@<SCITEGIC>MOL_PROPERTY
Conf_Id
SciTegic.value.IntegerValue
20

@<SCITEGIC>MOL_PROPERTY
Delta U+W
SciTegic.value.DoubleValue
-0.010

@<SCITEGIC>MOL_PROPERTY
U+W
SciTegic.value.DoubleValue
-56.914

@<SCITEGIC>MOL_PROPERTY
Grad RMS
SciTegic.value.DoubleValue
0.000000

@<SCITEGIC>MOL_PROPERTY
U
SciTegic.value.DoubleValue
8.277

@<SCITEGIC>MOL_PROPERTY
W
SciTegic.value.DoubleValue
-65.191

@<SCITEGIC>MOL_PROPERTY
W(PB)
SciTegic.value.DoubleValue
-67.081

@<SCITEGIC>MOL_PROPERTY
W(SA)
SciTegic.value.DoubleValue
1.890

@<SCITEGIC>MOL_PROPERTY
Valence
SciTegic.value.DoubleValue
6.513

@<SCITEGIC>MOL_PROPERTY
Coulomb
SciTegic.value.DoubleValue
1.429

@<SCITEGIC>MOL_PROPERTY
VdW
SciTegic.value.DoubleValue
0.335

@<SCITEGIC>MOL_PROPERTY
VdW6
SciTegic.value.DoubleValue
-5.021

@<SCITEGIC>MOL_PROPERTY
VdW12
SciTegic.value.DoubleValue
5.356

@<SCITEGIC>MOL_PROPERTY
Bond
SciTegic.value.DoubleValue
0.092

@<SCITEGIC>MOL_PROPERTY
Angle
SciTegic.value.DoubleValue
2.417

@<SCITEGIC>MOL_PROPERTY
Pdih
SciTegic.value.DoubleValue
4.002

@<SCITEGIC>MOL_PROPERTY
Idih
SciTegic.value.DoubleValue
0.001

@<SCITEGIC>MOL_PROPERTY
Tether
SciTegic.value.DoubleValue
0.000

@<TRIPOS>MOLECULE
guest-s18_confgen4.mol2 : confsearch ligand conformer 97
          16          15           1
SMALL
USER_CHARGES
 
@<TRIPOS>ATOM
       1    C1      19.635118   21.052263   23.168377 C.2        1 MOL1         0.6075
       2    O1      20.107864   21.288690   24.262635 O.co2      1 MOL1        -0.6830
       3    O2      18.494085   21.330369   22.856928 O.co2      1 MOL1        -0.6830
       4    C2      20.535064   20.402423   22.120737 C.3        1 MOL1        -0.2050
       5    H1      21.463277   20.984543   22.082812 H          1 MOL1         0.0710
       6    H2      20.062889   20.507449   21.137239 H          1 MOL1         0.0710
       7    C3      20.874699   18.914380   22.408927 C.3        1 MOL1        -0.1947
       8    H3      21.586059   18.554502   21.653397 H          1 MOL1         0.0712
       9    H4      21.393907   18.851828   23.375294 H          1 MOL1         0.0712
      10    C4      19.646208   17.974251   22.439888 C.3        1 MOL1        -0.1921
      11    H5      18.942067   18.303635   23.216605 H          1 MOL1         0.0712
      12    H6      19.979291   16.968565   22.731058 H          1 MOL1         0.0712
      13    C5      18.914950   17.883377   21.083627 C.3        1 MOL1        -0.2936
      14    H7      18.457978   18.843728   20.812721 H          1 MOL1         0.0724
      15    H8      18.112569   17.135775   21.129849 H          1 MOL1         0.0724
      16    H9      19.605574   17.589973   20.282365 H          1 MOL1         0.0724
@<TRIPOS>BOND
    1     1     2    1
    2     1     3    2
    3     1     4    1
    4     4     5    1
    5     4     6    1
    6     4     7    1
    7     7     8    1
    8     7     9    1
    9     7    10    1
   10    10    11    1
   11    10    12    1
   12    10    13    1
   13    13    14    1
   14    13    15    1
   15    13    16    1
@<TRIPOS>SUBSTRUCTURE
       1 MOL1            1 RESIDUE      1      MOL     
@<SCITEGIC>MOL_PROPERTY
VConf Rank
SciTegic.value.IntegerValue
97

@<SCITEGIC>MOL_PROPERTY
Conf_Id
SciTegic.value.IntegerValue
37

@<SCITEGIC>MOL_PROPERTY
Delta U+W
SciTegic.value.DoubleValue
1.063

@<SCITEGIC>MOL_PROPERTY
U+W
SciTegic.value.DoubleValue
-55.841

@<SCITEGIC>MOL_PROPERTY
Grad RMS
SciTegic.value.DoubleValue
0.000000

@<SCITEGIC>MOL_PROPERTY
U
SciTegic.value.DoubleValue
9.719

@<SCITEGIC>MOL_PROPERTY
W
SciTegic.value.DoubleValue
-65.560

@<SCITEGIC>MOL_PROPERTY
W(PB)
SciTegic.value.DoubleValue
-67.414

@<SCITEGIC>MOL_PROPERTY
W(SA)
SciTegic.value.DoubleValue
1.854

@<SCITEGIC>MOL_PROPERTY
Valence
SciTegic.value.DoubleValue
7.002

@<SCITEGIC>MOL_PROPERTY
Coulomb
SciTegic.value.DoubleValue
2.402

@<SCITEGIC>MOL_PROPERTY
VdW
SciTegic.value.DoubleValue
0.314

@<SCITEGIC>MOL_PROPERTY
VdW6
SciTegic.value.DoubleValue
-5.861

@<SCITEGIC>MOL_PROPERTY
VdW12
SciTegic.value.DoubleValue
6.175

@<SCITEGIC>MOL_PROPERTY
Bond
SciTegic.value.DoubleValue
0.134

@<SCITEGIC>MOL_PROPERTY
Angle
SciTegic.value.DoubleValue
2.733

@<SCITEGIC>MOL_PROPERTY
Pdih
SciTegic.value.DoubleValue
4.133

@<SCITEGIC>MOL_PROPERTY
Idih
SciTegic.value.DoubleValue
0.002

@<SCITEGIC>MOL_PROPERTY
Tether
SciTegic.value.DoubleValue
0.000

@<TRIPOS>MOLECULE
guest-s18_confgen4.mol2 : confsearch ligand conformer 98
          16          15           1
SMALL
USER_CHARGES
 
@<TRIPOS>ATOM
       1    C1      22.123895   18.586656   21.565380 C.2        1 MOL1         0.6075
       2    O1      23.119577   19.176504   21.936166 O.co2      1 MOL1        -0.6830
       3    O2      22.026402   17.375571   21.557178 O.co2      1 MOL1        -0.6830
       4    C2      20.947959   19.412496   21.050685 C.3        1 MOL1        -0.2050
       5    H1      20.261172   18.749440   20.512236 H          1 MOL1         0.0710
       6    H2      21.344251   20.116433   20.309533 H          1 MOL1         0.0710
       7    C3      20.193473   20.202007   22.155268 C.3        1 MOL1        -0.1947
       8    H3      20.897515   20.894267   22.637405 H          1 MOL1         0.0712
       9    H4      19.419973   20.825866   21.687434 H          1 MOL1         0.0712
      10    C4      19.542424   19.313910   23.242195 C.3        1 MOL1        -0.1921
      11    H5      19.109023   19.963509   24.015055 H          1 MOL1         0.0712
      12    H6      20.311922   18.709460   23.742306 H          1 MOL1         0.0712
      13    C5      18.436044   18.389633   22.690765 C.3        1 MOL1        -0.2936
      14    H7      17.671377   18.966620   22.154634 H          1 MOL1         0.0724
      15    H8      17.941940   17.851739   23.510150 H          1 MOL1         0.0724
      16    H9      18.849351   17.640037   22.003909 H          1 MOL1         0.0724
@<TRIPOS>BOND
    1     1     2    1
    2     1     3    2
    3     1     4    1
    4     4     5    1
    5     4     6    1
    6     4     7    1
    7     7     8    1
    8     7     9    1
    9     7    10    1
   10    10    11    1
   11    10    12    1
   12    10    13    1
   13    13    14    1
   14    13    15    1
   15    13    16    1
@<TRIPOS>SUBSTRUCTURE
       1 MOL1            1 RESIDUE      1      MOL     
@<SCITEGIC>MOL_PROPERTY
VConf Rank
SciTegic.value.IntegerValue
98

@<SCITEGIC>MOL_PROPERTY
Conf_Id
SciTegic.value.IntegerValue
39

@<SCITEGIC>MOL_PROPERTY
Delta U+W
SciTegic.value.DoubleValue
1.129

@<SCITEGIC>MOL_PROPERTY
U+W
SciTegic.value.DoubleValue
-55.775

@<SCITEGIC>MOL_PROPERTY
Grad RMS
SciTegic.value.DoubleValue
0.000000

@<SCITEGIC>MOL_PROPERTY
U
SciTegic.value.DoubleValue
9.718

@<SCITEGIC>MOL_PROPERTY
W
SciTegic.value.DoubleValue
-65.493

@<SCITEGIC>MOL_PROPERTY
W(PB)
SciTegic.value.DoubleValue
-67.361

@<SCITEGIC>MOL_PROPERTY
W(SA)
SciTegic.value.DoubleValue
1.869

@<SCITEGIC>MOL_PROPERTY
Valence
SciTegic.value.DoubleValue
7.002

@<SCITEGIC>MOL_PROPERTY
Coulomb
SciTegic.value.DoubleValue
2.402

@<SCITEGIC>MOL_PROPERTY
VdW
SciTegic.value.DoubleValue
0.314

@<SCITEGIC>MOL_PROPERTY
VdW6
SciTegic.value.DoubleValue
-5.861

@<SCITEGIC>MOL_PROPERTY
VdW12
SciTegic.value.DoubleValue
6.175

@<SCITEGIC>MOL_PROPERTY
Bond
SciTegic.value.DoubleValue
0.134

@<SCITEGIC>MOL_PROPERTY
Angle
SciTegic.value.DoubleValue
2.734

@<SCITEGIC>MOL_PROPERTY
Pdih
SciTegic.value.DoubleValue
4.133

@<SCITEGIC>MOL_PROPERTY
Idih
SciTegic.value.DoubleValue
0.002

@<SCITEGIC>MOL_PROPERTY
Tether
SciTegic.value.DoubleValue
0.000

@<TRIPOS>MOLECULE
guest-s18_confgen4.mol2 : confsearch ligand conformer 99
          16          15           1
SMALL
USER_CHARGES
 
@<TRIPOS>ATOM
       1    C1      20.585153   17.699810   21.002600 C.2        1 MOL1         0.6075
       2    O1      21.029551   18.210916   19.993590 O.co2      1 MOL1        -0.6830
       3    O2      19.811159   16.762800   20.992343 O.co2      1 MOL1        -0.6830
       4    C2      21.096262   18.203539   22.351185 C.3        1 MOL1        -0.2050
       5    H1      21.840992   18.990190   22.179328 H          1 MOL1         0.0710
       6    H2      21.628602   17.363783   22.812891 H          1 MOL1         0.0710
       7    C3      19.999517   18.706189   23.331734 C.3        1 MOL1        -0.1947
       8    H3      19.155602   18.002459   23.342326 H          1 MOL1         0.0712
       9    H4      20.419287   18.690635   24.346625 H          1 MOL1         0.0712
      10    C4      19.491160   20.141330   23.053338 C.3        1 MOL1        -0.1921
      11    H5      20.337938   20.841373   23.041626 H          1 MOL1         0.0712
      12    H6      18.847489   20.449889   23.888666 H          1 MOL1         0.0712
      13    C5      18.688609   20.275570   21.742545 C.3        1 MOL1        -0.2936
      14    H7      19.331596   20.138242   20.864645 H          1 MOL1         0.0724
      15    H8      18.238323   21.273841   21.668606 H          1 MOL1         0.0724
      16    H9      17.880051   19.534253   21.697692 H          1 MOL1         0.0724
@<TRIPOS>BOND
    1     1     2    1
    2     1     3    2
    3     1     4    1
    4     4     5    1
    5     4     6    1
    6     4     7    1
    7     7     8    1
    8     7     9    1
    9     7    10    1
   10    10    11    1
   11    10    12    1
   12    10    13    1
   13    13    14    1
   14    13    15    1
   15    13    16    1
@<TRIPOS>SUBSTRUCTURE
       1 MOL1            1 RESIDUE      1      MOL     
@<SCITEGIC>MOL_PROPERTY
VConf Rank
SciTegic.value.IntegerValue
99

@<SCITEGIC>MOL_PROPERTY
Conf_Id
SciTegic.value.IntegerValue
47

@<SCITEGIC>MOL_PROPERTY
Delta U+W
SciTegic.value.DoubleValue
2.301

@<SCITEGIC>MOL_PROPERTY
U+W
SciTegic.value.DoubleValue
-54.603

@<SCITEGIC>MOL_PROPERTY
Grad RMS
SciTegic.value.DoubleValue
0.000000

@<SCITEGIC>MOL_PROPERTY
U
SciTegic.value.DoubleValue
11.258

@<SCITEGIC>MOL_PROPERTY
W
SciTegic.value.DoubleValue
-65.861

@<SCITEGIC>MOL_PROPERTY
W(PB)
SciTegic.value.DoubleValue
-67.702

@<SCITEGIC>MOL_PROPERTY
W(SA)
SciTegic.value.DoubleValue
1.841

@<SCITEGIC>MOL_PROPERTY
Valence
SciTegic.value.DoubleValue
8.169

@<SCITEGIC>MOL_PROPERTY
Coulomb
SciTegic.value.DoubleValue
2.735

@<SCITEGIC>MOL_PROPERTY
VdW
SciTegic.value.DoubleValue
0.355

@<SCITEGIC>MOL_PROPERTY
VdW6
SciTegic.value.DoubleValue
-6.245

@<SCITEGIC>MOL_PROPERTY
VdW12
SciTegic.value.DoubleValue
6.600

@<SCITEGIC>MOL_PROPERTY
Bond
SciTegic.value.DoubleValue
0.149

@<SCITEGIC>MOL_PROPERTY
Angle
SciTegic.value.DoubleValue
3.168

@<SCITEGIC>MOL_PROPERTY
Pdih
SciTegic.value.DoubleValue
4.840

@<SCITEGIC>MOL_PROPERTY
Idih
SciTegic.value.DoubleValue
0.011

@<SCITEGIC>MOL_PROPERTY
Tether
SciTegic.value.DoubleValue
0.000

@<TRIPOS>MOLECULE
guest-s18_confgen4.mol2 : confsearch ligand conformer 100
          16          15           1
SMALL
USER_CHARGES
 
@<TRIPOS>ATOM
       1    C1      21.277374   18.262931   21.127145 C.2        1 MOL1         0.6075
       2    O1      20.965925   17.105244   20.927346 O.co2      1 MOL1        -0.6830
       3    O2      22.391324   18.605703   21.471297 O.co2      1 MOL1        -0.6830
       4    C2      20.243079   19.351157   20.844891 C.3        1 MOL1        -0.2050
       5    H1      20.003644   19.280210   19.777471 H          1 MOL1         0.0710
       6    H2      20.707519   20.333024   20.997247 H          1 MOL1         0.0710
       7    C3      18.926810   19.245673   21.665438 C.3        1 MOL1        -0.1947
       8    H3      18.152867   19.821473   21.140157 H          1 MOL1         0.0712
       9    H4      18.574706   18.204787   21.676340 H          1 MOL1         0.0712
      10    C4      19.020244   19.790153   23.111250 C.3        1 MOL1        -0.1921
      11    H5      18.008471   19.815022   23.539026 H          1 MOL1         0.0712
      12    H6      19.374291   20.830178   23.096101 H          1 MOL1         0.0712
      13    C5      19.921999   18.948365   24.037811 C.3        1 MOL1        -0.2936
      14    H7      19.839232   19.297752   25.075042 H          1 MOL1         0.0724
      15    H8      20.976715   19.026089   23.747065 H          1 MOL1         0.0724
      16    H9      19.633955   17.889257   24.012321 H          1 MOL1         0.0724
@<TRIPOS>BOND
    1     1     2    1
    2     1     3    2
    3     1     4    1
    4     4     5    1
    5     4     6    1
    6     4     7    1
    7     7     8    1
    8     7     9    1
    9     7    10    1
   10    10    11    1
   11    10    12    1
   12    10    13    1
   13    13    14    1
   14    13    15    1
   15    13    16    1
@<TRIPOS>SUBSTRUCTURE
       1 MOL1            1 RESIDUE      1      MOL     
@<SCITEGIC>MOL_PROPERTY
VConf Rank
SciTegic.value.IntegerValue
100

@<SCITEGIC>MOL_PROPERTY
Conf_Id
SciTegic.value.IntegerValue
45

@<SCITEGIC>MOL_PROPERTY
Delta U+W
SciTegic.value.DoubleValue
2.303

@<SCITEGIC>MOL_PROPERTY
U+W
SciTegic.value.DoubleValue
-54.601

@<SCITEGIC>MOL_PROPERTY
Grad RMS
SciTegic.value.DoubleValue
0.000000

@<SCITEGIC>MOL_PROPERTY
U
SciTegic.value.DoubleValue
11.258

@<SCITEGIC>MOL_PROPERTY
W
SciTegic.value.DoubleValue
-65.860

@<SCITEGIC>MOL_PROPERTY
W(PB)
SciTegic.value.DoubleValue
-67.709

@<SCITEGIC>MOL_PROPERTY
W(SA)
SciTegic.value.DoubleValue
1.849

@<SCITEGIC>MOL_PROPERTY
Valence
SciTegic.value.DoubleValue
8.169

@<SCITEGIC>MOL_PROPERTY
Coulomb
SciTegic.value.DoubleValue
2.735

@<SCITEGIC>MOL_PROPERTY
VdW
SciTegic.value.DoubleValue
0.355

@<SCITEGIC>MOL_PROPERTY
VdW6
SciTegic.value.DoubleValue
-6.245

@<SCITEGIC>MOL_PROPERTY
VdW12
SciTegic.value.DoubleValue
6.600

@<SCITEGIC>MOL_PROPERTY
Bond
SciTegic.value.DoubleValue
0.149

@<SCITEGIC>MOL_PROPERTY
Angle
SciTegic.value.DoubleValue
3.168

@<SCITEGIC>MOL_PROPERTY
Pdih
SciTegic.value.DoubleValue
4.840

@<SCITEGIC>MOL_PROPERTY
Idih
SciTegic.value.DoubleValue
0.011

@<SCITEGIC>MOL_PROPERTY
Tether
SciTegic.value.DoubleValue
0.000

@<TRIPOS>MOLECULE
guest-s18_confgen4.mol2 : confsearch ligand conformer 101
          16          15           1
SMALL
USER_CHARGES
 
@<TRIPOS>ATOM
       1    C1      18.031926   20.902308   22.688208 C.2        1 MOL1         0.6075
       2    O1      18.252599   20.786719   23.878048 O.co2      1 MOL1        -0.6830
       3    O2      17.169110   21.631852   22.242532 O.co2      1 MOL1        -0.6830
       4    C2      18.861786   20.105371   21.680181 C.3        1 MOL1        -0.2050
       5    H1      19.327941   20.825869   20.997728 H          1 MOL1         0.0710
       6    H2      18.164444   19.504413   21.084590 H          1 MOL1         0.0710
       7    C3      19.950856   19.186929   22.295598 C.3        1 MOL1        -0.1947
       8    H3      20.643241   19.793737   22.895478 H          1 MOL1         0.0712
       9    H4      19.478544   18.470915   22.982414 H          1 MOL1         0.0712
      10    C4      20.737435   18.423025   21.209779 C.3        1 MOL1        -0.1921
      11    H5      21.211753   19.137997   20.523240 H          1 MOL1         0.0712
      12    H6      20.046366   17.814379   20.610218 H          1 MOL1         0.0712
      13    C5      21.817426   17.512712   21.827105 C.3        1 MOL1        -0.2936
      14    H7      22.541238   18.099950   22.407378 H          1 MOL1         0.0724
      15    H8      22.367006   16.977243   21.042010 H          1 MOL1         0.0724
      16    H9      21.367258   16.766563   22.494999 H          1 MOL1         0.0724
@<TRIPOS>BOND
    1     1     2    1
    2     1     3    2
    3     1     4    1
    4     4     5    1
    5     4     6    1
    6     4     7    1
    7     7     8    1
    8     7     9    1
    9     7    10    1
   10    10    11    1
   11    10    12    1
   12    10    13    1
   13    13    14    1
   14    13    15    1
   15    13    16    1
@<TRIPOS>SUBSTRUCTURE
       1 MOL1            1 RESIDUE      1      MOL     
@<SCITEGIC>MOL_PROPERTY
VConf Rank
SciTegic.value.IntegerValue
101

@<SCITEGIC>MOL_PROPERTY
Conf_Id
SciTegic.value.IntegerValue
0

@<SCITEGIC>MOL_PROPERTY
Delta U+W
SciTegic.value.DoubleValue
0.000

@<SCITEGIC>MOL_PROPERTY
U+W
SciTegic.value.DoubleValue
-56.904

@<SCITEGIC>MOL_PROPERTY
Grad RMS
SciTegic.value.DoubleValue
0.000000

@<SCITEGIC>MOL_PROPERTY
U
SciTegic.value.DoubleValue
7.329

@<SCITEGIC>MOL_PROPERTY
W
SciTegic.value.DoubleValue
-64.233

@<SCITEGIC>MOL_PROPERTY
W(PB)
SciTegic.value.DoubleValue
-66.148

@<SCITEGIC>MOL_PROPERTY
W(SA)
SciTegic.value.DoubleValue
1.915

@<SCITEGIC>MOL_PROPERTY
Valence
SciTegic.value.DoubleValue
6.755

@<SCITEGIC>MOL_PROPERTY
Coulomb
SciTegic.value.DoubleValue
-0.421

@<SCITEGIC>MOL_PROPERTY
VdW
SciTegic.value.DoubleValue
0.995

@<SCITEGIC>MOL_PROPERTY
VdW6
SciTegic.value.DoubleValue
-4.495

@<SCITEGIC>MOL_PROPERTY
VdW12
SciTegic.value.DoubleValue
5.490

@<SCITEGIC>MOL_PROPERTY
Bond
SciTegic.value.DoubleValue
0.106

@<SCITEGIC>MOL_PROPERTY
Angle
SciTegic.value.DoubleValue
2.715

@<SCITEGIC>MOL_PROPERTY
Pdih
SciTegic.value.DoubleValue
3.934

@<SCITEGIC>MOL_PROPERTY
Idih
SciTegic.value.DoubleValue
0.000

@<SCITEGIC>MOL_PROPERTY
Tether
SciTegic.value.DoubleValue
0.000

@<TRIPOS>MOLECULE
guest-s18_confgen4.mol2 : confsearch ligand conformer 102
          16          15           1
SMALL
USER_CHARGES
 
@<TRIPOS>ATOM
       1    C1      18.563906   16.985113   22.795116 C.2        1 MOL1         0.6075
       2    O1      17.619409   16.702060   22.085434 O.co2      1 MOL1        -0.6830
       3    O2      19.182710   16.168311   23.447620 O.co2      1 MOL1        -0.6830
       4    C2      19.008284   18.442300   22.856099 C.3        1 MOL1        -0.2050
       5    H1      19.409364   18.634885   23.858544 H          1 MOL1         0.0710
       6    H2      18.120553   19.074922   22.735379 H          1 MOL1         0.0710
       7    C3      20.065610   18.795478   21.781209 C.3        1 MOL1        -0.1947
       8    H3      20.942718   18.145634   21.907441 H          1 MOL1         0.0712
       9    H4      19.653876   18.585627   20.784219 H          1 MOL1         0.0712
      10    C4      20.497607   20.274313   21.864815 C.3        1 MOL1        -0.1921
      11    H5      20.910037   20.484395   22.861461 H          1 MOL1         0.0712
      12    H6      19.620850   20.924506   21.737987 H          1 MOL1         0.0712
      13    C5      21.549833   20.618589   20.792251 C.3        1 MOL1        -0.2936
      14    H7      21.152626   20.447357   19.783104 H          1 MOL1         0.0724
      15    H8      22.451326   20.003977   20.914863 H          1 MOL1         0.0724
      16    H9      21.846035   21.673128   20.865480 H          1 MOL1         0.0724
@<TRIPOS>BOND
    1     1     2    1
    2     1     3    2
    3     1     4    1
    4     4     5    1
    5     4     6    1
    6     4     7    1
    7     7     8    1
    8     7     9    1
    9     7    10    1
   10    10    11    1
   11    10    12    1
   12    10    13    1
   13    13    14    1
   14    13    15    1
   15    13    16    1
@<TRIPOS>SUBSTRUCTURE
       1 MOL1            1 RESIDUE      1      MOL     
@<SCITEGIC>MOL_PROPERTY
VConf Rank
SciTegic.value.IntegerValue
102

@<SCITEGIC>MOL_PROPERTY
Conf_Id
SciTegic.value.IntegerValue
22

@<SCITEGIC>MOL_PROPERTY
Delta U+W
SciTegic.value.DoubleValue
-1.185

@<SCITEGIC>MOL_PROPERTY
U+W
SciTegic.value.DoubleValue
-58.089

@<SCITEGIC>MOL_PROPERTY
Grad RMS
SciTegic.value.DoubleValue
0.000000

@<SCITEGIC>MOL_PROPERTY
U
SciTegic.value.DoubleValue
6.298

@<SCITEGIC>MOL_PROPERTY
W
SciTegic.value.DoubleValue
-64.387

@<SCITEGIC>MOL_PROPERTY
W(PB)
SciTegic.value.DoubleValue
-66.329

@<SCITEGIC>MOL_PROPERTY
W(SA)
SciTegic.value.DoubleValue
1.942

@<SCITEGIC>MOL_PROPERTY
Valence
SciTegic.value.DoubleValue
6.246

@<SCITEGIC>MOL_PROPERTY
Coulomb
SciTegic.value.DoubleValue
-0.408

@<SCITEGIC>MOL_PROPERTY
VdW
SciTegic.value.DoubleValue
0.460

@<SCITEGIC>MOL_PROPERTY
VdW6
SciTegic.value.DoubleValue
-4.207

@<SCITEGIC>MOL_PROPERTY
VdW12
SciTegic.value.DoubleValue
4.667

@<SCITEGIC>MOL_PROPERTY
Bond
SciTegic.value.DoubleValue
0.072

@<SCITEGIC>MOL_PROPERTY
Angle
SciTegic.value.DoubleValue
2.246

@<SCITEGIC>MOL_PROPERTY
Pdih
SciTegic.value.DoubleValue
3.928

@<SCITEGIC>MOL_PROPERTY
Idih
SciTegic.value.DoubleValue
0.001

@<SCITEGIC>MOL_PROPERTY
Tether
SciTegic.value.DoubleValue
0.000

@<TRIPOS>MOLECULE
guest-s18_confgen4.mol2 : confsearch ligand conformer 103
          16          15           1
SMALL
USER_CHARGES
 
@<TRIPOS>ATOM
       1    C1      21.044191   18.981690   24.335494 C.2        1 MOL1         0.6075
       2    O1      21.951056   19.710049   24.686327 O.co2      1 MOL1        -0.6830
       3    O2      20.803365   17.910729   24.856074 O.co2      1 MOL1        -0.6830
       4    C2      20.173996   19.426983   23.165431 C.3        1 MOL1        -0.2050
       5    H1      20.111221   20.521626   23.185014 H          1 MOL1         0.0710
       6    H2      19.162608   19.040249   23.334684 H          1 MOL1         0.0710
       7    C3      20.718450   18.947537   21.794776 C.3        1 MOL1        -0.1947
       8    H3      21.761633   19.277765   21.694043 H          1 MOL1         0.0712
       9    H4      20.736643   17.849159   21.771476 H          1 MOL1         0.0712
      10    C4      19.909768   19.482064   20.590316 C.3        1 MOL1        -0.1921
      11    H5      20.421753   19.189223   19.663263 H          1 MOL1         0.0712
      12    H6      19.901369   20.580716   20.606872 H          1 MOL1         0.0712
      13    C5      18.460438   18.952436   20.547072 C.3        1 MOL1        -0.2936
      14    H7      17.875095   19.316031   21.400860 H          1 MOL1         0.0724
      15    H8      18.442728   17.854805   20.559024 H          1 MOL1         0.0724
      16    H9      17.956406   19.288510   19.631641 H          1 MOL1         0.0724
@<TRIPOS>BOND
    1     1     2    1
    2     1     3    2
    3     1     4    1
    4     4     5    1
    5     4     6    1
    6     4     7    1
    7     7     8    1
    8     7     9    1
    9     7    10    1
   10    10    11    1
   11    10    12    1
   12    10    13    1
   13    13    14    1
   14    13    15    1
   15    13    16    1
@<TRIPOS>SUBSTRUCTURE
       1 MOL1            1 RESIDUE      1      MOL     
@<SCITEGIC>MOL_PROPERTY
VConf Rank
SciTegic.value.IntegerValue
103

@<SCITEGIC>MOL_PROPERTY
Conf_Id
SciTegic.value.IntegerValue
36

@<SCITEGIC>MOL_PROPERTY
Delta U+W
SciTegic.value.DoubleValue
-0.427

@<SCITEGIC>MOL_PROPERTY
U+W
SciTegic.value.DoubleValue
-57.331

@<SCITEGIC>MOL_PROPERTY
Grad RMS
SciTegic.value.DoubleValue
0.000000

@<SCITEGIC>MOL_PROPERTY
U
SciTegic.value.DoubleValue
7.263

@<SCITEGIC>MOL_PROPERTY
W
SciTegic.value.DoubleValue
-64.594

@<SCITEGIC>MOL_PROPERTY
W(PB)
SciTegic.value.DoubleValue
-66.513

@<SCITEGIC>MOL_PROPERTY
W(SA)
SciTegic.value.DoubleValue
1.920

@<SCITEGIC>MOL_PROPERTY
Valence
SciTegic.value.DoubleValue
6.734

@<SCITEGIC>MOL_PROPERTY
Coulomb
SciTegic.value.DoubleValue
-0.068

@<SCITEGIC>MOL_PROPERTY
VdW
SciTegic.value.DoubleValue
0.598

@<SCITEGIC>MOL_PROPERTY
VdW6
SciTegic.value.DoubleValue
-4.819

@<SCITEGIC>MOL_PROPERTY
VdW12
SciTegic.value.DoubleValue
5.417

@<SCITEGIC>MOL_PROPERTY
Bond
SciTegic.value.DoubleValue
0.107

@<SCITEGIC>MOL_PROPERTY
Angle
SciTegic.value.DoubleValue
2.469

@<SCITEGIC>MOL_PROPERTY
Pdih
SciTegic.value.DoubleValue
4.157

@<SCITEGIC>MOL_PROPERTY
Idih
SciTegic.value.DoubleValue
0.001

@<SCITEGIC>MOL_PROPERTY
Tether
SciTegic.value.DoubleValue
0.000

@<TRIPOS>MOLECULE
guest-s18_confgen4.mol2 : confsearch ligand conformer 104
          16          15           1
SMALL
USER_CHARGES
 
@<TRIPOS>ATOM
       1    C1      21.799969   20.955417   22.188739 C.2        1 MOL1         0.6075
       2    O1      22.890437   20.511619   21.888938 O.co2      1 MOL1        -0.6830
       3    O2      21.643365   21.970614   22.837465 O.co2      1 MOL1        -0.6830
       4    C2      20.560948   20.186175   21.744142 C.3        1 MOL1        -0.2050
       5    H1      20.787979   19.714070   20.781493 H          1 MOL1         0.0710
       6    H2      19.755412   20.909549   21.569766 H          1 MOL1         0.0710
       7    C3      20.109667   19.123312   22.779353 C.3        1 MOL1        -0.1947
       8    H3      20.908037   18.380456   22.913814 H          1 MOL1         0.0712
       9    H4      19.974529   19.613922   23.753246 H          1 MOL1         0.0712
      10    C4      18.792516   18.410584   22.395245 C.3        1 MOL1        -0.1921
      11    H5      17.991186   19.152281   22.272218 H          1 MOL1         0.0712
      12    H6      18.488093   17.759242   23.226142 H          1 MOL1         0.0712
      13    C5      18.912766   17.558822   21.113459 C.3        1 MOL1        -0.2936
      14    H7      19.104896   18.184503   20.232896 H          1 MOL1         0.0724
      15    H8      17.981933   17.006165   20.931449 H          1 MOL1         0.0724
      16    H9      19.727556   16.828406   21.202115 H          1 MOL1         0.0724
@<TRIPOS>BOND
    1     1     2    1
    2     1     3    2
    3     1     4    1
    4     4     5    1
    5     4     6    1
    6     4     7    1
    7     7     8    1
    8     7     9    1
    9     7    10    1
   10    10    11    1
   11    10    12    1
   12    10    13    1
   13    13    14    1
   14    13    15    1
   15    13    16    1
@<TRIPOS>SUBSTRUCTURE
       1 MOL1            1 RESIDUE      1      MOL     
@<SCITEGIC>MOL_PROPERTY
VConf Rank
SciTegic.value.IntegerValue
104

@<SCITEGIC>MOL_PROPERTY
Conf_Id
SciTegic.value.IntegerValue
17

@<SCITEGIC>MOL_PROPERTY
Delta U+W
SciTegic.value.DoubleValue
-0.432

@<SCITEGIC>MOL_PROPERTY
U+W
SciTegic.value.DoubleValue
-57.336

@<SCITEGIC>MOL_PROPERTY
Grad RMS
SciTegic.value.DoubleValue
0.000000

@<SCITEGIC>MOL_PROPERTY
U
SciTegic.value.DoubleValue
7.263

@<SCITEGIC>MOL_PROPERTY
W
SciTegic.value.DoubleValue
-64.599

@<SCITEGIC>MOL_PROPERTY
W(PB)
SciTegic.value.DoubleValue
-66.503

@<SCITEGIC>MOL_PROPERTY
W(SA)
SciTegic.value.DoubleValue
1.904

@<SCITEGIC>MOL_PROPERTY
Valence
SciTegic.value.DoubleValue
6.734

@<SCITEGIC>MOL_PROPERTY
Coulomb
SciTegic.value.DoubleValue
-0.068

@<SCITEGIC>MOL_PROPERTY
VdW
SciTegic.value.DoubleValue
0.598

@<SCITEGIC>MOL_PROPERTY
VdW6
SciTegic.value.DoubleValue
-4.819

@<SCITEGIC>MOL_PROPERTY
VdW12
SciTegic.value.DoubleValue
5.417

@<SCITEGIC>MOL_PROPERTY
Bond
SciTegic.value.DoubleValue
0.107

@<SCITEGIC>MOL_PROPERTY
Angle
SciTegic.value.DoubleValue
2.469

@<SCITEGIC>MOL_PROPERTY
Pdih
SciTegic.value.DoubleValue
4.157

@<SCITEGIC>MOL_PROPERTY
Idih
SciTegic.value.DoubleValue
0.001

@<SCITEGIC>MOL_PROPERTY
Tether
SciTegic.value.DoubleValue
0.000

@<TRIPOS>MOLECULE
guest-s18_confgen4.mol2 : confsearch ligand conformer 105
          16          15           1
SMALL
USER_CHARGES
 
@<TRIPOS>ATOM
       1    C1      19.091823   20.227714   20.267711 C.2        1 MOL1         0.6075
       2    O1      18.432293   19.484400   19.568535 O.co2      1 MOL1        -0.6830
       3    O2      18.681268   21.289463   20.692440 O.co2      1 MOL1        -0.6830
       4    C2      20.520788   19.814695   20.609712 C.3        1 MOL1        -0.2050
       5    H1      21.076681   20.705342   20.927229 H          1 MOL1         0.0710
       6    H2      20.990610   19.461072   19.684265 H          1 MOL1         0.0710
       7    C3      20.617127   18.709572   21.693436 C.3        1 MOL1        -0.1947
       8    H3      20.032646   17.835198   21.374885 H          1 MOL1         0.0712
       9    H4      21.661667   18.379391   21.773902 H          1 MOL1         0.0712
      10    C4      20.127563   19.190084   23.076771 C.3        1 MOL1        -0.1921
      11    H5      19.076330   19.504018   23.012918 H          1 MOL1         0.0712
      12    H6      20.704481   20.071826   23.388340 H          1 MOL1         0.0712
      13    C5      20.265547   18.084207   24.141825 C.3        1 MOL1        -0.2936
      14    H7      19.672716   17.201083   23.869623 H          1 MOL1         0.0724
      15    H8      19.912778   18.441521   25.118041 H          1 MOL1         0.0724
      16    H9      21.312783   17.773696   24.252707 H          1 MOL1         0.0724
@<TRIPOS>BOND
    1     1     2    1
    2     1     3    2
    3     1     4    1
    4     4     5    1
    5     4     6    1
    6     4     7    1
    7     7     8    1
    8     7     9    1
    9     7    10    1
   10    10    11    1
   11    10    12    1
   12    10    13    1
   13    13    14    1
   14    13    15    1
   15    13    16    1
@<TRIPOS>SUBSTRUCTURE
       1 MOL1            1 RESIDUE      1      MOL     
@<SCITEGIC>MOL_PROPERTY
VConf Rank
SciTegic.value.IntegerValue
105

@<SCITEGIC>MOL_PROPERTY
Conf_Id
SciTegic.value.IntegerValue
19

@<SCITEGIC>MOL_PROPERTY
Delta U+W
SciTegic.value.DoubleValue
0.048

@<SCITEGIC>MOL_PROPERTY
U+W
SciTegic.value.DoubleValue
-56.856

@<SCITEGIC>MOL_PROPERTY
Grad RMS
SciTegic.value.DoubleValue
0.000000

@<SCITEGIC>MOL_PROPERTY
U
SciTegic.value.DoubleValue
8.276

@<SCITEGIC>MOL_PROPERTY
W
SciTegic.value.DoubleValue
-65.132

@<SCITEGIC>MOL_PROPERTY
W(PB)
SciTegic.value.DoubleValue
-67.031

@<SCITEGIC>MOL_PROPERTY
W(SA)
SciTegic.value.DoubleValue
1.899

@<SCITEGIC>MOL_PROPERTY
Valence
SciTegic.value.DoubleValue
6.513

@<SCITEGIC>MOL_PROPERTY
Coulomb
SciTegic.value.DoubleValue
1.428

@<SCITEGIC>MOL_PROPERTY
VdW
SciTegic.value.DoubleValue
0.335

@<SCITEGIC>MOL_PROPERTY
VdW6
SciTegic.value.DoubleValue
-5.021

@<SCITEGIC>MOL_PROPERTY
VdW12
SciTegic.value.DoubleValue
5.356

@<SCITEGIC>MOL_PROPERTY
Bond
SciTegic.value.DoubleValue
0.092

@<SCITEGIC>MOL_PROPERTY
Angle
SciTegic.value.DoubleValue
2.417

@<SCITEGIC>MOL_PROPERTY
Pdih
SciTegic.value.DoubleValue
4.003

@<SCITEGIC>MOL_PROPERTY
Idih
SciTegic.value.DoubleValue
0.001

@<SCITEGIC>MOL_PROPERTY
Tether
SciTegic.value.DoubleValue
0.000

@<TRIPOS>MOLECULE
guest-s18_confgen4.mol2 : confsearch ligand conformer 106
          16          15           1
SMALL
USER_CHARGES
 
@<TRIPOS>ATOM
       1    C1      20.367775   17.005051   22.929104 C.2        1 MOL1         0.6075
       2    O1      21.444195   16.578837   22.560315 O.co2      1 MOL1        -0.6830
       3    O2      19.336830   16.364705   22.871059 O.co2      1 MOL1        -0.6830
       4    C2      20.314227   18.412021   23.518227 C.3        1 MOL1        -0.2050
       5    H1      21.149553   18.504976   24.222376 H          1 MOL1         0.0710
       6    H2      19.392663   18.511723   24.104626 H          1 MOL1         0.0710
       7    C3      20.400669   19.543581   22.461277 C.3        1 MOL1        -0.1947
       8    H3      20.495403   20.507959   22.978538 H          1 MOL1         0.0712
       9    H4      21.313542   19.414370   21.863287 H          1 MOL1         0.0712
      10    C4      19.168143   19.583713   21.532052 C.3        1 MOL1        -0.1921
      11    H5      18.255163   19.700505   22.132223 H          1 MOL1         0.0712
      12    H6      19.074951   18.630373   20.993367 H          1 MOL1         0.0712
      13    C5      19.263839   20.737272   20.513968 C.3        1 MOL1        -0.2936
      14    H7      19.323473   21.707729   21.023940 H          1 MOL1         0.0724
      15    H8      18.381274   20.751029   19.861276 H          1 MOL1         0.0724
      16    H9      20.153097   20.627834   19.879385 H          1 MOL1         0.0724
@<TRIPOS>BOND
    1     1     2    1
    2     1     3    2
    3     1     4    1
    4     4     5    1
    5     4     6    1
    6     4     7    1
    7     7     8    1
    8     7     9    1
    9     7    10    1
   10    10    11    1
   11    10    12    1
   12    10    13    1
   13    13    14    1
   14    13    15    1
   15    13    16    1
@<TRIPOS>SUBSTRUCTURE
       1 MOL1            1 RESIDUE      1      MOL     
@<SCITEGIC>MOL_PROPERTY
VConf Rank
SciTegic.value.IntegerValue
106

@<SCITEGIC>MOL_PROPERTY
Conf_Id
SciTegic.value.IntegerValue
20

@<SCITEGIC>MOL_PROPERTY
Delta U+W
SciTegic.value.DoubleValue
-0.010

@<SCITEGIC>MOL_PROPERTY
U+W
SciTegic.value.DoubleValue
-56.914

@<SCITEGIC>MOL_PROPERTY
Grad RMS
SciTegic.value.DoubleValue
0.000000

@<SCITEGIC>MOL_PROPERTY
U
SciTegic.value.DoubleValue
8.277

@<SCITEGIC>MOL_PROPERTY
W
SciTegic.value.DoubleValue
-65.191

@<SCITEGIC>MOL_PROPERTY
W(PB)
SciTegic.value.DoubleValue
-67.081

@<SCITEGIC>MOL_PROPERTY
W(SA)
SciTegic.value.DoubleValue
1.890

@<SCITEGIC>MOL_PROPERTY
Valence
SciTegic.value.DoubleValue
6.513

@<SCITEGIC>MOL_PROPERTY
Coulomb
SciTegic.value.DoubleValue
1.429

@<SCITEGIC>MOL_PROPERTY
VdW
SciTegic.value.DoubleValue
0.335

@<SCITEGIC>MOL_PROPERTY
VdW6
SciTegic.value.DoubleValue
-5.021

@<SCITEGIC>MOL_PROPERTY
VdW12
SciTegic.value.DoubleValue
5.356

@<SCITEGIC>MOL_PROPERTY
Bond
SciTegic.value.DoubleValue
0.092

@<SCITEGIC>MOL_PROPERTY
Angle
SciTegic.value.DoubleValue
2.417

@<SCITEGIC>MOL_PROPERTY
Pdih
SciTegic.value.DoubleValue
4.002

@<SCITEGIC>MOL_PROPERTY
Idih
SciTegic.value.DoubleValue
0.001

@<SCITEGIC>MOL_PROPERTY
Tether
SciTegic.value.DoubleValue
0.000

@<TRIPOS>MOLECULE
guest-s18_confgen4.mol2 : confsearch ligand conformer 107
          16          15           1
SMALL
USER_CHARGES
 
@<TRIPOS>ATOM
       1    C1      19.613970   18.778889   20.072781 C.2        1 MOL1         0.6075
       2    O1      20.494981   18.322799   19.370936 O.co2      1 MOL1        -0.6830
       3    O2      18.928014   19.729829   19.754224 O.co2      1 MOL1        -0.6830
       4    C2      19.333830   18.097920   21.409773 C.3        1 MOL1        -0.2050
       5    H1      19.228329   17.024667   21.212598 H          1 MOL1         0.0710
       6    H2      18.362279   18.441506   21.782978 H          1 MOL1         0.0710
       7    C3      20.439381   18.316400   22.478746 C.3        1 MOL1        -0.1947
       8    H3      20.195502   17.729117   23.374287 H          1 MOL1         0.0712
       9    H4      21.386393   17.912960   22.094351 H          1 MOL1         0.0712
      10    C4      20.653120   19.794736   22.882265 C.3        1 MOL1        -0.1921
      11    H5      20.932110   20.387209   21.999804 H          1 MOL1         0.0712
      12    H6      21.504457   19.851574   23.574451 H          1 MOL1         0.0712
      13    C5      19.417822   20.425561   23.559422 C.3        1 MOL1        -0.2936
      14    H7      18.575787   20.501653   22.859655 H          1 MOL1         0.0724
      15    H8      19.649112   21.439259   23.911248 H          1 MOL1         0.0724
      16    H9      19.096515   19.831669   24.424939 H          1 MOL1         0.0724
@<TRIPOS>BOND
    1     1     2    1
    2     1     3    2
    3     1     4    1
    4     4     5    1
    5     4     6    1
    6     4     7    1
    7     7     8    1
    8     7     9    1
    9     7    10    1
   10    10    11    1
   11    10    12    1
   12    10    13    1
   13    13    14    1
   14    13    15    1
   15    13    16    1
@<TRIPOS>SUBSTRUCTURE
       1 MOL1            1 RESIDUE      1      MOL     
@<SCITEGIC>MOL_PROPERTY
VConf Rank
SciTegic.value.IntegerValue
107

@<SCITEGIC>MOL_PROPERTY
Conf_Id
SciTegic.value.IntegerValue
37

@<SCITEGIC>MOL_PROPERTY
Delta U+W
SciTegic.value.DoubleValue
1.063

@<SCITEGIC>MOL_PROPERTY
U+W
SciTegic.value.DoubleValue
-55.841

@<SCITEGIC>MOL_PROPERTY
Grad RMS
SciTegic.value.DoubleValue
0.000000

@<SCITEGIC>MOL_PROPERTY
U
SciTegic.value.DoubleValue
9.719

@<SCITEGIC>MOL_PROPERTY
W
SciTegic.value.DoubleValue
-65.560

@<SCITEGIC>MOL_PROPERTY
W(PB)
SciTegic.value.DoubleValue
-67.414

@<SCITEGIC>MOL_PROPERTY
W(SA)
SciTegic.value.DoubleValue
1.854

@<SCITEGIC>MOL_PROPERTY
Valence
SciTegic.value.DoubleValue
7.002

@<SCITEGIC>MOL_PROPERTY
Coulomb
SciTegic.value.DoubleValue
2.402

@<SCITEGIC>MOL_PROPERTY
VdW
SciTegic.value.DoubleValue
0.314

@<SCITEGIC>MOL_PROPERTY
VdW6
SciTegic.value.DoubleValue
-5.861

@<SCITEGIC>MOL_PROPERTY
VdW12
SciTegic.value.DoubleValue
6.175

@<SCITEGIC>MOL_PROPERTY
Bond
SciTegic.value.DoubleValue
0.134

@<SCITEGIC>MOL_PROPERTY
Angle
SciTegic.value.DoubleValue
2.733

@<SCITEGIC>MOL_PROPERTY
Pdih
SciTegic.value.DoubleValue
4.133

@<SCITEGIC>MOL_PROPERTY
Idih
SciTegic.value.DoubleValue
0.002

@<SCITEGIC>MOL_PROPERTY
Tether
SciTegic.value.DoubleValue
0.000

@<TRIPOS>MOLECULE
guest-s18_confgen4.mol2 : confsearch ligand conformer 108
          16          15           1
SMALL
USER_CHARGES
 
@<TRIPOS>ATOM
       1    C1      20.751603   17.565068   20.841663 C.2        1 MOL1         0.6075
       2    O1      21.691532   17.669945   20.078565 O.co2      1 MOL1        -0.6830
       3    O2      20.564901   16.592283   21.545320 O.co2      1 MOL1        -0.6830
       4    C2      19.734515   18.702090   20.891247 C.3        1 MOL1        -0.2050
       5    H1      18.832412   18.345339   21.401333 H          1 MOL1         0.0710
       6    H2      19.440452   18.921026   19.858060 H          1 MOL1         0.0710
       7    C3      20.264117   20.000422   21.559481 C.3        1 MOL1        -0.1947
       8    H3      21.133902   20.359615   20.992201 H          1 MOL1         0.0712
       9    H4      19.499167   20.784518   21.479388 H          1 MOL1         0.0712
      10    C4      20.669252   19.834377   23.043492 C.3        1 MOL1        -0.1921
      11    H5      21.104860   20.778791   23.397691 H          1 MOL1         0.0712
      12    H6      21.459838   19.076415   23.133292 H          1 MOL1         0.0712
      13    C5      19.485172   19.457802   23.959236 C.3        1 MOL1        -0.2936
      14    H7      18.665598   20.181544   23.861455 H          1 MOL1         0.0724
      15    H8      19.802039   19.444841   25.010087 H          1 MOL1         0.0724
      16    H9      19.096939   18.460072   23.717787 H          1 MOL1         0.0724
@<TRIPOS>BOND
    1     1     2    1
    2     1     3    2
    3     1     4    1
    4     4     5    1
    5     4     6    1
    6     4     7    1
    7     7     8    1
    8     7     9    1
    9     7    10    1
   10    10    11    1
   11    10    12    1
   12    10    13    1
   13    13    14    1
   14    13    15    1
   15    13    16    1
@<TRIPOS>SUBSTRUCTURE
       1 MOL1            1 RESIDUE      1      MOL     
@<SCITEGIC>MOL_PROPERTY
VConf Rank
SciTegic.value.IntegerValue
108

@<SCITEGIC>MOL_PROPERTY
Conf_Id
SciTegic.value.IntegerValue
39

@<SCITEGIC>MOL_PROPERTY
Delta U+W
SciTegic.value.DoubleValue
1.129

@<SCITEGIC>MOL_PROPERTY
U+W
SciTegic.value.DoubleValue
-55.775

@<SCITEGIC>MOL_PROPERTY
Grad RMS
SciTegic.value.DoubleValue
0.000000

@<SCITEGIC>MOL_PROPERTY
U
SciTegic.value.DoubleValue
9.718

@<SCITEGIC>MOL_PROPERTY
W
SciTegic.value.DoubleValue
-65.493

@<SCITEGIC>MOL_PROPERTY
W(PB)
SciTegic.value.DoubleValue
-67.361

@<SCITEGIC>MOL_PROPERTY
W(SA)
SciTegic.value.DoubleValue
1.869

@<SCITEGIC>MOL_PROPERTY
Valence
SciTegic.value.DoubleValue
7.002

@<SCITEGIC>MOL_PROPERTY
Coulomb
SciTegic.value.DoubleValue
2.402

@<SCITEGIC>MOL_PROPERTY
VdW
SciTegic.value.DoubleValue
0.314

@<SCITEGIC>MOL_PROPERTY
VdW6
SciTegic.value.DoubleValue
-5.861

@<SCITEGIC>MOL_PROPERTY
VdW12
SciTegic.value.DoubleValue
6.175

@<SCITEGIC>MOL_PROPERTY
Bond
SciTegic.value.DoubleValue
0.134

@<SCITEGIC>MOL_PROPERTY
Angle
SciTegic.value.DoubleValue
2.734

@<SCITEGIC>MOL_PROPERTY
Pdih
SciTegic.value.DoubleValue
4.133

@<SCITEGIC>MOL_PROPERTY
Idih
SciTegic.value.DoubleValue
0.002

@<SCITEGIC>MOL_PROPERTY
Tether
SciTegic.value.DoubleValue
0.000

@<TRIPOS>MOLECULE
guest-s18_confgen4.mol2 : confsearch ligand conformer 109
          16          15           1
SMALL
USER_CHARGES
 
@<TRIPOS>ATOM
       1    C1      19.148985   17.282584   21.836440 C.2        1 MOL1         0.6075
       2    O1      19.940928   16.400032   22.102424 O.co2      1 MOL1        -0.6830
       3    O2      18.557444   17.353156   20.777073 O.co2      1 MOL1        -0.6830
       4    C2      18.814172   18.302459   22.923368 C.3        1 MOL1        -0.2050
       5    H1      19.371139   18.049569   23.833759 H          1 MOL1         0.0710
       6    H2      17.752039   18.166224   23.158022 H          1 MOL1         0.0710
       7    C3      19.059328   19.788586   22.538260 C.3        1 MOL1        -0.1947
       8    H3      18.673235   19.982204   21.527822 H          1 MOL1         0.0712
       9    H4      18.464430   20.416683   23.215048 H          1 MOL1         0.0712
      10    C4      20.533467   20.248926   22.641051 C.3        1 MOL1        -0.1921
      11    H5      20.916237   20.051872   23.651936 H          1 MOL1         0.0712
      12    H6      20.567189   21.338786   22.505553 H          1 MOL1         0.0712
      13    C5      21.464601   19.597693   21.597417 C.3        1 MOL1        -0.2936
      14    H7      21.595902   18.526393   21.792545 H          1 MOL1         0.0724
      15    H8      22.458531   20.062469   21.626642 H          1 MOL1         0.0724
      16    H9      21.063662   19.717180   20.582379 H          1 MOL1         0.0724
@<TRIPOS>BOND
    1     1     2    1
    2     1     3    2
    3     1     4    1
    4     4     5    1
    5     4     6    1
    6     4     7    1
    7     7     8    1
    8     7     9    1
    9     7    10    1
   10    10    11    1
   11    10    12    1
   12    10    13    1
   13    13    14    1
   14    13    15    1
   15    13    16    1
@<TRIPOS>SUBSTRUCTURE
       1 MOL1            1 RESIDUE      1      MOL     
@<SCITEGIC>MOL_PROPERTY
VConf Rank
SciTegic.value.IntegerValue
109

@<SCITEGIC>MOL_PROPERTY
Conf_Id
SciTegic.value.IntegerValue
47

@<SCITEGIC>MOL_PROPERTY
Delta U+W
SciTegic.value.DoubleValue
2.301

@<SCITEGIC>MOL_PROPERTY
U+W
SciTegic.value.DoubleValue
-54.603

@<SCITEGIC>MOL_PROPERTY
Grad RMS
SciTegic.value.DoubleValue
0.000000

@<SCITEGIC>MOL_PROPERTY
U
SciTegic.value.DoubleValue
11.258

@<SCITEGIC>MOL_PROPERTY
W
SciTegic.value.DoubleValue
-65.861

@<SCITEGIC>MOL_PROPERTY
W(PB)
SciTegic.value.DoubleValue
-67.702

@<SCITEGIC>MOL_PROPERTY
W(SA)
SciTegic.value.DoubleValue
1.841

@<SCITEGIC>MOL_PROPERTY
Valence
SciTegic.value.DoubleValue
8.169

@<SCITEGIC>MOL_PROPERTY
Coulomb
SciTegic.value.DoubleValue
2.735

@<SCITEGIC>MOL_PROPERTY
VdW
SciTegic.value.DoubleValue
0.355

@<SCITEGIC>MOL_PROPERTY
VdW6
SciTegic.value.DoubleValue
-6.245

@<SCITEGIC>MOL_PROPERTY
VdW12
SciTegic.value.DoubleValue
6.600

@<SCITEGIC>MOL_PROPERTY
Bond
SciTegic.value.DoubleValue
0.149

@<SCITEGIC>MOL_PROPERTY
Angle
SciTegic.value.DoubleValue
3.168

@<SCITEGIC>MOL_PROPERTY
Pdih
SciTegic.value.DoubleValue
4.840

@<SCITEGIC>MOL_PROPERTY
Idih
SciTegic.value.DoubleValue
0.011

@<SCITEGIC>MOL_PROPERTY
Tether
SciTegic.value.DoubleValue
0.000

@<TRIPOS>MOLECULE
guest-s18_confgen4.mol2 : confsearch ligand conformer 110
          16          15           1
SMALL
USER_CHARGES
 
@<TRIPOS>ATOM
       1    C1      21.708472   19.388930   21.525160 C.2        1 MOL1         0.6075
       2    O1      22.493452   18.725541   22.173913 O.co2      1 MOL1        -0.6830
       3    O2      21.895953   20.554789   21.238036 O.co2      1 MOL1        -0.6830
       4    C2      20.465705   18.699259   20.965203 C.3        1 MOL1        -0.2050
       5    H1      20.826012   17.911215   20.293702 H          1 MOL1         0.0710
       6    H2      19.911828   19.412410   20.342615 H          1 MOL1         0.0710
       7    C3      19.522396   18.065816   22.026290 C.3        1 MOL1        -0.1947
       8    H3      18.898410   17.316421   21.520820 H          1 MOL1         0.0712
       9    H4      20.113180   17.515082   22.771412 H          1 MOL1         0.0712
      10    C4      18.577499   19.067829   22.732478 C.3        1 MOL1        -0.1921
      11    H5      17.855300   18.499048   23.334318 H          1 MOL1         0.0712
      12    H6      17.990100   19.617585   21.984173 H          1 MOL1         0.0712
      13    C5      19.305068   20.066096   23.656811 C.3        1 MOL1        -0.2936
      14    H7      18.579580   20.654527   24.233166 H          1 MOL1         0.0724
      15    H8      19.917381   20.770546   23.080769 H          1 MOL1         0.0724
      16    H9      19.957820   19.541921   24.367081 H          1 MOL1         0.0724
@<TRIPOS>BOND
    1     1     2    1
    2     1     3    2
    3     1     4    1
    4     4     5    1
    5     4     6    1
    6     4     7    1
    7     7     8    1
    8     7     9    1
    9     7    10    1
   10    10    11    1
   11    10    12    1
   12    10    13    1
   13    13    14    1
   14    13    15    1
   15    13    16    1
@<TRIPOS>SUBSTRUCTURE
       1 MOL1            1 RESIDUE      1      MOL     
@<SCITEGIC>MOL_PROPERTY
VConf Rank
SciTegic.value.IntegerValue
110

@<SCITEGIC>MOL_PROPERTY
Conf_Id
SciTegic.value.IntegerValue
45

@<SCITEGIC>MOL_PROPERTY
Delta U+W
SciTegic.value.DoubleValue
2.303

@<SCITEGIC>MOL_PROPERTY
U+W
SciTegic.value.DoubleValue
-54.601

@<SCITEGIC>MOL_PROPERTY
Grad RMS
SciTegic.value.DoubleValue
0.000000

@<SCITEGIC>MOL_PROPERTY
U
SciTegic.value.DoubleValue
11.258

@<SCITEGIC>MOL_PROPERTY
W
SciTegic.value.DoubleValue
-65.860

@<SCITEGIC>MOL_PROPERTY
W(PB)
SciTegic.value.DoubleValue
-67.709

@<SCITEGIC>MOL_PROPERTY
W(SA)
SciTegic.value.DoubleValue
1.849

@<SCITEGIC>MOL_PROPERTY
Valence
SciTegic.value.DoubleValue
8.169

@<SCITEGIC>MOL_PROPERTY
Coulomb
SciTegic.value.DoubleValue
2.735

@<SCITEGIC>MOL_PROPERTY
VdW
SciTegic.value.DoubleValue
0.355

@<SCITEGIC>MOL_PROPERTY
VdW6
SciTegic.value.DoubleValue
-6.245

@<SCITEGIC>MOL_PROPERTY
VdW12
SciTegic.value.DoubleValue
6.600

@<SCITEGIC>MOL_PROPERTY
Bond
SciTegic.value.DoubleValue
0.149

@<SCITEGIC>MOL_PROPERTY
Angle
SciTegic.value.DoubleValue
3.168

@<SCITEGIC>MOL_PROPERTY
Pdih
SciTegic.value.DoubleValue
4.840

@<SCITEGIC>MOL_PROPERTY
Idih
SciTegic.value.DoubleValue
0.011

@<SCITEGIC>MOL_PROPERTY
Tether
SciTegic.value.DoubleValue
0.000

@<TRIPOS>MOLECULE
guest-s18_confgen4.mol2 : confsearch ligand conformer 111
          16          15           1
SMALL
USER_CHARGES
 
@<TRIPOS>ATOM
       1    C1      21.926348   17.148626   21.857120 C.2        1 MOL1         0.6075
       2    O1      22.777289   17.864476   21.365965 O.co2      1 MOL1        -0.6830
       3    O2      22.120165   15.981090   22.130266 O.co2      1 MOL1        -0.6830
       4    C2      20.537141   17.714548   22.156673 C.3        1 MOL1        -0.2050
       5    H1      20.347414   17.567101   23.226451 H          1 MOL1         0.0710
       6    H2      19.809313   17.099629   21.614176 H          1 MOL1         0.0710
       7    C3      20.336124   19.209135   21.790410 C.3        1 MOL1        -0.1947
       8    H3      21.071506   19.819572   22.332674 H          1 MOL1         0.0712
       9    H4      20.532835   19.351611   20.718741 H          1 MOL1         0.0712
      10    C4      18.910295   19.694957   22.125443 C.3        1 MOL1        -0.1921
      11    H5      18.712910   19.554648   23.197288 H          1 MOL1         0.0712
      12    H6      18.173906   19.086412   21.582393 H          1 MOL1         0.0712
      13    C5      18.716851   21.179812   21.759482 C.3        1 MOL1        -0.2936
      14    H7      19.420654   21.815526   22.312652 H          1 MOL1         0.0724
      15    H8      17.698507   21.508997   22.003930 H          1 MOL1         0.0724
      16    H9      18.877671   21.343841   20.685843 H          1 MOL1         0.0724
@<TRIPOS>BOND
    1     1     2    1
    2     1     3    2
    3     1     4    1
    4     4     5    1
    5     4     6    1
    6     4     7    1
    7     7     8    1
    8     7     9    1
    9     7    10    1
   10    10    11    1
   11    10    12    1
   12    10    13    1
   13    13    14    1
   14    13    15    1
   15    13    16    1
@<TRIPOS>SUBSTRUCTURE
       1 MOL1            1 RESIDUE      1      MOL     
@<SCITEGIC>MOL_PROPERTY
VConf Rank
SciTegic.value.IntegerValue
111

@<SCITEGIC>MOL_PROPERTY
Conf_Id
SciTegic.value.IntegerValue
0

@<SCITEGIC>MOL_PROPERTY
Delta U+W
SciTegic.value.DoubleValue
0.000

@<SCITEGIC>MOL_PROPERTY
U+W
SciTegic.value.DoubleValue
-56.904

@<SCITEGIC>MOL_PROPERTY
Grad RMS
SciTegic.value.DoubleValue
0.000000

@<SCITEGIC>MOL_PROPERTY
U
SciTegic.value.DoubleValue
7.329

@<SCITEGIC>MOL_PROPERTY
W
SciTegic.value.DoubleValue
-64.233

@<SCITEGIC>MOL_PROPERTY
W(PB)
SciTegic.value.DoubleValue
-66.148

@<SCITEGIC>MOL_PROPERTY
W(SA)
SciTegic.value.DoubleValue
1.915

@<SCITEGIC>MOL_PROPERTY
Valence
SciTegic.value.DoubleValue
6.755

@<SCITEGIC>MOL_PROPERTY
Coulomb
SciTegic.value.DoubleValue
-0.421

@<SCITEGIC>MOL_PROPERTY
VdW
SciTegic.value.DoubleValue
0.995

@<SCITEGIC>MOL_PROPERTY
VdW6
SciTegic.value.DoubleValue
-4.495

@<SCITEGIC>MOL_PROPERTY
VdW12
SciTegic.value.DoubleValue
5.490

@<SCITEGIC>MOL_PROPERTY
Bond
SciTegic.value.DoubleValue
0.106

@<SCITEGIC>MOL_PROPERTY
Angle
SciTegic.value.DoubleValue
2.715

@<SCITEGIC>MOL_PROPERTY
Pdih
SciTegic.value.DoubleValue
3.934

@<SCITEGIC>MOL_PROPERTY
Idih
SciTegic.value.DoubleValue
0.000

@<SCITEGIC>MOL_PROPERTY
Tether
SciTegic.value.DoubleValue
0.000

@<TRIPOS>MOLECULE
guest-s18_confgen4.mol2 : confsearch ligand conformer 112
          16          15           1
SMALL
USER_CHARGES
 
@<TRIPOS>ATOM
       1    C1      18.229144   20.666419   20.594917 C.2        1 MOL1         0.6075
       2    O1      18.475858   21.855946   20.594479 O.co2      1 MOL1        -0.6830
       3    O2      17.650744   20.099784   19.689256 O.co2      1 MOL1        -0.6830
       4    C2      18.686414   19.836052   21.789060 C.3        1 MOL1        -0.2050
       5    H1      17.964620   19.023455   21.935856 H          1 MOL1         0.0710
       6    H2      18.645001   20.471326   22.682124 H          1 MOL1         0.0710
       7    C3      20.111962   19.258040   21.610796 C.3        1 MOL1        -0.1947
       8    H3      20.140471   18.634684   20.706272 H          1 MOL1         0.0712
       9    H4      20.820882   20.082617   21.452504 H          1 MOL1         0.0712
      10    C4      20.549803   18.422895   22.832021 C.3        1 MOL1        -0.1921
      11    H5      19.841491   17.597789   22.990235 H          1 MOL1         0.0712
      12    H6      20.522041   19.046091   23.736672 H          1 MOL1         0.0712
      13    C5      21.969290   17.850918   22.647632 C.3        1 MOL1        -0.2936
      14    H7      22.703751   18.656738   22.518427 H          1 MOL1         0.0724
      15    H8      22.018179   17.197757   21.766461 H          1 MOL1         0.0724
      16    H9      22.265092   17.260082   23.524310 H          1 MOL1         0.0724
@<TRIPOS>BOND
    1     1     2    1
    2     1     3    2
    3     1     4    1
    4     4     5    1
    5     4     6    1
    6     4     7    1
    7     7     8    1
    8     7     9    1
    9     7    10    1
   10    10    11    1
   11    10    12    1
   12    10    13    1
   13    13    14    1
   14    13    15    1
   15    13    16    1
@<TRIPOS>SUBSTRUCTURE
       1 MOL1            1 RESIDUE      1      MOL     
@<SCITEGIC>MOL_PROPERTY
VConf Rank
SciTegic.value.IntegerValue
112

@<SCITEGIC>MOL_PROPERTY
Conf_Id
SciTegic.value.IntegerValue
22

@<SCITEGIC>MOL_PROPERTY
Delta U+W
SciTegic.value.DoubleValue
-1.185

@<SCITEGIC>MOL_PROPERTY
U+W
SciTegic.value.DoubleValue
-58.089

@<SCITEGIC>MOL_PROPERTY
Grad RMS
SciTegic.value.DoubleValue
0.000000

@<SCITEGIC>MOL_PROPERTY
U
SciTegic.value.DoubleValue
6.298

@<SCITEGIC>MOL_PROPERTY
W
SciTegic.value.DoubleValue
-64.387

@<SCITEGIC>MOL_PROPERTY
W(PB)
SciTegic.value.DoubleValue
-66.329

@<SCITEGIC>MOL_PROPERTY
W(SA)
SciTegic.value.DoubleValue
1.942

@<SCITEGIC>MOL_PROPERTY
Valence
SciTegic.value.DoubleValue
6.246

@<SCITEGIC>MOL_PROPERTY
Coulomb
SciTegic.value.DoubleValue
-0.408

@<SCITEGIC>MOL_PROPERTY
VdW
SciTegic.value.DoubleValue
0.460

@<SCITEGIC>MOL_PROPERTY
VdW6
SciTegic.value.DoubleValue
-4.207

@<SCITEGIC>MOL_PROPERTY
VdW12
SciTegic.value.DoubleValue
4.667

@<SCITEGIC>MOL_PROPERTY
Bond
SciTegic.value.DoubleValue
0.072

@<SCITEGIC>MOL_PROPERTY
Angle
SciTegic.value.DoubleValue
2.246

@<SCITEGIC>MOL_PROPERTY
Pdih
SciTegic.value.DoubleValue
3.928

@<SCITEGIC>MOL_PROPERTY
Idih
SciTegic.value.DoubleValue
0.001

@<SCITEGIC>MOL_PROPERTY
Tether
SciTegic.value.DoubleValue
0.000

@<TRIPOS>MOLECULE
guest-s18_confgen4.mol2 : confsearch ligand conformer 113
          16          15           1
SMALL
USER_CHARGES
 
@<TRIPOS>ATOM
       1    C1      22.252987   19.410330   23.168584 C.2        1 MOL1         0.6075
       2    O1      22.561116   18.755587   24.144475 O.co2      1 MOL1        -0.6830
       3    O2      22.780107   20.464340   22.873348 O.co2      1 MOL1        -0.6830
       4    C2      21.130205   18.890731   22.277547 C.3        1 MOL1        -0.2050
       5    H1      21.157931   17.794678   22.299125 H          1 MOL1         0.0710
       6    H2      21.348318   19.201293   21.249396 H          1 MOL1         0.0710
       7    C3      19.731729   19.398470   22.715110 C.3        1 MOL1        -0.1947
       8    H3      19.580191   19.147228   23.774044 H          1 MOL1         0.0712
       9    H4      19.702515   20.494846   22.648664 H          1 MOL1         0.0712
      10    C4      18.571909   18.794259   21.890395 C.3        1 MOL1        -0.1921
      11    H5      17.618958   19.117195   22.331876 H          1 MOL1         0.0712
      12    H6      18.593897   17.698294   21.966278 H          1 MOL1         0.0712
      13    C5      18.599161   19.212408   20.404682 C.3        1 MOL1        -0.2936
      14    H7      19.482954   18.812763   19.891870 H          1 MOL1         0.0724
      15    H8      18.606962   20.305620   20.304294 H          1 MOL1         0.0724
      16    H9      17.711777   18.831530   19.882678 H          1 MOL1         0.0724
@<TRIPOS>BOND
    1     1     2    1
    2     1     3    2
    3     1     4    1
    4     4     5    1
    5     4     6    1
    6     4     7    1
    7     7     8    1
    8     7     9    1
    9     7    10    1
   10    10    11    1
   11    10    12    1
   12    10    13    1
   13    13    14    1
   14    13    15    1
   15    13    16    1
@<TRIPOS>SUBSTRUCTURE
       1 MOL1            1 RESIDUE      1      MOL     
@<SCITEGIC>MOL_PROPERTY
VConf Rank
SciTegic.value.IntegerValue
113

@<SCITEGIC>MOL_PROPERTY
Conf_Id
SciTegic.value.IntegerValue
36

@<SCITEGIC>MOL_PROPERTY
Delta U+W
SciTegic.value.DoubleValue
-0.427

@<SCITEGIC>MOL_PROPERTY
U+W
SciTegic.value.DoubleValue
-57.331

@<SCITEGIC>MOL_PROPERTY
Grad RMS
SciTegic.value.DoubleValue
0.000000

@<SCITEGIC>MOL_PROPERTY
U
SciTegic.value.DoubleValue
7.263

@<SCITEGIC>MOL_PROPERTY
W
SciTegic.value.DoubleValue
-64.594

@<SCITEGIC>MOL_PROPERTY
W(PB)
SciTegic.value.DoubleValue
-66.513

@<SCITEGIC>MOL_PROPERTY
W(SA)
SciTegic.value.DoubleValue
1.920

@<SCITEGIC>MOL_PROPERTY
Valence
SciTegic.value.DoubleValue
6.734

@<SCITEGIC>MOL_PROPERTY
Coulomb
SciTegic.value.DoubleValue
-0.068

@<SCITEGIC>MOL_PROPERTY
VdW
SciTegic.value.DoubleValue
0.598

@<SCITEGIC>MOL_PROPERTY
VdW6
SciTegic.value.DoubleValue
-4.819

@<SCITEGIC>MOL_PROPERTY
VdW12
SciTegic.value.DoubleValue
5.417

@<SCITEGIC>MOL_PROPERTY
Bond
SciTegic.value.DoubleValue
0.107

@<SCITEGIC>MOL_PROPERTY
Angle
SciTegic.value.DoubleValue
2.469

@<SCITEGIC>MOL_PROPERTY
Pdih
SciTegic.value.DoubleValue
4.157

@<SCITEGIC>MOL_PROPERTY
Idih
SciTegic.value.DoubleValue
0.001

@<SCITEGIC>MOL_PROPERTY
Tether
SciTegic.value.DoubleValue
0.000

@<TRIPOS>MOLECULE
guest-s18_confgen4.mol2 : confsearch ligand conformer 114
          16          15           1
SMALL
USER_CHARGES
 
@<TRIPOS>ATOM
       1    C1      19.440777   21.282495   23.346490 C.2        1 MOL1         0.6075
       2    O1      18.714218   22.030786   22.723489 O.co2      1 MOL1        -0.6830
       3    O2      20.119363   21.636635   24.289941 O.co2      1 MOL1        -0.6830
       4    C2      19.520940   19.824339   22.908391 C.3        1 MOL1        -0.2050
       5    H1      18.538925   19.539141   22.514152 H          1 MOL1         0.0710
       6    H2      19.704746   19.210941   23.798630 H          1 MOL1         0.0710
       7    C3      20.626542   19.574591   21.849965 C.3        1 MOL1        -0.1947
       8    H3      20.408754   20.161434   20.946918 H          1 MOL1         0.0712
       9    H4      21.581913   19.950330   22.241776 H          1 MOL1         0.0712
      10    C4      20.794942   18.083889   21.475993 C.3        1 MOL1        -0.1921
      11    H5      21.024351   17.498598   22.377207 H          1 MOL1         0.0712
      12    H6      21.663304   17.982661   20.810405 H          1 MOL1         0.0712
      13    C5      19.556398   17.489278   20.772162 C.3        1 MOL1        -0.2936
      14    H7      18.687708   17.465138   21.441921 H          1 MOL1         0.0724
      15    H8      19.756035   16.459067   20.449951 H          1 MOL1         0.0724
      16    H9      19.290370   18.075817   19.883089 H          1 MOL1         0.0724
@<TRIPOS>BOND
    1     1     2    1
    2     1     3    2
    3     1     4    1
    4     4     5    1
    5     4     6    1
    6     4     7    1
    7     7     8    1
    8     7     9    1
    9     7    10    1
   10    10    11    1
   11    10    12    1
   12    10    13    1
   13    13    14    1
   14    13    15    1
   15    13    16    1
@<TRIPOS>SUBSTRUCTURE
       1 MOL1            1 RESIDUE      1      MOL     
@<SCITEGIC>MOL_PROPERTY
VConf Rank
SciTegic.value.IntegerValue
114

@<SCITEGIC>MOL_PROPERTY
Conf_Id
SciTegic.value.IntegerValue
17

@<SCITEGIC>MOL_PROPERTY
Delta U+W
SciTegic.value.DoubleValue
-0.432

@<SCITEGIC>MOL_PROPERTY
U+W
SciTegic.value.DoubleValue
-57.336

@<SCITEGIC>MOL_PROPERTY
Grad RMS
SciTegic.value.DoubleValue
0.000000

@<SCITEGIC>MOL_PROPERTY
U
SciTegic.value.DoubleValue
7.263

@<SCITEGIC>MOL_PROPERTY
W
SciTegic.value.DoubleValue
-64.599

@<SCITEGIC>MOL_PROPERTY
W(PB)
SciTegic.value.DoubleValue
-66.503

@<SCITEGIC>MOL_PROPERTY
W(SA)
SciTegic.value.DoubleValue
1.904

@<SCITEGIC>MOL_PROPERTY
Valence
SciTegic.value.DoubleValue
6.734

@<SCITEGIC>MOL_PROPERTY
Coulomb
SciTegic.value.DoubleValue
-0.068

@<SCITEGIC>MOL_PROPERTY
VdW
SciTegic.value.DoubleValue
0.598

@<SCITEGIC>MOL_PROPERTY
VdW6
SciTegic.value.DoubleValue
-4.819

@<SCITEGIC>MOL_PROPERTY
VdW12
SciTegic.value.DoubleValue
5.417

@<SCITEGIC>MOL_PROPERTY
Bond
SciTegic.value.DoubleValue
0.107

@<SCITEGIC>MOL_PROPERTY
Angle
SciTegic.value.DoubleValue
2.469

@<SCITEGIC>MOL_PROPERTY
Pdih
SciTegic.value.DoubleValue
4.157

@<SCITEGIC>MOL_PROPERTY
Idih
SciTegic.value.DoubleValue
0.001

@<SCITEGIC>MOL_PROPERTY
Tether
SciTegic.value.DoubleValue
0.000

@<TRIPOS>MOLECULE
guest-s18_confgen4.mol2 : confsearch ligand conformer 115
          16          15           1
SMALL
USER_CHARGES
 
@<TRIPOS>ATOM
       1    C1      19.457423   17.001726   21.321843 C.2        1 MOL1         0.6075
       2    O1      20.170144   16.096418   21.707573 O.co2      1 MOL1        -0.6830
       3    O2      18.244872   16.979353   21.395870 O.co2      1 MOL1        -0.6830
       4    C2      20.121958   18.221190   20.688759 C.3        1 MOL1        -0.2050
       5    H1      19.372945   18.760471   20.096104 H          1 MOL1         0.0710
       6    H2      20.878654   17.854323   19.985160 H          1 MOL1         0.0710
       7    C3      20.787317   19.179947   21.710090 C.3        1 MOL1        -0.1947
       8    H3      21.513908   18.620085   22.315271 H          1 MOL1         0.0712
       9    H4      21.354408   19.945416   21.163260 H          1 MOL1         0.0712
      10    C4      19.759852   19.870494   22.632936 C.3        1 MOL1        -0.1921
      11    H5      19.200019   19.114343   23.200867 H          1 MOL1         0.0712
      12    H6      19.026783   20.419632   22.025949 H          1 MOL1         0.0712
      13    C5      20.443856   20.842383   23.614727 C.3        1 MOL1        -0.2936
      14    H7      21.160683   20.312668   24.255829 H          1 MOL1         0.0724
      15    H8      19.700305   21.323659   24.263281 H          1 MOL1         0.0724
      16    H9      20.983974   21.631173   23.074821 H          1 MOL1         0.0724
@<TRIPOS>BOND
    1     1     2    1
    2     1     3    2
    3     1     4    1
    4     4     5    1
    5     4     6    1
    6     4     7    1
    7     7     8    1
    8     7     9    1
    9     7    10    1
   10    10    11    1
   11    10    12    1
   12    10    13    1
   13    13    14    1
   14    13    15    1
   15    13    16    1
@<TRIPOS>SUBSTRUCTURE
       1 MOL1            1 RESIDUE      1      MOL     
@<SCITEGIC>MOL_PROPERTY
VConf Rank
SciTegic.value.IntegerValue
115

@<SCITEGIC>MOL_PROPERTY
Conf_Id
SciTegic.value.IntegerValue
19

@<SCITEGIC>MOL_PROPERTY
Delta U+W
SciTegic.value.DoubleValue
0.048

@<SCITEGIC>MOL_PROPERTY
U+W
SciTegic.value.DoubleValue
-56.856

@<SCITEGIC>MOL_PROPERTY
Grad RMS
SciTegic.value.DoubleValue
0.000000

@<SCITEGIC>MOL_PROPERTY
U
SciTegic.value.DoubleValue
8.276

@<SCITEGIC>MOL_PROPERTY
W
SciTegic.value.DoubleValue
-65.132

@<SCITEGIC>MOL_PROPERTY
W(PB)
SciTegic.value.DoubleValue
-67.031

@<SCITEGIC>MOL_PROPERTY
W(SA)
SciTegic.value.DoubleValue
1.899

@<SCITEGIC>MOL_PROPERTY
Valence
SciTegic.value.DoubleValue
6.513

@<SCITEGIC>MOL_PROPERTY
Coulomb
SciTegic.value.DoubleValue
1.428

@<SCITEGIC>MOL_PROPERTY
VdW
SciTegic.value.DoubleValue
0.335

@<SCITEGIC>MOL_PROPERTY
VdW6
SciTegic.value.DoubleValue
-5.021

@<SCITEGIC>MOL_PROPERTY
VdW12
SciTegic.value.DoubleValue
5.356

@<SCITEGIC>MOL_PROPERTY
Bond
SciTegic.value.DoubleValue
0.092

@<SCITEGIC>MOL_PROPERTY
Angle
SciTegic.value.DoubleValue
2.417

@<SCITEGIC>MOL_PROPERTY
Pdih
SciTegic.value.DoubleValue
4.003

@<SCITEGIC>MOL_PROPERTY
Idih
SciTegic.value.DoubleValue
0.001

@<SCITEGIC>MOL_PROPERTY
Tether
SciTegic.value.DoubleValue
0.000

@<TRIPOS>MOLECULE
guest-s18_confgen4.mol2 : confsearch ligand conformer 116
          16          15           1
SMALL
USER_CHARGES
 
@<TRIPOS>ATOM
       1    C1      19.741947   20.533456   24.016087 C.2        1 MOL1         0.6075
       2    O1      20.024700   21.695901   23.803688 O.co2      1 MOL1        -0.6830
       3    O2      20.210836   19.885007   24.930373 O.co2      1 MOL1        -0.6830
       4    C2      18.725228   19.860635   23.097886 C.3        1 MOL1        -0.2050
       5    H1      17.887961   20.556836   22.969331 H          1 MOL1         0.0710
       6    H2      18.325727   18.974803   23.606595 H          1 MOL1         0.0710
       7    C3      19.290552   19.469595   21.707728 C.3        1 MOL1        -0.1947
       8    H3      18.464516   19.124271   21.071351 H          1 MOL1         0.0712
       9    H4      19.712527   20.360685   21.222426 H          1 MOL1         0.0712
      10    C4      20.363898   18.362866   21.793006 C.3        1 MOL1        -0.1921
      11    H5      19.944221   17.477030   22.289538 H          1 MOL1         0.0712
      12    H6      21.205535   18.705247   22.411185 H          1 MOL1         0.0712
      13    C5      20.884153   17.969741   20.396175 C.3        1 MOL1        -0.2936
      14    H7      20.069352   17.590335   19.765647 H          1 MOL1         0.0724
      15    H8      21.646231   17.183491   20.474683 H          1 MOL1         0.0724
      16    H9      21.337415   18.831776   19.889321 H          1 MOL1         0.0724
@<TRIPOS>BOND
    1     1     2    1
    2     1     3    2
    3     1     4    1
    4     4     5    1
    5     4     6    1
    6     4     7    1
    7     7     8    1
    8     7     9    1
    9     7    10    1
   10    10    11    1
   11    10    12    1
   12    10    13    1
   13    13    14    1
   14    13    15    1
   15    13    16    1
@<TRIPOS>SUBSTRUCTURE
       1 MOL1            1 RESIDUE      1      MOL     
@<SCITEGIC>MOL_PROPERTY
VConf Rank
SciTegic.value.IntegerValue
116

@<SCITEGIC>MOL_PROPERTY
Conf_Id
SciTegic.value.IntegerValue
20

@<SCITEGIC>MOL_PROPERTY
Delta U+W
SciTegic.value.DoubleValue
-0.010

@<SCITEGIC>MOL_PROPERTY
U+W
SciTegic.value.DoubleValue
-56.914

@<SCITEGIC>MOL_PROPERTY
Grad RMS
SciTegic.value.DoubleValue
0.000000

@<SCITEGIC>MOL_PROPERTY
U
SciTegic.value.DoubleValue
8.277

@<SCITEGIC>MOL_PROPERTY
W
SciTegic.value.DoubleValue
-65.191

@<SCITEGIC>MOL_PROPERTY
W(PB)
SciTegic.value.DoubleValue
-67.081

@<SCITEGIC>MOL_PROPERTY
W(SA)
SciTegic.value.DoubleValue
1.890

@<SCITEGIC>MOL_PROPERTY
Valence
SciTegic.value.DoubleValue
6.513

@<SCITEGIC>MOL_PROPERTY
Coulomb
SciTegic.value.DoubleValue
1.429

@<SCITEGIC>MOL_PROPERTY
VdW
SciTegic.value.DoubleValue
0.335

@<SCITEGIC>MOL_PROPERTY
VdW6
SciTegic.value.DoubleValue
-5.021

@<SCITEGIC>MOL_PROPERTY
VdW12
SciTegic.value.DoubleValue
5.356

@<SCITEGIC>MOL_PROPERTY
Bond
SciTegic.value.DoubleValue
0.092

@<SCITEGIC>MOL_PROPERTY
Angle
SciTegic.value.DoubleValue
2.417

@<SCITEGIC>MOL_PROPERTY
Pdih
SciTegic.value.DoubleValue
4.002

@<SCITEGIC>MOL_PROPERTY
Idih
SciTegic.value.DoubleValue
0.001

@<SCITEGIC>MOL_PROPERTY
Tether
SciTegic.value.DoubleValue
0.000

@<TRIPOS>MOLECULE
guest-s18_confgen4.mol2 : confsearch ligand conformer 117
          16          15           1
SMALL
USER_CHARGES
 
@<TRIPOS>ATOM
       1    C1      18.973026   19.991916   23.943587 C.2        1 MOL1         0.6075
       2    O1      19.576911   20.130308   24.989032 O.co2      1 MOL1        -0.6830
       3    O2      17.855912   19.519388   23.872355 O.co2      1 MOL1        -0.6830
       4    C2      19.642064   20.469206   22.657380 C.3        1 MOL1        -0.2050
       5    H1      19.990028   21.493982   22.832414 H          1 MOL1         0.0710
       6    H2      18.884158   20.529760   21.867976 H          1 MOL1         0.0710
       7    C3      20.839855   19.592256   22.200289 C.3        1 MOL1        -0.1947
       8    H3      21.307135   20.051979   21.318997 H          1 MOL1         0.0712
       9    H4      21.602676   19.597150   22.991134 H          1 MOL1         0.0712
      10    C4      20.468707   18.126264   21.873018 C.3        1 MOL1        -0.1921
      11    H5      20.031554   17.644040   22.758431 H          1 MOL1         0.0712
      12    H6      21.389322   17.572692   21.642466 H          1 MOL1         0.0712
      13    C5      19.497450   17.995959   20.680490 C.3        1 MOL1        -0.2936
      14    H7      18.517413   18.430124   20.916108 H          1 MOL1         0.0724
      15    H8      19.339893   16.939455   20.427834 H          1 MOL1         0.0724
      16    H9      19.895493   18.501272   19.790947 H          1 MOL1         0.0724
@<TRIPOS>BOND
    1     1     2    1
    2     1     3    2
    3     1     4    1
    4     4     5    1
    5     4     6    1
    6     4     7    1
    7     7     8    1
    8     7     9    1
    9     7    10    1
   10    10    11    1
   11    10    12    1
   12    10    13    1
   13    13    14    1
   14    13    15    1
   15    13    16    1
@<TRIPOS>SUBSTRUCTURE
       1 MOL1            1 RESIDUE      1      MOL     
@<SCITEGIC>MOL_PROPERTY
VConf Rank
SciTegic.value.IntegerValue
117

@<SCITEGIC>MOL_PROPERTY
Conf_Id
SciTegic.value.IntegerValue
37

@<SCITEGIC>MOL_PROPERTY
Delta U+W
SciTegic.value.DoubleValue
1.063

@<SCITEGIC>MOL_PROPERTY
U+W
SciTegic.value.DoubleValue
-55.841

@<SCITEGIC>MOL_PROPERTY
Grad RMS
SciTegic.value.DoubleValue
0.000000

@<SCITEGIC>MOL_PROPERTY
U
SciTegic.value.DoubleValue
9.719

@<SCITEGIC>MOL_PROPERTY
W
SciTegic.value.DoubleValue
-65.560

@<SCITEGIC>MOL_PROPERTY
W(PB)
SciTegic.value.DoubleValue
-67.414

@<SCITEGIC>MOL_PROPERTY
W(SA)
SciTegic.value.DoubleValue
1.854

@<SCITEGIC>MOL_PROPERTY
Valence
SciTegic.value.DoubleValue
7.002

@<SCITEGIC>MOL_PROPERTY
Coulomb
SciTegic.value.DoubleValue
2.402

@<SCITEGIC>MOL_PROPERTY
VdW
SciTegic.value.DoubleValue
0.314

@<SCITEGIC>MOL_PROPERTY
VdW6
SciTegic.value.DoubleValue
-5.861

@<SCITEGIC>MOL_PROPERTY
VdW12
SciTegic.value.DoubleValue
6.175

@<SCITEGIC>MOL_PROPERTY
Bond
SciTegic.value.DoubleValue
0.134

@<SCITEGIC>MOL_PROPERTY
Angle
SciTegic.value.DoubleValue
2.733

@<SCITEGIC>MOL_PROPERTY
Pdih
SciTegic.value.DoubleValue
4.133

@<SCITEGIC>MOL_PROPERTY
Idih
SciTegic.value.DoubleValue
0.002

@<SCITEGIC>MOL_PROPERTY
Tether
SciTegic.value.DoubleValue
0.000

@<TRIPOS>MOLECULE
guest-s18_confgen4.mol2 : confsearch ligand conformer 118
          16          15           1
SMALL
USER_CHARGES
 
@<TRIPOS>ATOM
       1    C1      21.728730   20.428546   21.529726 C.2        1 MOL1         0.6075
       2    O1      22.861204   20.037923   21.325514 O.co2      1 MOL1        -0.6830
       3    O2      21.125825   21.162038   20.771573 O.co2      1 MOL1        -0.6830
       4    C2      21.042686   20.001578   22.824634 C.3        1 MOL1        -0.2050
       5    H1      20.166444   20.639935   22.985722 H          1 MOL1         0.0710
       6    H2      21.736677   20.214500   23.646170 H          1 MOL1         0.0710
       7    C3      20.642476   18.501356   22.867576 C.3        1 MOL1        -0.1947
       8    H3      21.549500   17.891014   22.757372 H          1 MOL1         0.0712
       9    H4      20.231871   18.266401   23.858823 H          1 MOL1         0.0712
      10    C4      19.622936   18.081928   21.781937 C.3        1 MOL1        -0.1921
      11    H5      19.469658   16.995707   21.843249 H          1 MOL1         0.0712
      12    H6      20.036594   18.279865   20.783285 H          1 MOL1         0.0712
      13    C5      18.257035   18.786404   21.925008 C.3        1 MOL1        -0.2936
      14    H7      17.837829   18.633474   22.927976 H          1 MOL1         0.0724
      15    H8      17.541445   18.387671   21.194390 H          1 MOL1         0.0724
      16    H9      18.345389   19.865809   21.747343 H          1 MOL1         0.0724
@<TRIPOS>BOND
    1     1     2    1
    2     1     3    2
    3     1     4    1
    4     4     5    1
    5     4     6    1
    6     4     7    1
    7     7     8    1
    8     7     9    1
    9     7    10    1
   10    10    11    1
   11    10    12    1
   12    10    13    1
   13    13    14    1
   14    13    15    1
   15    13    16    1
@<TRIPOS>SUBSTRUCTURE
       1 MOL1            1 RESIDUE      1      MOL     
@<SCITEGIC>MOL_PROPERTY
VConf Rank
SciTegic.value.IntegerValue
118

@<SCITEGIC>MOL_PROPERTY
Conf_Id
SciTegic.value.IntegerValue
39

@<SCITEGIC>MOL_PROPERTY
Delta U+W
SciTegic.value.DoubleValue
1.129

@<SCITEGIC>MOL_PROPERTY
U+W
SciTegic.value.DoubleValue
-55.775

@<SCITEGIC>MOL_PROPERTY
Grad RMS
SciTegic.value.DoubleValue
0.000000

@<SCITEGIC>MOL_PROPERTY
U
SciTegic.value.DoubleValue
9.718

@<SCITEGIC>MOL_PROPERTY
W
SciTegic.value.DoubleValue
-65.493

@<SCITEGIC>MOL_PROPERTY
W(PB)
SciTegic.value.DoubleValue
-67.361

@<SCITEGIC>MOL_PROPERTY
W(SA)
SciTegic.value.DoubleValue
1.869

@<SCITEGIC>MOL_PROPERTY
Valence
SciTegic.value.DoubleValue
7.002

@<SCITEGIC>MOL_PROPERTY
Coulomb
SciTegic.value.DoubleValue
2.402

@<SCITEGIC>MOL_PROPERTY
VdW
SciTegic.value.DoubleValue
0.314

@<SCITEGIC>MOL_PROPERTY
VdW6
SciTegic.value.DoubleValue
-5.861

@<SCITEGIC>MOL_PROPERTY
VdW12
SciTegic.value.DoubleValue
6.175

@<SCITEGIC>MOL_PROPERTY
Bond
SciTegic.value.DoubleValue
0.134

@<SCITEGIC>MOL_PROPERTY
Angle
SciTegic.value.DoubleValue
2.734

@<SCITEGIC>MOL_PROPERTY
Pdih
SciTegic.value.DoubleValue
4.133

@<SCITEGIC>MOL_PROPERTY
Idih
SciTegic.value.DoubleValue
0.002

@<SCITEGIC>MOL_PROPERTY
Tether
SciTegic.value.DoubleValue
0.000

@<TRIPOS>MOLECULE
guest-s18_confgen4.mol2 : confsearch ligand conformer 119
          16          15           1
SMALL
USER_CHARGES
 
@<TRIPOS>ATOM
       1    C1      20.077421   17.166931   22.806568 C.2        1 MOL1         0.6075
       2    O1      20.671609   16.526541   21.961783 O.co2      1 MOL1        -0.6830
       3    O2      19.030790   16.804520   23.306948 O.co2      1 MOL1        -0.6830
       4    C2      20.726249   18.447255   23.329491 C.3        1 MOL1        -0.2050
       5    H1      21.694628   18.584969   22.833250 H          1 MOL1         0.0710
       6    H2      20.939965   18.273984   24.390647 H          1 MOL1         0.0710
       7    C3      19.863688   19.733347   23.191875 C.3        1 MOL1        -0.1947
       8    H3      18.830642   19.526635   23.504329 H          1 MOL1         0.0712
       9    H4      20.250711   20.478427   23.900056 H          1 MOL1         0.0712
      10    C4      19.874693   20.372036   21.782081 C.3        1 MOL1        -0.1921
      11    H5      20.909179   20.575300   21.472640 H          1 MOL1         0.0712
      12    H6      19.372461   21.347653   21.838898 H          1 MOL1         0.0712
      13    C5      19.168823   19.520964   20.706112 C.3        1 MOL1        -0.2936
      14    H7      19.728780   18.602345   20.492604 H          1 MOL1         0.0724
      15    H8      19.085287   20.082177   19.766521 H          1 MOL1         0.0724
      16    H9      18.156364   19.241734   21.025937 H          1 MOL1         0.0724
@<TRIPOS>BOND
    1     1     2    1
    2     1     3    2
    3     1     4    1
    4     4     5    1
    5     4     6    1
    6     4     7    1
    7     7     8    1
    8     7     9    1
    9     7    10    1
   10    10    11    1
   11    10    12    1
   12    10    13    1
   13    13    14    1
   14    13    15    1
   15    13    16    1
@<TRIPOS>SUBSTRUCTURE
       1 MOL1            1 RESIDUE      1      MOL     
@<SCITEGIC>MOL_PROPERTY
VConf Rank
SciTegic.value.IntegerValue
119

@<SCITEGIC>MOL_PROPERTY
Conf_Id
SciTegic.value.IntegerValue
47

@<SCITEGIC>MOL_PROPERTY
Delta U+W
SciTegic.value.DoubleValue
2.301

@<SCITEGIC>MOL_PROPERTY
U+W
SciTegic.value.DoubleValue
-54.603

@<SCITEGIC>MOL_PROPERTY
Grad RMS
SciTegic.value.DoubleValue
0.000000

@<SCITEGIC>MOL_PROPERTY
U
SciTegic.value.DoubleValue
11.258

@<SCITEGIC>MOL_PROPERTY
W
SciTegic.value.DoubleValue
-65.861

@<SCITEGIC>MOL_PROPERTY
W(PB)
SciTegic.value.DoubleValue
-67.702

@<SCITEGIC>MOL_PROPERTY
W(SA)
SciTegic.value.DoubleValue
1.841

@<SCITEGIC>MOL_PROPERTY
Valence
SciTegic.value.DoubleValue
8.169

@<SCITEGIC>MOL_PROPERTY
Coulomb
SciTegic.value.DoubleValue
2.735

@<SCITEGIC>MOL_PROPERTY
VdW
SciTegic.value.DoubleValue
0.355

@<SCITEGIC>MOL_PROPERTY
VdW6
SciTegic.value.DoubleValue
-6.245

@<SCITEGIC>MOL_PROPERTY
VdW12
SciTegic.value.DoubleValue
6.600

@<SCITEGIC>MOL_PROPERTY
Bond
SciTegic.value.DoubleValue
0.149

@<SCITEGIC>MOL_PROPERTY
Angle
SciTegic.value.DoubleValue
3.168

@<SCITEGIC>MOL_PROPERTY
Pdih
SciTegic.value.DoubleValue
4.840

@<SCITEGIC>MOL_PROPERTY
Idih
SciTegic.value.DoubleValue
0.011

@<SCITEGIC>MOL_PROPERTY
Tether
SciTegic.value.DoubleValue
0.000

@<TRIPOS>MOLECULE
guest-s18_confgen4.mol2 : confsearch ligand conformer 120
          16          15           1
SMALL
USER_CHARGES
 
@<TRIPOS>ATOM
       1    C1      20.152177   20.714408   21.107511 C.2        1 MOL1         0.6075
       2    O1      20.352211   20.340407   19.968534 O.co2      1 MOL1        -0.6830
       3    O2      20.835707   21.549125   21.666843 O.co2      1 MOL1        -0.6830
       4    C2      18.926503   20.175461   21.842988 C.3        1 MOL1        -0.2050
       5    H1      18.053165   20.491932   21.260858 H          1 MOL1         0.0710
       6    H2      18.849186   20.670969   22.818423 H          1 MOL1         0.0710
       7    C3      18.883022   18.631420   22.019156 C.3        1 MOL1        -0.1947
       8    H3      17.841433   18.341567   22.212885 H          1 MOL1         0.0712
       9    H4      19.164250   18.139038   21.077874 H          1 MOL1         0.0712
      10    C4      19.748030   18.088241   23.182030 C.3        1 MOL1        -0.1921
      11    H5      19.519881   17.021777   23.315803 H          1 MOL1         0.0712
      12    H6      19.465098   18.584232   24.120739 H          1 MOL1         0.0712
      13    C5      21.266363   18.238170   22.952959 C.3        1 MOL1        -0.2936
      14    H7      21.826650   17.714049   23.737907 H          1 MOL1         0.0724
      15    H8      21.571922   19.291282   22.977224 H          1 MOL1         0.0724
      16    H9      21.562558   17.814938   21.984211 H          1 MOL1         0.0724
@<TRIPOS>BOND
    1     1     2    1
    2     1     3    2
    3     1     4    1
    4     4     5    1
    5     4     6    1
    6     4     7    1
    7     7     8    1
    8     7     9    1
    9     7    10    1
   10    10    11    1
   11    10    12    1
   12    10    13    1
   13    13    14    1
   14    13    15    1
   15    13    16    1
@<TRIPOS>SUBSTRUCTURE
       1 MOL1            1 RESIDUE      1      MOL     
@<SCITEGIC>MOL_PROPERTY
VConf Rank
SciTegic.value.IntegerValue
120

@<SCITEGIC>MOL_PROPERTY
Conf_Id
SciTegic.value.IntegerValue
45

@<SCITEGIC>MOL_PROPERTY
Delta U+W
SciTegic.value.DoubleValue
2.303

@<SCITEGIC>MOL_PROPERTY
U+W
SciTegic.value.DoubleValue
-54.601

@<SCITEGIC>MOL_PROPERTY
Grad RMS
SciTegic.value.DoubleValue
0.000000

@<SCITEGIC>MOL_PROPERTY
U
SciTegic.value.DoubleValue
11.258

@<SCITEGIC>MOL_PROPERTY
W
SciTegic.value.DoubleValue
-65.860

@<SCITEGIC>MOL_PROPERTY
W(PB)
SciTegic.value.DoubleValue
-67.709

@<SCITEGIC>MOL_PROPERTY
W(SA)
SciTegic.value.DoubleValue
1.849

@<SCITEGIC>MOL_PROPERTY
Valence
SciTegic.value.DoubleValue
8.169

@<SCITEGIC>MOL_PROPERTY
Coulomb
SciTegic.value.DoubleValue
2.735

@<SCITEGIC>MOL_PROPERTY
VdW
SciTegic.value.DoubleValue
0.355

@<SCITEGIC>MOL_PROPERTY
VdW6
SciTegic.value.DoubleValue
-6.245

@<SCITEGIC>MOL_PROPERTY
VdW12
SciTegic.value.DoubleValue
6.600

@<SCITEGIC>MOL_PROPERTY
Bond
SciTegic.value.DoubleValue
0.149

@<SCITEGIC>MOL_PROPERTY
Angle
SciTegic.value.DoubleValue
3.168

@<SCITEGIC>MOL_PROPERTY
Pdih
SciTegic.value.DoubleValue
4.840

@<SCITEGIC>MOL_PROPERTY
Idih
SciTegic.value.DoubleValue
0.011

@<SCITEGIC>MOL_PROPERTY
Tether
SciTegic.value.DoubleValue
0.000

@<TRIPOS>MOLECULE
guest-s18_confgen4.mol2 : confsearch ligand conformer 121
          16          15           1
SMALL
USER_CHARGES
 
@<TRIPOS>ATOM
       1    C1      22.568167   18.144143   21.695326 C.2        1 MOL1         0.6075
       2    O1      22.503667   17.992053   20.490965 O.co2      1 MOL1        -0.6830
       3    O2      23.558731   17.874998   22.344677 O.co2      1 MOL1        -0.6830
       4    C2      21.362864   18.697812   22.457290 C.3        1 MOL1        -0.2050
       5    H1      21.694895   19.600618   22.983462 H          1 MOL1         0.0710
       6    H2      21.093333   17.961066   23.223268 H          1 MOL1         0.0710
       7    C3      20.120882   19.026155   21.586647 C.3        1 MOL1        -0.1947
       8    H3      20.398363   19.760531   20.817774 H          1 MOL1         0.0712
       9    H4      19.796177   18.119290   21.057844 H          1 MOL1         0.0712
      10    C4      18.955621   19.577753   22.434683 C.3        1 MOL1        -0.1921
      11    H5      19.278508   20.485740   22.962701 H          1 MOL1         0.0712
      12    H6      18.675952   18.843523   23.202922 H          1 MOL1         0.0712
      13    C5      17.725236   19.901917   21.564504 C.3        1 MOL1        -0.2936
      14    H7      17.968548   20.657982   20.806458 H          1 MOL1         0.0724
      15    H8      16.906442   20.292752   22.182539 H          1 MOL1         0.0724
      16    H9      17.361542   19.003651   21.048448 H          1 MOL1         0.0724
@<TRIPOS>BOND
    1     1     2    1
    2     1     3    2
    3     1     4    1
    4     4     5    1
    5     4     6    1
    6     4     7    1
    7     7     8    1
    8     7     9    1
    9     7    10    1
   10    10    11    1
   11    10    12    1
   12    10    13    1
   13    13    14    1
   14    13    15    1
   15    13    16    1
@<TRIPOS>SUBSTRUCTURE
       1 MOL1            1 RESIDUE      1      MOL     
@<SCITEGIC>MOL_PROPERTY
VConf Rank
SciTegic.value.IntegerValue
121

@<SCITEGIC>MOL_PROPERTY
Conf_Id
SciTegic.value.IntegerValue
0

@<SCITEGIC>MOL_PROPERTY
Delta U+W
SciTegic.value.DoubleValue
0.000

@<SCITEGIC>MOL_PROPERTY
U+W
SciTegic.value.DoubleValue
-56.904

@<SCITEGIC>MOL_PROPERTY
Grad RMS
SciTegic.value.DoubleValue
0.000000

@<SCITEGIC>MOL_PROPERTY
U
SciTegic.value.DoubleValue
7.329

@<SCITEGIC>MOL_PROPERTY
W
SciTegic.value.DoubleValue
-64.233

@<SCITEGIC>MOL_PROPERTY
W(PB)
SciTegic.value.DoubleValue
-66.148

@<SCITEGIC>MOL_PROPERTY
W(SA)
SciTegic.value.DoubleValue
1.915

@<SCITEGIC>MOL_PROPERTY
Valence
SciTegic.value.DoubleValue
6.755

@<SCITEGIC>MOL_PROPERTY
Coulomb
SciTegic.value.DoubleValue
-0.421

@<SCITEGIC>MOL_PROPERTY
VdW
SciTegic.value.DoubleValue
0.995

@<SCITEGIC>MOL_PROPERTY
VdW6
SciTegic.value.DoubleValue
-4.495

@<SCITEGIC>MOL_PROPERTY
VdW12
SciTegic.value.DoubleValue
5.490

@<SCITEGIC>MOL_PROPERTY
Bond
SciTegic.value.DoubleValue
0.106

@<SCITEGIC>MOL_PROPERTY
Angle
SciTegic.value.DoubleValue
2.715

@<SCITEGIC>MOL_PROPERTY
Pdih
SciTegic.value.DoubleValue
3.934

@<SCITEGIC>MOL_PROPERTY
Idih
SciTegic.value.DoubleValue
0.000

@<SCITEGIC>MOL_PROPERTY
Tether
SciTegic.value.DoubleValue
0.000

@<TRIPOS>MOLECULE
guest-s18_confgen4.mol2 : confsearch ligand conformer 122
          16          15           1
SMALL
USER_CHARGES
 
@<TRIPOS>ATOM
       1    C1      20.835381   16.619334   22.692831 C.2        1 MOL1         0.6075
       2    O1      20.675043   16.365637   23.870019 O.co2      1 MOL1        -0.6830
       3    O2      20.785425   15.783677   21.812476 O.co2      1 MOL1        -0.6830
       4    C2      21.095511   18.068524   22.296898 C.3        1 MOL1        -0.2050
       5    H1      21.744898   18.069307   21.413073 H          1 MOL1         0.0710
       6    H2      21.653774   18.549129   23.109432 H          1 MOL1         0.0710
       7    C3      19.794732   18.856168   22.004233 C.3        1 MOL1        -0.1947
       8    H3      19.241163   18.355950   21.197453 H          1 MOL1         0.0712
       9    H4      19.149997   18.835738   22.893869 H          1 MOL1         0.0712
      10    C4      20.085936   20.318180   21.606386 C.3        1 MOL1        -0.1921
      11    H5      20.730104   20.339035   20.716358 H          1 MOL1         0.0712
      12    H6      20.638952   20.818940   22.413201 H          1 MOL1         0.0712
      13    C5      18.786962   21.095884   21.316655 C.3        1 MOL1        -0.2936
      14    H7      18.136702   21.117789   22.201049 H          1 MOL1         0.0724
      15    H8      18.228516   20.634324   20.491688 H          1 MOL1         0.0724
      16    H9      19.011646   22.132978   21.035402 H          1 MOL1         0.0724
@<TRIPOS>BOND
    1     1     2    1
    2     1     3    2
    3     1     4    1
    4     4     5    1
    5     4     6    1
    6     4     7    1
    7     7     8    1
    8     7     9    1
    9     7    10    1
   10    10    11    1
   11    10    12    1
   12    10    13    1
   13    13    14    1
   14    13    15    1
   15    13    16    1
@<TRIPOS>SUBSTRUCTURE
       1 MOL1            1 RESIDUE      1      MOL     
@<SCITEGIC>MOL_PROPERTY
VConf Rank
SciTegic.value.IntegerValue
122

@<SCITEGIC>MOL_PROPERTY
Conf_Id
SciTegic.value.IntegerValue
22

@<SCITEGIC>MOL_PROPERTY
Delta U+W
SciTegic.value.DoubleValue
-1.185

@<SCITEGIC>MOL_PROPERTY
U+W
SciTegic.value.DoubleValue
-58.089

@<SCITEGIC>MOL_PROPERTY
Grad RMS
SciTegic.value.DoubleValue
0.000000

@<SCITEGIC>MOL_PROPERTY
U
SciTegic.value.DoubleValue
6.298

@<SCITEGIC>MOL_PROPERTY
W
SciTegic.value.DoubleValue
-64.387

@<SCITEGIC>MOL_PROPERTY
W(PB)
SciTegic.value.DoubleValue
-66.329

@<SCITEGIC>MOL_PROPERTY
W(SA)
SciTegic.value.DoubleValue
1.942

@<SCITEGIC>MOL_PROPERTY
Valence
SciTegic.value.DoubleValue
6.246

@<SCITEGIC>MOL_PROPERTY
Coulomb
SciTegic.value.DoubleValue
-0.408

@<SCITEGIC>MOL_PROPERTY
VdW
SciTegic.value.DoubleValue
0.460

@<SCITEGIC>MOL_PROPERTY
VdW6
SciTegic.value.DoubleValue
-4.207

@<SCITEGIC>MOL_PROPERTY
VdW12
SciTegic.value.DoubleValue
4.667

@<SCITEGIC>MOL_PROPERTY
Bond
SciTegic.value.DoubleValue
0.072

@<SCITEGIC>MOL_PROPERTY
Angle
SciTegic.value.DoubleValue
2.246

@<SCITEGIC>MOL_PROPERTY
Pdih
SciTegic.value.DoubleValue
3.928

@<SCITEGIC>MOL_PROPERTY
Idih
SciTegic.value.DoubleValue
0.001

@<SCITEGIC>MOL_PROPERTY
Tether
SciTegic.value.DoubleValue
0.000

@<TRIPOS>MOLECULE
guest-s18_confgen4.mol2 : confsearch ligand conformer 123
          16          15           1
SMALL
USER_CHARGES
 
@<TRIPOS>ATOM
       1    C1      20.935135   16.760073   22.246317 C.2        1 MOL1         0.6075
       2    O1      21.662759   16.450132   23.168540 O.co2      1 MOL1        -0.6830
       3    O2      20.882769   16.148939   21.197637 O.co2      1 MOL1        -0.6830
       4    C2      20.054948   17.994644   22.406558 C.3        1 MOL1        -0.2050
       5    H1      19.778001   18.080436   23.464152 H          1 MOL1         0.0710
       6    H2      19.131691   17.822718   21.841620 H          1 MOL1         0.0710
       7    C3      20.751485   19.295505   21.929492 C.3        1 MOL1        -0.1947
       8    H3      21.713481   19.392889   22.451516 H          1 MOL1         0.0712
       9    H4      20.985692   19.214512   20.859027 H          1 MOL1         0.0712
      10    C4      19.915797   20.570713   22.186159 C.3        1 MOL1        -0.1921
      11    H5      20.521509   21.448841   21.922885 H          1 MOL1         0.0712
      12    H6      19.691468   20.658124   23.258267 H          1 MOL1         0.0712
      13    C5      18.602417   20.611016   21.376008 C.3        1 MOL1        -0.2936
      14    H7      17.914710   19.814849   21.687391 H          1 MOL1         0.0724
      15    H8      18.799533   20.496187   20.302132 H          1 MOL1         0.0724
      16    H9      18.089322   21.569995   21.524667 H          1 MOL1         0.0724
@<TRIPOS>BOND
    1     1     2    1
    2     1     3    2
    3     1     4    1
    4     4     5    1
    5     4     6    1
    6     4     7    1
    7     7     8    1
    8     7     9    1
    9     7    10    1
   10    10    11    1
   11    10    12    1
   12    10    13    1
   13    13    14    1
   14    13    15    1
   15    13    16    1
@<TRIPOS>SUBSTRUCTURE
       1 MOL1            1 RESIDUE      1      MOL     
@<SCITEGIC>MOL_PROPERTY
VConf Rank
SciTegic.value.IntegerValue
123

@<SCITEGIC>MOL_PROPERTY
Conf_Id
SciTegic.value.IntegerValue
36

@<SCITEGIC>MOL_PROPERTY
Delta U+W
SciTegic.value.DoubleValue
-0.427

@<SCITEGIC>MOL_PROPERTY
U+W
SciTegic.value.DoubleValue
-57.331

@<SCITEGIC>MOL_PROPERTY
Grad RMS
SciTegic.value.DoubleValue
0.000000

@<SCITEGIC>MOL_PROPERTY
U
SciTegic.value.DoubleValue
7.263

@<SCITEGIC>MOL_PROPERTY
W
SciTegic.value.DoubleValue
-64.594

@<SCITEGIC>MOL_PROPERTY
W(PB)
SciTegic.value.DoubleValue
-66.513

@<SCITEGIC>MOL_PROPERTY
W(SA)
SciTegic.value.DoubleValue
1.920

@<SCITEGIC>MOL_PROPERTY
Valence
SciTegic.value.DoubleValue
6.734

@<SCITEGIC>MOL_PROPERTY
Coulomb
SciTegic.value.DoubleValue
-0.068

@<SCITEGIC>MOL_PROPERTY
VdW
SciTegic.value.DoubleValue
0.598

@<SCITEGIC>MOL_PROPERTY
VdW6
SciTegic.value.DoubleValue
-4.819

@<SCITEGIC>MOL_PROPERTY
VdW12
SciTegic.value.DoubleValue
5.417

@<SCITEGIC>MOL_PROPERTY
Bond
SciTegic.value.DoubleValue
0.107

@<SCITEGIC>MOL_PROPERTY
Angle
SciTegic.value.DoubleValue
2.469

@<SCITEGIC>MOL_PROPERTY
Pdih
SciTegic.value.DoubleValue
4.157

@<SCITEGIC>MOL_PROPERTY
Idih
SciTegic.value.DoubleValue
0.001

@<SCITEGIC>MOL_PROPERTY
Tether
SciTegic.value.DoubleValue
0.000

@<TRIPOS>MOLECULE
guest-s18_confgen4.mol2 : confsearch ligand conformer 124
          16          15           1
SMALL
USER_CHARGES
 
@<TRIPOS>ATOM
       1    C1      20.903614   17.059741   20.771591 C.2        1 MOL1         0.6075
       2    O1      20.037318   16.496524   20.132628 O.co2      1 MOL1        -0.6830
       3    O2      21.948161   16.531824   21.097505 O.co2      1 MOL1        -0.6830
       4    C2      20.658525   18.500683   21.205403 C.3        1 MOL1        -0.2050
       5    H1      20.054767   18.985355   20.429719 H          1 MOL1         0.0710
       6    H2      21.625716   19.016681   21.234626 H          1 MOL1         0.0710
       7    C3      19.957012   18.602135   22.584744 C.3        1 MOL1        -0.1947
       8    H3      18.971496   18.119228   22.531167 H          1 MOL1         0.0712
       9    H4      20.541911   18.033726   23.321109 H          1 MOL1         0.0712
      10    C4      19.799881   20.054927   23.089831 C.3        1 MOL1        -0.1921
      11    H5      20.786497   20.534263   23.154672 H          1 MOL1         0.0712
      12    H6      19.397882   20.031874   24.112168 H          1 MOL1         0.0712
      13    C5      18.865013   20.908632   22.206575 C.3        1 MOL1        -0.2936
      14    H7      19.284211   21.054484   21.203189 H          1 MOL1         0.0724
      15    H8      18.716902   21.900908   22.652061 H          1 MOL1         0.0724
      16    H9      17.880384   20.434154   22.103493 H          1 MOL1         0.0724
@<TRIPOS>BOND
    1     1     2    1
    2     1     3    2
    3     1     4    1
    4     4     5    1
    5     4     6    1
    6     4     7    1
    7     7     8    1
    8     7     9    1
    9     7    10    1
   10    10    11    1
   11    10    12    1
   12    10    13    1
   13    13    14    1
   14    13    15    1
   15    13    16    1
@<TRIPOS>SUBSTRUCTURE
       1 MOL1            1 RESIDUE      1      MOL     
@<SCITEGIC>MOL_PROPERTY
VConf Rank
SciTegic.value.IntegerValue
124

@<SCITEGIC>MOL_PROPERTY
Conf_Id
SciTegic.value.IntegerValue
17

@<SCITEGIC>MOL_PROPERTY
Delta U+W
SciTegic.value.DoubleValue
-0.432

@<SCITEGIC>MOL_PROPERTY
U+W
SciTegic.value.DoubleValue
-57.336

@<SCITEGIC>MOL_PROPERTY
Grad RMS
SciTegic.value.DoubleValue
0.000000

@<SCITEGIC>MOL_PROPERTY
U
SciTegic.value.DoubleValue
7.263

@<SCITEGIC>MOL_PROPERTY
W
SciTegic.value.DoubleValue
-64.599

@<SCITEGIC>MOL_PROPERTY
W(PB)
SciTegic.value.DoubleValue
-66.503

@<SCITEGIC>MOL_PROPERTY
W(SA)
SciTegic.value.DoubleValue
1.904

@<SCITEGIC>MOL_PROPERTY
Valence
SciTegic.value.DoubleValue
6.734

@<SCITEGIC>MOL_PROPERTY
Coulomb
SciTegic.value.DoubleValue
-0.068

@<SCITEGIC>MOL_PROPERTY
VdW
SciTegic.value.DoubleValue
0.598

@<SCITEGIC>MOL_PROPERTY
VdW6
SciTegic.value.DoubleValue
-4.819

@<SCITEGIC>MOL_PROPERTY
VdW12
SciTegic.value.DoubleValue
5.417

@<SCITEGIC>MOL_PROPERTY
Bond
SciTegic.value.DoubleValue
0.107

@<SCITEGIC>MOL_PROPERTY
Angle
SciTegic.value.DoubleValue
2.469

@<SCITEGIC>MOL_PROPERTY
Pdih
SciTegic.value.DoubleValue
4.157

@<SCITEGIC>MOL_PROPERTY
Idih
SciTegic.value.DoubleValue
0.001

@<SCITEGIC>MOL_PROPERTY
Tether
SciTegic.value.DoubleValue
0.000

@<TRIPOS>MOLECULE
guest-s18_confgen4.mol2 : confsearch ligand conformer 125
          16          15           1
SMALL
USER_CHARGES
 
@<TRIPOS>ATOM
       1    C1      21.030074   17.018946   22.661529 C.2        1 MOL1         0.6075
       2    O1      20.683069   16.623640   23.756821 O.co2      1 MOL1        -0.6830
       3    O2      20.976123   16.340406   21.655083 O.co2      1 MOL1        -0.6830
       4    C2      21.585700   18.436148   22.550573 C.3        1 MOL1        -0.2050
       5    H1      22.159724   18.515753   21.619314 H          1 MOL1         0.0710
       6    H2      22.296390   18.575419   23.373833 H          1 MOL1         0.0710
       7    C3      20.503682   19.545621   22.608382 C.3        1 MOL1        -0.1947
       8    H3      19.918615   19.435937   23.532119 H          1 MOL1         0.0712
       9    H4      20.999335   20.524380   22.662400 H          1 MOL1         0.0712
      10    C4      19.560716   19.519776   21.385954 C.3        1 MOL1        -0.1921
      11    H5      19.043378   18.551624   21.333346 H          1 MOL1         0.0712
      12    H6      20.148268   19.617051   20.462538 H          1 MOL1         0.0712
      13    C5      18.517174   20.652490   21.451694 C.3        1 MOL1        -0.2936
      14    H7      17.894758   20.560892   22.351505 H          1 MOL1         0.0724
      15    H8      17.855030   20.619336   20.576718 H          1 MOL1         0.0724
      16    H9      19.005065   21.635863   21.470530 H          1 MOL1         0.0724
@<TRIPOS>BOND
    1     1     2    1
    2     1     3    2
    3     1     4    1
    4     4     5    1
    5     4     6    1
    6     4     7    1
    7     7     8    1
    8     7     9    1
    9     7    10    1
   10    10    11    1
   11    10    12    1
   12    10    13    1
   13    13    14    1
   14    13    15    1
   15    13    16    1
@<TRIPOS>SUBSTRUCTURE
       1 MOL1            1 RESIDUE      1      MOL     
@<SCITEGIC>MOL_PROPERTY
VConf Rank
SciTegic.value.IntegerValue
125

@<SCITEGIC>MOL_PROPERTY
Conf_Id
SciTegic.value.IntegerValue
19

@<SCITEGIC>MOL_PROPERTY
Delta U+W
SciTegic.value.DoubleValue
0.048

@<SCITEGIC>MOL_PROPERTY
U+W
SciTegic.value.DoubleValue
-56.856

@<SCITEGIC>MOL_PROPERTY
Grad RMS
SciTegic.value.DoubleValue
0.000000

@<SCITEGIC>MOL_PROPERTY
U
SciTegic.value.DoubleValue
8.276

@<SCITEGIC>MOL_PROPERTY
W
SciTegic.value.DoubleValue
-65.132

@<SCITEGIC>MOL_PROPERTY
W(PB)
SciTegic.value.DoubleValue
-67.031

@<SCITEGIC>MOL_PROPERTY
W(SA)
SciTegic.value.DoubleValue
1.899

@<SCITEGIC>MOL_PROPERTY
Valence
SciTegic.value.DoubleValue
6.513

@<SCITEGIC>MOL_PROPERTY
Coulomb
SciTegic.value.DoubleValue
1.428

@<SCITEGIC>MOL_PROPERTY
VdW
SciTegic.value.DoubleValue
0.335

@<SCITEGIC>MOL_PROPERTY
VdW6
SciTegic.value.DoubleValue
-5.021

@<SCITEGIC>MOL_PROPERTY
VdW12
SciTegic.value.DoubleValue
5.356

@<SCITEGIC>MOL_PROPERTY
Bond
SciTegic.value.DoubleValue
0.092

@<SCITEGIC>MOL_PROPERTY
Angle
SciTegic.value.DoubleValue
2.417

@<SCITEGIC>MOL_PROPERTY
Pdih
SciTegic.value.DoubleValue
4.003

@<SCITEGIC>MOL_PROPERTY
Idih
SciTegic.value.DoubleValue
0.001

@<SCITEGIC>MOL_PROPERTY
Tether
SciTegic.value.DoubleValue
0.000

@<TRIPOS>MOLECULE
guest-s18_confgen4.mol2 : confsearch ligand conformer 126
          16          15           1
SMALL
USER_CHARGES
 
@<TRIPOS>ATOM
       1    C1      20.051105   19.329557   19.735897 C.2        1 MOL1         0.6075
       2    O1      20.840583   18.542125   19.253178 O.co2      1 MOL1        -0.6830
       3    O2      20.041845   20.516071   19.474441 O.co2      1 MOL1        -0.6830
       4    C2      19.000608   18.793188   20.704537 C.3        1 MOL1        -0.2050
       5    H1      18.580986   17.881978   20.261989 H          1 MOL1         0.0710
       6    H2      18.181510   19.519659   20.770903 H          1 MOL1         0.0710
       7    C3      19.549460   18.475223   22.119706 C.3        1 MOL1        -0.1947
       8    H3      18.766366   17.968956   22.700237 H          1 MOL1         0.0712
       9    H4      20.387111   17.768948   22.035214 H          1 MOL1         0.0712
      10    C4      20.006691   19.740495   22.877477 C.3        1 MOL1        -0.1921
      11    H5      19.171604   20.450918   22.950341 H          1 MOL1         0.0712
      12    H6      20.805188   20.244708   22.315432 H          1 MOL1         0.0712
      13    C5      20.515714   19.400314   24.292229 C.3        1 MOL1        -0.2936
      14    H7      19.726846   18.925420   24.890208 H          1 MOL1         0.0724
      15    H8      20.837333   20.309678   24.816380 H          1 MOL1         0.0724
      16    H9      21.371848   18.714439   24.246850 H          1 MOL1         0.0724
@<TRIPOS>BOND
    1     1     2    1
    2     1     3    2
    3     1     4    1
    4     4     5    1
    5     4     6    1
    6     4     7    1
    7     7     8    1
    8     7     9    1
    9     7    10    1
   10    10    11    1
   11    10    12    1
   12    10    13    1
   13    13    14    1
   14    13    15    1
   15    13    16    1
@<TRIPOS>SUBSTRUCTURE
       1 MOL1            1 RESIDUE      1      MOL     
@<SCITEGIC>MOL_PROPERTY
VConf Rank
SciTegic.value.IntegerValue
126

@<SCITEGIC>MOL_PROPERTY
Conf_Id
SciTegic.value.IntegerValue
20

@<SCITEGIC>MOL_PROPERTY
Delta U+W
SciTegic.value.DoubleValue
-0.010

@<SCITEGIC>MOL_PROPERTY
U+W
SciTegic.value.DoubleValue
-56.914

@<SCITEGIC>MOL_PROPERTY
Grad RMS
SciTegic.value.DoubleValue
0.000000

@<SCITEGIC>MOL_PROPERTY
U
SciTegic.value.DoubleValue
8.277

@<SCITEGIC>MOL_PROPERTY
W
SciTegic.value.DoubleValue
-65.191

@<SCITEGIC>MOL_PROPERTY
W(PB)
SciTegic.value.DoubleValue
-67.081

@<SCITEGIC>MOL_PROPERTY
W(SA)
SciTegic.value.DoubleValue
1.890

@<SCITEGIC>MOL_PROPERTY
Valence
SciTegic.value.DoubleValue
6.513

@<SCITEGIC>MOL_PROPERTY
Coulomb
SciTegic.value.DoubleValue
1.429

@<SCITEGIC>MOL_PROPERTY
VdW
SciTegic.value.DoubleValue
0.335

@<SCITEGIC>MOL_PROPERTY
VdW6
SciTegic.value.DoubleValue
-5.021

@<SCITEGIC>MOL_PROPERTY
VdW12
SciTegic.value.DoubleValue
5.356

@<SCITEGIC>MOL_PROPERTY
Bond
SciTegic.value.DoubleValue
0.092

@<SCITEGIC>MOL_PROPERTY
Angle
SciTegic.value.DoubleValue
2.417

@<SCITEGIC>MOL_PROPERTY
Pdih
SciTegic.value.DoubleValue
4.002

@<SCITEGIC>MOL_PROPERTY
Idih
SciTegic.value.DoubleValue
0.001

@<SCITEGIC>MOL_PROPERTY
Tether
SciTegic.value.DoubleValue
0.000

@<TRIPOS>MOLECULE
guest-s18_confgen4.mol2 : confsearch ligand conformer 127
          16          15           1
SMALL
USER_CHARGES
 
@<TRIPOS>ATOM
       1    C1      20.605651   17.458070   23.251925 C.2        1 MOL1         0.6075
       2    O1      20.706985   17.430567   24.462611 O.co2      1 MOL1        -0.6830
       3    O2      21.480615   17.081976   22.497411 O.co2      1 MOL1        -0.6830
       4    C2      19.295718   17.960278   22.650587 C.3        1 MOL1        -0.2050
       5    H1      18.481244   17.421077   23.148357 H          1 MOL1         0.0710
       6    H2      19.259378   17.670279   21.594260 H          1 MOL1         0.0710
       7    C3      19.069040   19.488969   22.806793 C.3        1 MOL1        -0.1947
       8    H3      18.073673   19.746759   22.420580 H          1 MOL1         0.0712
       9    H4      19.057555   19.736299   23.877330 H          1 MOL1         0.0712
      10    C4      20.131124   20.366451   22.102525 C.3        1 MOL1        -0.1921
      11    H5      21.128733   20.142579   22.505333 H          1 MOL1         0.0712
      12    H6      19.931287   21.420388   22.340029 H          1 MOL1         0.0712
      13    C5      20.142230   20.195147   20.568584 C.3        1 MOL1        -0.2936
      14    H7      20.459175   19.183878   20.283333 H          1 MOL1         0.0724
      15    H8      20.842588   20.904175   20.108543 H          1 MOL1         0.0724
      16    H9      19.146606   20.378857   20.144260 H          1 MOL1         0.0724
@<TRIPOS>BOND
    1     1     2    1
    2     1     3    2
    3     1     4    1
    4     4     5    1
    5     4     6    1
    6     4     7    1
    7     7     8    1
    8     7     9    1
    9     7    10    1
   10    10    11    1
   11    10    12    1
   12    10    13    1
   13    13    14    1
   14    13    15    1
   15    13    16    1
@<TRIPOS>SUBSTRUCTURE
       1 MOL1            1 RESIDUE      1      MOL     
@<SCITEGIC>MOL_PROPERTY
VConf Rank
SciTegic.value.IntegerValue
127

@<SCITEGIC>MOL_PROPERTY
Conf_Id
SciTegic.value.IntegerValue
37

@<SCITEGIC>MOL_PROPERTY
Delta U+W
SciTegic.value.DoubleValue
1.063

@<SCITEGIC>MOL_PROPERTY
U+W
SciTegic.value.DoubleValue
-55.841

@<SCITEGIC>MOL_PROPERTY
Grad RMS
SciTegic.value.DoubleValue
0.000000

@<SCITEGIC>MOL_PROPERTY
U
SciTegic.value.DoubleValue
9.719

@<SCITEGIC>MOL_PROPERTY
W
SciTegic.value.DoubleValue
-65.560

@<SCITEGIC>MOL_PROPERTY
W(PB)
SciTegic.value.DoubleValue
-67.414

@<SCITEGIC>MOL_PROPERTY
W(SA)
SciTegic.value.DoubleValue
1.854

@<SCITEGIC>MOL_PROPERTY
Valence
SciTegic.value.DoubleValue
7.002

@<SCITEGIC>MOL_PROPERTY
Coulomb
SciTegic.value.DoubleValue
2.402

@<SCITEGIC>MOL_PROPERTY
VdW
SciTegic.value.DoubleValue
0.314

@<SCITEGIC>MOL_PROPERTY
VdW6
SciTegic.value.DoubleValue
-5.861

@<SCITEGIC>MOL_PROPERTY
VdW12
SciTegic.value.DoubleValue
6.175

@<SCITEGIC>MOL_PROPERTY
Bond
SciTegic.value.DoubleValue
0.134

@<SCITEGIC>MOL_PROPERTY
Angle
SciTegic.value.DoubleValue
2.733

@<SCITEGIC>MOL_PROPERTY
Pdih
SciTegic.value.DoubleValue
4.133

@<SCITEGIC>MOL_PROPERTY
Idih
SciTegic.value.DoubleValue
0.002

@<SCITEGIC>MOL_PROPERTY
Tether
SciTegic.value.DoubleValue
0.000

@<TRIPOS>MOLECULE
guest-s18_confgen4.mol2 : confsearch ligand conformer 128
          16          15           1
SMALL
USER_CHARGES
 
@<TRIPOS>ATOM
       1    C1      18.024408   18.891896   22.479742 C.2        1 MOL1         0.6075
       2    O1      17.334621   19.718240   23.043776 O.co2      1 MOL1        -0.6830
       3    O2      17.709344   18.355750   21.435912 O.co2      1 MOL1        -0.6830
       4    C2      19.339454   18.482297   23.137489 C.3        1 MOL1        -0.2050
       5    H1      19.696166   17.559305   22.666225 H          1 MOL1         0.0710
       6    H2      19.117053   18.231586   24.181310 H          1 MOL1         0.0710
       7    C3      20.439352   19.578310   23.096779 C.3        1 MOL1        -0.1947
       8    H3      20.069637   20.468826   23.623700 H          1 MOL1         0.0712
       9    H4      21.316088   19.229728   23.659092 H          1 MOL1         0.0712
      10    C4      20.879108   19.987900   21.671000 C.3        1 MOL1        -0.1921
      11    H5      21.592859   20.819655   21.747627 H          1 MOL1         0.0712
      12    H6      20.016417   20.371656   21.108778 H          1 MOL1         0.0712
      13    C5      21.539174   18.836312   20.883219 C.3        1 MOL1        -0.2936
      14    H7      22.383909   18.410983   21.440519 H          1 MOL1         0.0724
      15    H8      21.917814   19.198968   19.918868 H          1 MOL1         0.0724
      16    H9      20.820896   18.032736   20.676265 H          1 MOL1         0.0724
@<TRIPOS>BOND
    1     1     2    1
    2     1     3    2
    3     1     4    1
    4     4     5    1
    5     4     6    1
    6     4     7    1
    7     7     8    1
    8     7     9    1
    9     7    10    1
   10    10    11    1
   11    10    12    1
   12    10    13    1
   13    13    14    1
   14    13    15    1
   15    13    16    1
@<TRIPOS>SUBSTRUCTURE
       1 MOL1            1 RESIDUE      1      MOL     
@<SCITEGIC>MOL_PROPERTY
VConf Rank
SciTegic.value.IntegerValue
128

@<SCITEGIC>MOL_PROPERTY
Conf_Id
SciTegic.value.IntegerValue
39

@<SCITEGIC>MOL_PROPERTY
Delta U+W
SciTegic.value.DoubleValue
1.129

@<SCITEGIC>MOL_PROPERTY
U+W
SciTegic.value.DoubleValue
-55.775

@<SCITEGIC>MOL_PROPERTY
Grad RMS
SciTegic.value.DoubleValue
0.000000

@<SCITEGIC>MOL_PROPERTY
U
SciTegic.value.DoubleValue
9.718

@<SCITEGIC>MOL_PROPERTY
W
SciTegic.value.DoubleValue
-65.493

@<SCITEGIC>MOL_PROPERTY
W(PB)
SciTegic.value.DoubleValue
-67.361

@<SCITEGIC>MOL_PROPERTY
W(SA)
SciTegic.value.DoubleValue
1.869

@<SCITEGIC>MOL_PROPERTY
Valence
SciTegic.value.DoubleValue
7.002

@<SCITEGIC>MOL_PROPERTY
Coulomb
SciTegic.value.DoubleValue
2.402

@<SCITEGIC>MOL_PROPERTY
VdW
SciTegic.value.DoubleValue
0.314

@<SCITEGIC>MOL_PROPERTY
VdW6
SciTegic.value.DoubleValue
-5.861

@<SCITEGIC>MOL_PROPERTY
VdW12
SciTegic.value.DoubleValue
6.175

@<SCITEGIC>MOL_PROPERTY
Bond
SciTegic.value.DoubleValue
0.134

@<SCITEGIC>MOL_PROPERTY
Angle
SciTegic.value.DoubleValue
2.734

@<SCITEGIC>MOL_PROPERTY
Pdih
SciTegic.value.DoubleValue
4.133

@<SCITEGIC>MOL_PROPERTY
Idih
SciTegic.value.DoubleValue
0.002

@<SCITEGIC>MOL_PROPERTY
Tether
SciTegic.value.DoubleValue
0.000

@<TRIPOS>MOLECULE
guest-s18_confgen4.mol2 : confsearch ligand conformer 129
          16          15           1
SMALL
USER_CHARGES
 
@<TRIPOS>ATOM
       1    C1      19.146830   17.249696   22.014696 C.2        1 MOL1         0.6075
       2    O1      19.686154   16.677657   21.088024 O.co2      1 MOL1        -0.6830
       3    O2      17.941003   17.301622   22.157669 O.co2      1 MOL1        -0.6830
       4    C2      20.032772   17.856023   23.101495 C.3        1 MOL1        -0.2050
       5    H1      21.083240   17.653198   22.859923 H          1 MOL1         0.0710
       6    H2      19.811422   17.305369   24.023197 H          1 MOL1         0.0710
       7    C3      19.823613   19.374962   23.358513 C.3        1 MOL1        -0.1947
       8    H3      18.749523   19.603948   23.396425 H          1 MOL1         0.0712
       9    H4      20.217991   19.607238   24.356995 H          1 MOL1         0.0712
      10    C4      20.529937   20.306170   22.343860 C.3        1 MOL1        -0.1921
      11    H5      21.602985   20.072765   22.307510 H          1 MOL1         0.0712
      12    H6      20.451354   21.339833   22.708084 H          1 MOL1         0.0712
      13    C5      19.936547   20.242920   20.921126 C.3        1 MOL1        -0.2936
      14    H7      20.137197   19.274281   20.447335 H          1 MOL1         0.0724
      15    H8      20.380636   21.019443   20.285071 H          1 MOL1         0.0724
      16    H9      18.850084   20.399695   20.939817 H          1 MOL1         0.0724
@<TRIPOS>BOND
    1     1     2    1
    2     1     3    2
    3     1     4    1
    4     4     5    1
    5     4     6    1
    6     4     7    1
    7     7     8    1
    8     7     9    1
    9     7    10    1
   10    10    11    1
   11    10    12    1
   12    10    13    1
   13    13    14    1
   14    13    15    1
   15    13    16    1
@<TRIPOS>SUBSTRUCTURE
       1 MOL1            1 RESIDUE      1      MOL     
@<SCITEGIC>MOL_PROPERTY
VConf Rank
SciTegic.value.IntegerValue
129

@<SCITEGIC>MOL_PROPERTY
Conf_Id
SciTegic.value.IntegerValue
47

@<SCITEGIC>MOL_PROPERTY
Delta U+W
SciTegic.value.DoubleValue
2.301

@<SCITEGIC>MOL_PROPERTY
U+W
SciTegic.value.DoubleValue
-54.603

@<SCITEGIC>MOL_PROPERTY
Grad RMS
SciTegic.value.DoubleValue
0.000000

@<SCITEGIC>MOL_PROPERTY
U
SciTegic.value.DoubleValue
11.258

@<SCITEGIC>MOL_PROPERTY
W
SciTegic.value.DoubleValue
-65.861

@<SCITEGIC>MOL_PROPERTY
W(PB)
SciTegic.value.DoubleValue
-67.702

@<SCITEGIC>MOL_PROPERTY
W(SA)
SciTegic.value.DoubleValue
1.841

@<SCITEGIC>MOL_PROPERTY
Valence
SciTegic.value.DoubleValue
8.169

@<SCITEGIC>MOL_PROPERTY
Coulomb
SciTegic.value.DoubleValue
2.735

@<SCITEGIC>MOL_PROPERTY
VdW
SciTegic.value.DoubleValue
0.355

@<SCITEGIC>MOL_PROPERTY
VdW6
SciTegic.value.DoubleValue
-6.245

@<SCITEGIC>MOL_PROPERTY
VdW12
SciTegic.value.DoubleValue
6.600

@<SCITEGIC>MOL_PROPERTY
Bond
SciTegic.value.DoubleValue
0.149

@<SCITEGIC>MOL_PROPERTY
Angle
SciTegic.value.DoubleValue
3.168

@<SCITEGIC>MOL_PROPERTY
Pdih
SciTegic.value.DoubleValue
4.840

@<SCITEGIC>MOL_PROPERTY
Idih
SciTegic.value.DoubleValue
0.011

@<SCITEGIC>MOL_PROPERTY
Tether
SciTegic.value.DoubleValue
0.000

@<TRIPOS>MOLECULE
guest-s18_confgen4.mol2 : confsearch ligand conformer 130
          16          15           1
SMALL
USER_CHARGES
 
@<TRIPOS>ATOM
       1    C1      19.267199   17.587950   23.399017 C.2        1 MOL1         0.6075
       2    O1      18.586810   18.025649   24.306017 O.co2      1 MOL1        -0.6830
       3    O2      20.158332   16.778031   23.562519 O.co2      1 MOL1        -0.6830
       4    C2      18.927431   18.007558   21.969978 C.3        1 MOL1        -0.2050
       5    H1      17.905851   17.658137   21.780170 H          1 MOL1         0.0710
       6    H2      19.578657   17.464569   21.274244 H          1 MOL1         0.0710
       7    C3      18.998100   19.535453   21.691531 C.3        1 MOL1        -0.1947
       8    H3      18.403762   19.743841   20.791648 H          1 MOL1         0.0712
       9    H4      18.513890   20.087843   22.508811 H          1 MOL1         0.0712
      10    C4      20.425356   20.084143   21.451863 C.3        1 MOL1        -0.1921
      11    H5      20.344312   21.125259   21.110098 H          1 MOL1         0.0712
      12    H6      20.906593   19.528154   20.635457 H          1 MOL1         0.0712
      13    C5      21.325460   20.049645   22.704423 C.3        1 MOL1        -0.2936
      14    H7      22.269833   20.575327   22.513146 H          1 MOL1         0.0724
      15    H8      21.573379   19.020069   22.989921 H          1 MOL1         0.0724
      16    H9      20.833192   20.535386   23.557101 H          1 MOL1         0.0724
@<TRIPOS>BOND
    1     1     2    1
    2     1     3    2
    3     1     4    1
    4     4     5    1
    5     4     6    1
    6     4     7    1
    7     7     8    1
    8     7     9    1
    9     7    10    1
   10    10    11    1
   11    10    12    1
   12    10    13    1
   13    13    14    1
   14    13    15    1
   15    13    16    1
@<TRIPOS>SUBSTRUCTURE
       1 MOL1            1 RESIDUE      1      MOL     
@<SCITEGIC>MOL_PROPERTY
VConf Rank
SciTegic.value.IntegerValue
130

@<SCITEGIC>MOL_PROPERTY
Conf_Id
SciTegic.value.IntegerValue
45

@<SCITEGIC>MOL_PROPERTY
Delta U+W
SciTegic.value.DoubleValue
2.303

@<SCITEGIC>MOL_PROPERTY
U+W
SciTegic.value.DoubleValue
-54.601

@<SCITEGIC>MOL_PROPERTY
Grad RMS
SciTegic.value.DoubleValue
0.000000

@<SCITEGIC>MOL_PROPERTY
U
SciTegic.value.DoubleValue
11.258

@<SCITEGIC>MOL_PROPERTY
W
SciTegic.value.DoubleValue
-65.860

@<SCITEGIC>MOL_PROPERTY
W(PB)
SciTegic.value.DoubleValue
-67.709

@<SCITEGIC>MOL_PROPERTY
W(SA)
SciTegic.value.DoubleValue
1.849

@<SCITEGIC>MOL_PROPERTY
Valence
SciTegic.value.DoubleValue
8.169

@<SCITEGIC>MOL_PROPERTY
Coulomb
SciTegic.value.DoubleValue
2.735

@<SCITEGIC>MOL_PROPERTY
VdW
SciTegic.value.DoubleValue
0.355

@<SCITEGIC>MOL_PROPERTY
VdW6
SciTegic.value.DoubleValue
-6.245

@<SCITEGIC>MOL_PROPERTY
VdW12
SciTegic.value.DoubleValue
6.600

@<SCITEGIC>MOL_PROPERTY
Bond
SciTegic.value.DoubleValue
0.149

@<SCITEGIC>MOL_PROPERTY
Angle
SciTegic.value.DoubleValue
3.168

@<SCITEGIC>MOL_PROPERTY
Pdih
SciTegic.value.DoubleValue
4.840

@<SCITEGIC>MOL_PROPERTY
Idih
SciTegic.value.DoubleValue
0.011

@<SCITEGIC>MOL_PROPERTY
Tether
SciTegic.value.DoubleValue
0.000

@<TRIPOS>MOLECULE
guest-s18_confgen4.mol2 : confsearch ligand conformer 131
          16          15           1
SMALL
USER_CHARGES
 
@<TRIPOS>ATOM
       1    C1      19.160021   18.073159   24.339916 C.2        1 MOL1         0.6075
       2    O1      18.366837   18.967132   24.562284 O.co2      1 MOL1        -0.6830
       3    O2      19.334638   17.139345   25.096761 O.co2      1 MOL1        -0.6830
       4    C2      19.991927   18.096772   23.056457 C.3        1 MOL1        -0.2050
       5    H1      19.788475   17.163938   22.517395 H          1 MOL1         0.0710
       6    H2      21.047946   18.073460   23.350472 H          1 MOL1         0.0710
       7    C3      19.735425   19.308459   22.121380 C.3        1 MOL1        -0.1947
       8    H3      18.674872   19.329679   21.834593 H          1 MOL1         0.0712
       9    H4      19.935655   20.240131   22.668523 H          1 MOL1         0.0712
      10    C4      20.614599   19.251401   20.854472 C.3        1 MOL1        -0.1921
      11    H5      20.414041   18.320913   20.305411 H          1 MOL1         0.0712
      12    H6      21.675584   19.231908   21.139829 H          1 MOL1         0.0712
      13    C5      20.355332   20.457268   19.929914 C.3        1 MOL1        -0.2936
      14    H7      19.307366   20.483701   19.603510 H          1 MOL1         0.0724
      15    H8      20.987993   20.401293   19.034510 H          1 MOL1         0.0724
      16    H9      20.578217   21.401421   20.444079 H          1 MOL1         0.0724
@<TRIPOS>BOND
    1     1     2    1
    2     1     3    2
    3     1     4    1
    4     4     5    1
    5     4     6    1
    6     4     7    1
    7     7     8    1
    8     7     9    1
    9     7    10    1
   10    10    11    1
   11    10    12    1
   12    10    13    1
   13    13    14    1
   14    13    15    1
   15    13    16    1
@<TRIPOS>SUBSTRUCTURE
       1 MOL1            1 RESIDUE      1      MOL     
@<SCITEGIC>MOL_PROPERTY
VConf Rank
SciTegic.value.IntegerValue
131

@<SCITEGIC>MOL_PROPERTY
Conf_Id
SciTegic.value.IntegerValue
0

@<SCITEGIC>MOL_PROPERTY
Delta U+W
SciTegic.value.DoubleValue
0.000

@<SCITEGIC>MOL_PROPERTY
U+W
SciTegic.value.DoubleValue
-56.904

@<SCITEGIC>MOL_PROPERTY
Grad RMS
SciTegic.value.DoubleValue
0.000000

@<SCITEGIC>MOL_PROPERTY
U
SciTegic.value.DoubleValue
7.329

@<SCITEGIC>MOL_PROPERTY
W
SciTegic.value.DoubleValue
-64.233

@<SCITEGIC>MOL_PROPERTY
W(PB)
SciTegic.value.DoubleValue
-66.148

@<SCITEGIC>MOL_PROPERTY
W(SA)
SciTegic.value.DoubleValue
1.915

@<SCITEGIC>MOL_PROPERTY
Valence
SciTegic.value.DoubleValue
6.755

@<SCITEGIC>MOL_PROPERTY
Coulomb
SciTegic.value.DoubleValue
-0.421

@<SCITEGIC>MOL_PROPERTY
VdW
SciTegic.value.DoubleValue
0.995

@<SCITEGIC>MOL_PROPERTY
VdW6
SciTegic.value.DoubleValue
-4.495

@<SCITEGIC>MOL_PROPERTY
VdW12
SciTegic.value.DoubleValue
5.490

@<SCITEGIC>MOL_PROPERTY
Bond
SciTegic.value.DoubleValue
0.106

@<SCITEGIC>MOL_PROPERTY
Angle
SciTegic.value.DoubleValue
2.715

@<SCITEGIC>MOL_PROPERTY
Pdih
SciTegic.value.DoubleValue
3.934

@<SCITEGIC>MOL_PROPERTY
Idih
SciTegic.value.DoubleValue
0.000

@<SCITEGIC>MOL_PROPERTY
Tether
SciTegic.value.DoubleValue
0.000

@<TRIPOS>MOLECULE
guest-s18_confgen4.mol2 : confsearch ligand conformer 132
          16          15           1
SMALL
USER_CHARGES
 
@<TRIPOS>ATOM
       1    C1      19.642162   16.587147   22.881496 C.2        1 MOL1         0.6075
       2    O1      20.581679   16.118661   23.492781 O.co2      1 MOL1        -0.6830
       3    O2      18.483168   16.303924   23.110323 O.co2      1 MOL1        -0.6830
       4    C2      19.932463   17.599538   21.779056 C.3        1 MOL1        -0.2050
       5    H1      19.163447   17.490490   21.004736 H          1 MOL1         0.0710
       6    H2      20.893586   17.337835   21.320139 H          1 MOL1         0.0710
       7    C3      19.967182   19.059192   22.295066 C.3        1 MOL1        -0.1947
       8    H3      19.002790   19.302027   22.762538 H          1 MOL1         0.0712
       9    H4      20.732964   19.149356   23.078009 H          1 MOL1         0.0712
      10    C4      20.262547   20.062382   21.160636 C.3        1 MOL1        -0.1921
      11    H5      19.496577   19.972999   20.377796 H          1 MOL1         0.0712
      12    H6      21.227187   19.820264   20.693319 H          1 MOL1         0.0712
      13    C5      20.295603   21.512820   21.681439 C.3        1 MOL1        -0.2936
      14    H7      21.075057   21.638540   22.444405 H          1 MOL1         0.0724
      15    H8      19.331671   21.792395   22.126572 H          1 MOL1         0.0724
      16    H9      20.506661   22.213024   20.862709 H          1 MOL1         0.0724
@<TRIPOS>BOND
    1     1     2    1
    2     1     3    2
    3     1     4    1
    4     4     5    1
    5     4     6    1
    6     4     7    1
    7     7     8    1
    8     7     9    1
    9     7    10    1
   10    10    11    1
   11    10    12    1
   12    10    13    1
   13    13    14    1
   14    13    15    1
   15    13    16    1
@<TRIPOS>SUBSTRUCTURE
       1 MOL1            1 RESIDUE      1      MOL     
@<SCITEGIC>MOL_PROPERTY
VConf Rank
SciTegic.value.IntegerValue
132

@<SCITEGIC>MOL_PROPERTY
Conf_Id
SciTegic.value.IntegerValue
22

@<SCITEGIC>MOL_PROPERTY
Delta U+W
SciTegic.value.DoubleValue
-1.185

@<SCITEGIC>MOL_PROPERTY
U+W
SciTegic.value.DoubleValue
-58.089

@<SCITEGIC>MOL_PROPERTY
Grad RMS
SciTegic.value.DoubleValue
0.000000

@<SCITEGIC>MOL_PROPERTY
U
SciTegic.value.DoubleValue
6.298

@<SCITEGIC>MOL_PROPERTY
W
SciTegic.value.DoubleValue
-64.387

@<SCITEGIC>MOL_PROPERTY
W(PB)
SciTegic.value.DoubleValue
-66.329

@<SCITEGIC>MOL_PROPERTY
W(SA)
SciTegic.value.DoubleValue
1.942

@<SCITEGIC>MOL_PROPERTY
Valence
SciTegic.value.DoubleValue
6.246

@<SCITEGIC>MOL_PROPERTY
Coulomb
SciTegic.value.DoubleValue
-0.408

@<SCITEGIC>MOL_PROPERTY
VdW
SciTegic.value.DoubleValue
0.460

@<SCITEGIC>MOL_PROPERTY
VdW6
SciTegic.value.DoubleValue
-4.207

@<SCITEGIC>MOL_PROPERTY
VdW12
SciTegic.value.DoubleValue
4.667

@<SCITEGIC>MOL_PROPERTY
Bond
SciTegic.value.DoubleValue
0.072

@<SCITEGIC>MOL_PROPERTY
Angle
SciTegic.value.DoubleValue
2.246

@<SCITEGIC>MOL_PROPERTY
Pdih
SciTegic.value.DoubleValue
3.928

@<SCITEGIC>MOL_PROPERTY
Idih
SciTegic.value.DoubleValue
0.001

@<SCITEGIC>MOL_PROPERTY
Tether
SciTegic.value.DoubleValue
0.000

@<TRIPOS>MOLECULE
guest-s18_confgen4.mol2 : confsearch ligand conformer 133
          16          15           1
SMALL
USER_CHARGES
 
@<TRIPOS>ATOM
       1    C1      18.805069   17.585175   23.697777 C.2        1 MOL1         0.6075
       2    O1      17.721586   17.843072   24.183111 O.co2      1 MOL1        -0.6830
       3    O2      19.600061   16.816136   24.200295 O.co2      1 MOL1        -0.6830
       4    C2      19.196110   18.279819   22.398112 C.3        1 MOL1        -0.2050
       5    H1      18.283725   18.445640   21.812773 H          1 MOL1         0.0710
       6    H2      19.827807   17.589866   21.827112 H          1 MOL1         0.0710
       7    C3      19.931874   19.624599   22.633081 C.3        1 MOL1        -0.1947
       8    H3      19.310063   20.259102   23.279754 H          1 MOL1         0.0712
       9    H4      20.865130   19.440606   23.183070 H          1 MOL1         0.0712
      10    C4      20.238090   20.394766   21.327905 C.3        1 MOL1        -0.1921
      11    H5      20.656623   21.377022   21.587355 H          1 MOL1         0.0712
      12    H6      19.303626   20.589184   20.783516 H          1 MOL1         0.0712
      13    C5      21.232613   19.657935   20.405442 C.3        1 MOL1        -0.2936
      14    H7      20.809117   18.718726   20.028188 H          1 MOL1         0.0724
      15    H8      22.164756   19.426963   20.937429 H          1 MOL1         0.0724
      16    H9      21.484467   20.280962   19.537447 H          1 MOL1         0.0724
@<TRIPOS>BOND
    1     1     2    1
    2     1     3    2
    3     1     4    1
    4     4     5    1
    5     4     6    1
    6     4     7    1
    7     7     8    1
    8     7     9    1
    9     7    10    1
   10    10    11    1
   11    10    12    1
   12    10    13    1
   13    13    14    1
   14    13    15    1
   15    13    16    1
@<TRIPOS>SUBSTRUCTURE
       1 MOL1            1 RESIDUE      1      MOL     
@<SCITEGIC>MOL_PROPERTY
VConf Rank
SciTegic.value.IntegerValue
133

@<SCITEGIC>MOL_PROPERTY
Conf_Id
SciTegic.value.IntegerValue
36

@<SCITEGIC>MOL_PROPERTY
Delta U+W
SciTegic.value.DoubleValue
-0.427

@<SCITEGIC>MOL_PROPERTY
U+W
SciTegic.value.DoubleValue
-57.331

@<SCITEGIC>MOL_PROPERTY
Grad RMS
SciTegic.value.DoubleValue
0.000000

@<SCITEGIC>MOL_PROPERTY
U
SciTegic.value.DoubleValue
7.263

@<SCITEGIC>MOL_PROPERTY
W
SciTegic.value.DoubleValue
-64.594

@<SCITEGIC>MOL_PROPERTY
W(PB)
SciTegic.value.DoubleValue
-66.513

@<SCITEGIC>MOL_PROPERTY
W(SA)
SciTegic.value.DoubleValue
1.920

@<SCITEGIC>MOL_PROPERTY
Valence
SciTegic.value.DoubleValue
6.734

@<SCITEGIC>MOL_PROPERTY
Coulomb
SciTegic.value.DoubleValue
-0.068

@<SCITEGIC>MOL_PROPERTY
VdW
SciTegic.value.DoubleValue
0.598

@<SCITEGIC>MOL_PROPERTY
VdW6
SciTegic.value.DoubleValue
-4.819

@<SCITEGIC>MOL_PROPERTY
VdW12
SciTegic.value.DoubleValue
5.417

@<SCITEGIC>MOL_PROPERTY
Bond
SciTegic.value.DoubleValue
0.107

@<SCITEGIC>MOL_PROPERTY
Angle
SciTegic.value.DoubleValue
2.469

@<SCITEGIC>MOL_PROPERTY
Pdih
SciTegic.value.DoubleValue
4.157

@<SCITEGIC>MOL_PROPERTY
Idih
SciTegic.value.DoubleValue
0.001

@<SCITEGIC>MOL_PROPERTY
Tether
SciTegic.value.DoubleValue
0.000

@<TRIPOS>MOLECULE
guest-s18_confgen4.mol2 : confsearch ligand conformer 134
          16          15           1
SMALL
USER_CHARGES
 
@<TRIPOS>ATOM
       1    C1      21.744521   18.330459   20.294602 C.2        1 MOL1         0.6075
       2    O1      21.634504   18.908332   19.231626 O.co2      1 MOL1        -0.6830
       3    O2      22.339743   17.279964   20.429380 O.co2      1 MOL1        -0.6830
       4    C2      21.082849   18.946318   21.522397 C.3        1 MOL1        -0.2050
       5    H1      21.117263   20.035916   21.409667 H          1 MOL1         0.0710
       6    H2      21.688775   18.690763   22.399957 H          1 MOL1         0.0710
       7    C3      19.622322   18.465108   21.723131 C.3        1 MOL1        -0.1947
       8    H3      19.015585   18.764107   20.857233 H          1 MOL1         0.0712
       9    H4      19.612278   17.366543   21.745092 H          1 MOL1         0.0712
      10    C4      18.973385   18.993817   23.023037 C.3        1 MOL1        -0.1921
      11    H5      19.573670   18.684915   23.889996 H          1 MOL1         0.0712
      12    H6      17.988343   18.522061   23.143228 H          1 MOL1         0.0712
      13    C5      18.795588   20.527175   23.034539 C.3        1 MOL1        -0.2936
      14    H7      19.763887   21.043085   23.030559 H          1 MOL1         0.0724
      15    H8      18.254310   20.843798   23.935525 H          1 MOL1         0.0724
      16    H9      18.222266   20.862778   22.160512 H          1 MOL1         0.0724
@<TRIPOS>BOND
    1     1     2    1
    2     1     3    2
    3     1     4    1
    4     4     5    1
    5     4     6    1
    6     4     7    1
    7     7     8    1
    8     7     9    1
    9     7    10    1
   10    10    11    1
   11    10    12    1
   12    10    13    1
   13    13    14    1
   14    13    15    1
   15    13    16    1
@<TRIPOS>SUBSTRUCTURE
       1 MOL1            1 RESIDUE      1      MOL     
@<SCITEGIC>MOL_PROPERTY
VConf Rank
SciTegic.value.IntegerValue
134

@<SCITEGIC>MOL_PROPERTY
Conf_Id
SciTegic.value.IntegerValue
17

@<SCITEGIC>MOL_PROPERTY
Delta U+W
SciTegic.value.DoubleValue
-0.432

@<SCITEGIC>MOL_PROPERTY
U+W
SciTegic.value.DoubleValue
-57.336

@<SCITEGIC>MOL_PROPERTY
Grad RMS
SciTegic.value.DoubleValue
0.000000

@<SCITEGIC>MOL_PROPERTY
U
SciTegic.value.DoubleValue
7.263

@<SCITEGIC>MOL_PROPERTY
W
SciTegic.value.DoubleValue
-64.599

@<SCITEGIC>MOL_PROPERTY
W(PB)
SciTegic.value.DoubleValue
-66.503

@<SCITEGIC>MOL_PROPERTY
W(SA)
SciTegic.value.DoubleValue
1.904

@<SCITEGIC>MOL_PROPERTY
Valence
SciTegic.value.DoubleValue
6.734

@<SCITEGIC>MOL_PROPERTY
Coulomb
SciTegic.value.DoubleValue
-0.068

@<SCITEGIC>MOL_PROPERTY
VdW
SciTegic.value.DoubleValue
0.598

@<SCITEGIC>MOL_PROPERTY
VdW6
SciTegic.value.DoubleValue
-4.819

@<SCITEGIC>MOL_PROPERTY
VdW12
SciTegic.value.DoubleValue
5.417

@<SCITEGIC>MOL_PROPERTY
Bond
SciTegic.value.DoubleValue
0.107

@<SCITEGIC>MOL_PROPERTY
Angle
SciTegic.value.DoubleValue
2.469

@<SCITEGIC>MOL_PROPERTY
Pdih
SciTegic.value.DoubleValue
4.157

@<SCITEGIC>MOL_PROPERTY
Idih
SciTegic.value.DoubleValue
0.001

@<SCITEGIC>MOL_PROPERTY
Tether
SciTegic.value.DoubleValue
0.000

@<TRIPOS>MOLECULE
guest-s18_confgen4.mol2 : confsearch ligand conformer 135
          16          15           1
SMALL
USER_CHARGES
 
@<TRIPOS>ATOM
       1    C1      19.074676   21.213887   22.492435 C.2        1 MOL1         0.6075
       2    O1      19.406951   21.735703   23.538210 O.co2      1 MOL1        -0.6830
       3    O2      19.051391   21.799312   21.428012 O.co2      1 MOL1        -0.6830
       4    C2      18.640643   19.750976   22.524016 C.3        1 MOL1        -0.2050
       5    H1      18.058224   19.538471   21.619188 H          1 MOL1         0.0710
       6    H2      17.960052   19.628867   23.374968 H          1 MOL1         0.0710
       7    C3      19.814705   18.745956   22.652654 C.3        1 MOL1        -0.1947
       8    H3      20.405403   18.988538   23.546999 H          1 MOL1         0.0712
       9    H4      19.405906   17.738253   22.807498 H          1 MOL1         0.0712
      10    C4      20.728929   18.738319   21.408339 C.3        1 MOL1        -0.1921
      11    H5      21.160266   19.737440   21.255278 H          1 MOL1         0.0712
      12    H6      20.134696   18.507869   20.513264 H          1 MOL1         0.0712
      13    C5      21.866805   17.707745   21.547979 C.3        1 MOL1        -0.2936
      14    H7      22.495811   17.933312   22.419140 H          1 MOL1         0.0724
      15    H8      22.507168   17.715749   20.656358 H          1 MOL1         0.0724
      16    H9      21.465474   16.692884   21.668005 H          1 MOL1         0.0724
@<TRIPOS>BOND
    1     1     2    1
    2     1     3    2
    3     1     4    1
    4     4     5    1
    5     4     6    1
    6     4     7    1
    7     7     8    1
    8     7     9    1
    9     7    10    1
   10    10    11    1
   11    10    12    1
   12    10    13    1
   13    13    14    1
   14    13    15    1
   15    13    16    1
@<TRIPOS>SUBSTRUCTURE
       1 MOL1            1 RESIDUE      1      MOL     
@<SCITEGIC>MOL_PROPERTY
VConf Rank
SciTegic.value.IntegerValue
135

@<SCITEGIC>MOL_PROPERTY
Conf_Id
SciTegic.value.IntegerValue
19

@<SCITEGIC>MOL_PROPERTY
Delta U+W
SciTegic.value.DoubleValue
0.048

@<SCITEGIC>MOL_PROPERTY
U+W
SciTegic.value.DoubleValue
-56.856

@<SCITEGIC>MOL_PROPERTY
Grad RMS
SciTegic.value.DoubleValue
0.000000

@<SCITEGIC>MOL_PROPERTY
U
SciTegic.value.DoubleValue
8.276

@<SCITEGIC>MOL_PROPERTY
W
SciTegic.value.DoubleValue
-65.132

@<SCITEGIC>MOL_PROPERTY
W(PB)
SciTegic.value.DoubleValue
-67.031

@<SCITEGIC>MOL_PROPERTY
W(SA)
SciTegic.value.DoubleValue
1.899

@<SCITEGIC>MOL_PROPERTY
Valence
SciTegic.value.DoubleValue
6.513

@<SCITEGIC>MOL_PROPERTY
Coulomb
SciTegic.value.DoubleValue
1.428

@<SCITEGIC>MOL_PROPERTY
VdW
SciTegic.value.DoubleValue
0.335

@<SCITEGIC>MOL_PROPERTY
VdW6
SciTegic.value.DoubleValue
-5.021

@<SCITEGIC>MOL_PROPERTY
VdW12
SciTegic.value.DoubleValue
5.356

@<SCITEGIC>MOL_PROPERTY
Bond
SciTegic.value.DoubleValue
0.092

@<SCITEGIC>MOL_PROPERTY
Angle
SciTegic.value.DoubleValue
2.417

@<SCITEGIC>MOL_PROPERTY
Pdih
SciTegic.value.DoubleValue
4.003

@<SCITEGIC>MOL_PROPERTY
Idih
SciTegic.value.DoubleValue
0.001

@<SCITEGIC>MOL_PROPERTY
Tether
SciTegic.value.DoubleValue
0.000

@<TRIPOS>MOLECULE
guest-s18_confgen4.mol2 : confsearch ligand conformer 136
          16          15           1
SMALL
USER_CHARGES
 
@<TRIPOS>ATOM
       1    C1      18.294780   18.793408   23.824202 C.2        1 MOL1         0.6075
       2    O1      18.326556   19.638803   24.696348 O.co2      1 MOL1        -0.6830
       3    O2      18.302419   17.598979   24.046783 O.co2      1 MOL1        -0.6830
       4    C2      18.217501   19.259145   22.372784 C.3        1 MOL1        -0.2050
       5    H1      17.459582   20.049835   22.321758 H          1 MOL1         0.0710
       6    H2      17.851144   18.428592   21.757114 H          1 MOL1         0.0710
       7    C3      19.559683   19.792314   21.807700 C.3        1 MOL1        -0.1947
       8    H3      19.380169   20.230379   20.816522 H          1 MOL1         0.0712
       9    H4      19.928512   20.603992   22.450170 H          1 MOL1         0.0712
      10    C4      20.634121   18.689684   21.689468 C.3        1 MOL1        -0.1921
      11    H5      20.259197   17.873172   21.056920 H          1 MOL1         0.0712
      12    H6      20.836963   18.257748   22.679423 H          1 MOL1         0.0712
      13    C5      21.945884   19.238730   21.094338 C.3        1 MOL1        -0.2936
      14    H7      21.780742   19.646769   20.088532 H          1 MOL1         0.0724
      15    H8      22.698509   18.443212   21.018024 H          1 MOL1         0.0724
      16    H9      22.359037   20.036917   21.724934 H          1 MOL1         0.0724
@<TRIPOS>BOND
    1     1     2    1
    2     1     3    2
    3     1     4    1
    4     4     5    1
    5     4     6    1
    6     4     7    1
    7     7     8    1
    8     7     9    1
    9     7    10    1
   10    10    11    1
   11    10    12    1
   12    10    13    1
   13    13    14    1
   14    13    15    1
   15    13    16    1
@<TRIPOS>SUBSTRUCTURE
       1 MOL1            1 RESIDUE      1      MOL     
@<SCITEGIC>MOL_PROPERTY
VConf Rank
SciTegic.value.IntegerValue
136

@<SCITEGIC>MOL_PROPERTY
Conf_Id
SciTegic.value.IntegerValue
20

@<SCITEGIC>MOL_PROPERTY
Delta U+W
SciTegic.value.DoubleValue
-0.010

@<SCITEGIC>MOL_PROPERTY
U+W
SciTegic.value.DoubleValue
-56.914

@<SCITEGIC>MOL_PROPERTY
Grad RMS
SciTegic.value.DoubleValue
0.000000

@<SCITEGIC>MOL_PROPERTY
U
SciTegic.value.DoubleValue
8.277

@<SCITEGIC>MOL_PROPERTY
W
SciTegic.value.DoubleValue
-65.191

@<SCITEGIC>MOL_PROPERTY
W(PB)
SciTegic.value.DoubleValue
-67.081

@<SCITEGIC>MOL_PROPERTY
W(SA)
SciTegic.value.DoubleValue
1.890

@<SCITEGIC>MOL_PROPERTY
Valence
SciTegic.value.DoubleValue
6.513

@<SCITEGIC>MOL_PROPERTY
Coulomb
SciTegic.value.DoubleValue
1.429

@<SCITEGIC>MOL_PROPERTY
VdW
SciTegic.value.DoubleValue
0.335

@<SCITEGIC>MOL_PROPERTY
VdW6
SciTegic.value.DoubleValue
-5.021

@<SCITEGIC>MOL_PROPERTY
VdW12
SciTegic.value.DoubleValue
5.356

@<SCITEGIC>MOL_PROPERTY
Bond
SciTegic.value.DoubleValue
0.092

@<SCITEGIC>MOL_PROPERTY
Angle
SciTegic.value.DoubleValue
2.417

@<SCITEGIC>MOL_PROPERTY
Pdih
SciTegic.value.DoubleValue
4.002

@<SCITEGIC>MOL_PROPERTY
Idih
SciTegic.value.DoubleValue
0.001

@<SCITEGIC>MOL_PROPERTY
Tether
SciTegic.value.DoubleValue
0.000

@<TRIPOS>MOLECULE
guest-s18_confgen4.mol2 : confsearch ligand conformer 137
          16          15           1
SMALL
USER_CHARGES
 
@<TRIPOS>ATOM
       1    C1      20.668804   17.481806   23.243809 C.2        1 MOL1         0.6075
       2    O1      21.631096   16.847292   22.858880 O.co2      1 MOL1        -0.6830
       3    O2      19.645992   16.967410   23.650690 O.co2      1 MOL1        -0.6830
       4    C2      20.765721   19.005073   23.247214 C.3        1 MOL1        -0.2050
       5    H1      21.700053   19.270623   23.755532 H          1 MOL1         0.0710
       6    H2      19.952897   19.408057   23.862168 H          1 MOL1         0.0710
       7    C3      20.751686   19.646392   21.832579 C.3        1 MOL1        -0.1947
       8    H3      20.905661   20.729806   21.926789 H          1 MOL1         0.0712
       9    H4      21.608730   19.261942   21.262466 H          1 MOL1         0.0712
      10    C4      19.457257   19.384533   21.026431 C.3        1 MOL1        -0.1921
      11    H5      19.310125   18.303468   20.895093 H          1 MOL1         0.0712
      12    H6      19.578720   19.804623   20.018513 H          1 MOL1         0.0712
      13    C5      18.200524   20.002563   21.675356 C.3        1 MOL1        -0.2936
      14    H7      17.970603   19.521691   22.634723 H          1 MOL1         0.0724
      15    H8      17.328163   19.872625   21.021932 H          1 MOL1         0.0724
      16    H9      18.335568   21.077844   21.850286 H          1 MOL1         0.0724
@<TRIPOS>BOND
    1     1     2    1
    2     1     3    2
    3     1     4    1
    4     4     5    1
    5     4     6    1
    6     4     7    1
    7     7     8    1
    8     7     9    1
    9     7    10    1
   10    10    11    1
   11    10    12    1
   12    10    13    1
   13    13    14    1
   14    13    15    1
   15    13    16    1
@<TRIPOS>SUBSTRUCTURE
       1 MOL1            1 RESIDUE      1      MOL     
@<SCITEGIC>MOL_PROPERTY
VConf Rank
SciTegic.value.IntegerValue
137

@<SCITEGIC>MOL_PROPERTY
Conf_Id
SciTegic.value.IntegerValue
37

@<SCITEGIC>MOL_PROPERTY
Delta U+W
SciTegic.value.DoubleValue
1.063

@<SCITEGIC>MOL_PROPERTY
U+W
SciTegic.value.DoubleValue
-55.841

@<SCITEGIC>MOL_PROPERTY
Grad RMS
SciTegic.value.DoubleValue
0.000000

@<SCITEGIC>MOL_PROPERTY
U
SciTegic.value.DoubleValue
9.719

@<SCITEGIC>MOL_PROPERTY
W
SciTegic.value.DoubleValue
-65.560

@<SCITEGIC>MOL_PROPERTY
W(PB)
SciTegic.value.DoubleValue
-67.414

@<SCITEGIC>MOL_PROPERTY
W(SA)
SciTegic.value.DoubleValue
1.854

@<SCITEGIC>MOL_PROPERTY
Valence
SciTegic.value.DoubleValue
7.002

@<SCITEGIC>MOL_PROPERTY
Coulomb
SciTegic.value.DoubleValue
2.402

@<SCITEGIC>MOL_PROPERTY
VdW
SciTegic.value.DoubleValue
0.314

@<SCITEGIC>MOL_PROPERTY
VdW6
SciTegic.value.DoubleValue
-5.861

@<SCITEGIC>MOL_PROPERTY
VdW12
SciTegic.value.DoubleValue
6.175

@<SCITEGIC>MOL_PROPERTY
Bond
SciTegic.value.DoubleValue
0.134

@<SCITEGIC>MOL_PROPERTY
Angle
SciTegic.value.DoubleValue
2.733

@<SCITEGIC>MOL_PROPERTY
Pdih
SciTegic.value.DoubleValue
4.133

@<SCITEGIC>MOL_PROPERTY
Idih
SciTegic.value.DoubleValue
0.002

@<SCITEGIC>MOL_PROPERTY
Tether
SciTegic.value.DoubleValue
0.000

@<TRIPOS>MOLECULE
guest-s18_confgen4.mol2 : confsearch ligand conformer 138
          16          15           1
SMALL
USER_CHARGES
 
@<TRIPOS>ATOM
       1    C1      19.582512   17.335633   21.139194 C.2        1 MOL1         0.6075
       2    O1      20.349613   16.710978   20.433399 O.co2      1 MOL1        -0.6830
       3    O2      18.861261   16.817105   21.968185 O.co2      1 MOL1        -0.6830
       4    C2      19.497548   18.847561   20.947879 C.3        1 MOL1        -0.2050
       5    H1      18.592380   19.214875   21.444869 H          1 MOL1         0.0710
       6    H2      19.359726   19.032787   19.876162 H          1 MOL1         0.0710
       7    C3      20.748224   19.622826   21.445326 C.3        1 MOL1        -0.1947
       8    H3      21.627205   19.268285   20.889407 H          1 MOL1         0.0712
       9    H4      20.635062   20.686605   21.196449 H          1 MOL1         0.0712
      10    C4      21.025098   19.481437   22.961025 C.3        1 MOL1        -0.1921
      11    H5      21.968558   19.993020   23.196173 H          1 MOL1         0.0712
      12    H6      21.174978   18.423374   23.217222 H          1 MOL1         0.0712
      13    C5      19.904622   20.073358   23.842277 C.3        1 MOL1        -0.2936
      14    H7      19.710446   21.121851   23.581465 H          1 MOL1         0.0724
      15    H8      20.189233   20.034966   24.901703 H          1 MOL1         0.0724
      16    H9      18.969833   19.509487   23.729564 H          1 MOL1         0.0724
@<TRIPOS>BOND
    1     1     2    1
    2     1     3    2
    3     1     4    1
    4     4     5    1
    5     4     6    1
    6     4     7    1
    7     7     8    1
    8     7     9    1
    9     7    10    1
   10    10    11    1
   11    10    12    1
   12    10    13    1
   13    13    14    1
   14    13    15    1
   15    13    16    1
@<TRIPOS>SUBSTRUCTURE
       1 MOL1            1 RESIDUE      1      MOL     
@<SCITEGIC>MOL_PROPERTY
VConf Rank
SciTegic.value.IntegerValue
138

@<SCITEGIC>MOL_PROPERTY
Conf_Id
SciTegic.value.IntegerValue
39

@<SCITEGIC>MOL_PROPERTY
Delta U+W
SciTegic.value.DoubleValue
1.129

@<SCITEGIC>MOL_PROPERTY
U+W
SciTegic.value.DoubleValue
-55.775

@<SCITEGIC>MOL_PROPERTY
Grad RMS
SciTegic.value.DoubleValue
0.000000

@<SCITEGIC>MOL_PROPERTY
U
SciTegic.value.DoubleValue
9.718

@<SCITEGIC>MOL_PROPERTY
W
SciTegic.value.DoubleValue
-65.493

@<SCITEGIC>MOL_PROPERTY
W(PB)
SciTegic.value.DoubleValue
-67.361

@<SCITEGIC>MOL_PROPERTY
W(SA)
SciTegic.value.DoubleValue
1.869

@<SCITEGIC>MOL_PROPERTY
Valence
SciTegic.value.DoubleValue
7.002

@<SCITEGIC>MOL_PROPERTY
Coulomb
SciTegic.value.DoubleValue
2.402

@<SCITEGIC>MOL_PROPERTY
VdW
SciTegic.value.DoubleValue
0.314

@<SCITEGIC>MOL_PROPERTY
VdW6
SciTegic.value.DoubleValue
-5.861

@<SCITEGIC>MOL_PROPERTY
VdW12
SciTegic.value.DoubleValue
6.175

@<SCITEGIC>MOL_PROPERTY
Bond
SciTegic.value.DoubleValue
0.134

@<SCITEGIC>MOL_PROPERTY
Angle
SciTegic.value.DoubleValue
2.734

@<SCITEGIC>MOL_PROPERTY
Pdih
SciTegic.value.DoubleValue
4.133

@<SCITEGIC>MOL_PROPERTY
Idih
SciTegic.value.DoubleValue
0.002

@<SCITEGIC>MOL_PROPERTY
Tether
SciTegic.value.DoubleValue
0.000

@<TRIPOS>MOLECULE
guest-s18_confgen4.mol2 : confsearch ligand conformer 139
          16          15           1
SMALL
USER_CHARGES
 
@<TRIPOS>ATOM
       1    C1      21.818417   18.909612   21.752130 C.2        1 MOL1         0.6075
       2    O1      22.313396   19.997705   21.533340 O.co2      1 MOL1        -0.6830
       3    O2      21.936251   17.958878   21.004214 O.co2      1 MOL1        -0.6830
       4    C2      21.087792   18.703324   23.077758 C.3        1 MOL1        -0.2050
       5    H1      21.141744   19.629468   23.662843 H          1 MOL1         0.0710
       6    H2      21.659489   17.949389   23.631377 H          1 MOL1         0.0710
       7    C3      19.612220   18.229052   22.956359 C.3        1 MOL1        -0.1947
       8    H3      19.536726   17.427875   22.208057 H          1 MOL1         0.0712
       9    H4      19.321639   17.776855   23.914238 H          1 MOL1         0.0712
      10    C4      18.595885   19.351846   22.637049 C.3        1 MOL1        -0.1921
      11    H5      18.675892   20.151614   23.386182 H          1 MOL1         0.0712
      12    H6      17.581793   18.939868   22.732888 H          1 MOL1         0.0712
      13    C5      18.749322   19.948423   21.222539 C.3        1 MOL1        -0.2936
      14    H7      19.682388   20.517137   21.127925 H          1 MOL1         0.0724
      15    H8      17.921177   20.634660   21.003396 H          1 MOL1         0.0724
      16    H9      18.747159   19.159112   20.459445 H          1 MOL1         0.0724
@<TRIPOS>BOND
    1     1     2    1
    2     1     3    2
    3     1     4    1
    4     4     5    1
    5     4     6    1
    6     4     7    1
    7     7     8    1
    8     7     9    1
    9     7    10    1
   10    10    11    1
   11    10    12    1
   12    10    13    1
   13    13    14    1
   14    13    15    1
   15    13    16    1
@<TRIPOS>SUBSTRUCTURE
       1 MOL1            1 RESIDUE      1      MOL     
@<SCITEGIC>MOL_PROPERTY
VConf Rank
SciTegic.value.IntegerValue
139

@<SCITEGIC>MOL_PROPERTY
Conf_Id
SciTegic.value.IntegerValue
47

@<SCITEGIC>MOL_PROPERTY
Delta U+W
SciTegic.value.DoubleValue
2.301

@<SCITEGIC>MOL_PROPERTY
U+W
SciTegic.value.DoubleValue
-54.603

@<SCITEGIC>MOL_PROPERTY
Grad RMS
SciTegic.value.DoubleValue
0.000000

@<SCITEGIC>MOL_PROPERTY
U
SciTegic.value.DoubleValue
11.258

@<SCITEGIC>MOL_PROPERTY
W
SciTegic.value.DoubleValue
-65.861

@<SCITEGIC>MOL_PROPERTY
W(PB)
SciTegic.value.DoubleValue
-67.702

@<SCITEGIC>MOL_PROPERTY
W(SA)
SciTegic.value.DoubleValue
1.841

@<SCITEGIC>MOL_PROPERTY
Valence
SciTegic.value.DoubleValue
8.169

@<SCITEGIC>MOL_PROPERTY
Coulomb
SciTegic.value.DoubleValue
2.735

@<SCITEGIC>MOL_PROPERTY
VdW
SciTegic.value.DoubleValue
0.355

@<SCITEGIC>MOL_PROPERTY
VdW6
SciTegic.value.DoubleValue
-6.245

@<SCITEGIC>MOL_PROPERTY
VdW12
SciTegic.value.DoubleValue
6.600

@<SCITEGIC>MOL_PROPERTY
Bond
SciTegic.value.DoubleValue
0.149

@<SCITEGIC>MOL_PROPERTY
Angle
SciTegic.value.DoubleValue
3.168

@<SCITEGIC>MOL_PROPERTY
Pdih
SciTegic.value.DoubleValue
4.840

@<SCITEGIC>MOL_PROPERTY
Idih
SciTegic.value.DoubleValue
0.011

@<SCITEGIC>MOL_PROPERTY
Tether
SciTegic.value.DoubleValue
0.000

@<TRIPOS>MOLECULE
guest-s18_confgen4.mol2 : confsearch ligand conformer 140
          16          15           1
SMALL
USER_CHARGES
 
@<TRIPOS>ATOM
       1    C1      19.193893   17.498208   21.312096 C.2        1 MOL1         0.6075
       2    O1      20.117463   16.725675   21.146655 O.co2      1 MOL1        -0.6830
       3    O2      18.412230   17.803710   20.433181 O.co2      1 MOL1        -0.6830
       4    C2      18.947841   18.043856   22.717583 C.3        1 MOL1        -0.2050
       5    H1      18.736365   17.176022   23.353107 H          1 MOL1         0.0710
       6    H2      18.037179   18.655079   22.708718 H          1 MOL1         0.0710
       7    C3      20.127901   18.845896   23.334978 C.3        1 MOL1        -0.1947
       8    H3      19.991612   18.864590   24.424716 H          1 MOL1         0.0712
       9    H4      21.074203   18.316309   23.157239 H          1 MOL1         0.0712
      10    C4      20.239329   20.310886   22.848202 C.3        1 MOL1        -0.1921
      11    H5      20.994993   20.823395   23.459431 H          1 MOL1         0.0712
      12    H6      19.290845   20.836256   23.025952 H          1 MOL1         0.0712
      13    C5      20.637475   20.446467   21.363822 C.3        1 MOL1        -0.2936
      14    H7      20.836702   21.496581   21.114146 H          1 MOL1         0.0724
      15    H8      19.836058   20.096645   20.701738 H          1 MOL1         0.0724
      16    H9      21.544064   19.867441   21.144383 H          1 MOL1         0.0724
@<TRIPOS>BOND
    1     1     2    1
    2     1     3    2
    3     1     4    1
    4     4     5    1
    5     4     6    1
    6     4     7    1
    7     7     8    1
    8     7     9    1
    9     7    10    1
   10    10    11    1
   11    10    12    1
   12    10    13    1
   13    13    14    1
   14    13    15    1
   15    13    16    1
@<TRIPOS>SUBSTRUCTURE
       1 MOL1            1 RESIDUE      1      MOL     
@<SCITEGIC>MOL_PROPERTY
VConf Rank
SciTegic.value.IntegerValue
140

@<SCITEGIC>MOL_PROPERTY
Conf_Id
SciTegic.value.IntegerValue
45

@<SCITEGIC>MOL_PROPERTY
Delta U+W
SciTegic.value.DoubleValue
2.303

@<SCITEGIC>MOL_PROPERTY
U+W
SciTegic.value.DoubleValue
-54.601

@<SCITEGIC>MOL_PROPERTY
Grad RMS
SciTegic.value.DoubleValue
0.000000

@<SCITEGIC>MOL_PROPERTY
U
SciTegic.value.DoubleValue
11.258

@<SCITEGIC>MOL_PROPERTY
W
SciTegic.value.DoubleValue
-65.860

@<SCITEGIC>MOL_PROPERTY
W(PB)
SciTegic.value.DoubleValue
-67.709

@<SCITEGIC>MOL_PROPERTY
W(SA)
SciTegic.value.DoubleValue
1.849

@<SCITEGIC>MOL_PROPERTY
Valence
SciTegic.value.DoubleValue
8.169

@<SCITEGIC>MOL_PROPERTY
Coulomb
SciTegic.value.DoubleValue
2.735

@<SCITEGIC>MOL_PROPERTY
VdW
SciTegic.value.DoubleValue
0.355

@<SCITEGIC>MOL_PROPERTY
VdW6
SciTegic.value.DoubleValue
-6.245

@<SCITEGIC>MOL_PROPERTY
VdW12
SciTegic.value.DoubleValue
6.600

@<SCITEGIC>MOL_PROPERTY
Bond
SciTegic.value.DoubleValue
0.149

@<SCITEGIC>MOL_PROPERTY
Angle
SciTegic.value.DoubleValue
3.168

@<SCITEGIC>MOL_PROPERTY
Pdih
SciTegic.value.DoubleValue
4.840

@<SCITEGIC>MOL_PROPERTY
Idih
SciTegic.value.DoubleValue
0.011

@<SCITEGIC>MOL_PROPERTY
Tether
SciTegic.value.DoubleValue
0.000

@<TRIPOS>MOLECULE
guest-s18_confgen4.mol2 : confsearch ligand conformer 141
          16          15           1
SMALL
USER_CHARGES
 
@<TRIPOS>ATOM
       1    C1      19.426772   20.684478   24.129768 C.2        1 MOL1         0.6075
       2    O1      20.434193   20.371158   24.733681 O.co2      1 MOL1        -0.6830
       3    O2      18.599732   21.454172   24.575738 O.co2      1 MOL1        -0.6830
       4    C2      19.159345   20.099266   22.741999 C.3        1 MOL1        -0.2050
       5    H1      19.050823   20.940643   22.047399 H          1 MOL1         0.0710
       6    H2      18.189190   19.590065   22.782954 H          1 MOL1         0.0710
       7    C3      20.242255   19.120951   22.214219 C.3        1 MOL1        -0.1947
       8    H3      21.212857   19.635021   22.180563 H          1 MOL1         0.0712
       9    H4      20.350322   18.283050   22.916866 H          1 MOL1         0.0712
      10    C4      19.892341   18.580444   20.811838 C.3        1 MOL1        -0.1921
      11    H5      19.785711   19.417332   20.107744 H          1 MOL1         0.0712
      12    H6      18.922657   18.064548   20.844475 H          1 MOL1         0.0712
      13    C5      20.971432   17.609530   20.293157 C.3        1 MOL1        -0.2936
      14    H7      21.946661   18.108668   20.220633 H          1 MOL1         0.0724
      15    H8      20.707392   17.234754   19.295676 H          1 MOL1         0.0724
      16    H9      21.077243   16.745901   20.962797 H          1 MOL1         0.0724
@<TRIPOS>BOND
    1     1     2    1
    2     1     3    2
    3     1     4    1
    4     4     5    1
    5     4     6    1
    6     4     7    1
    7     7     8    1
    8     7     9    1
    9     7    10    1
   10    10    11    1
   11    10    12    1
   12    10    13    1
   13    13    14    1
   14    13    15    1
   15    13    16    1
@<TRIPOS>SUBSTRUCTURE
       1 MOL1            1 RESIDUE      1      MOL     
@<SCITEGIC>MOL_PROPERTY
VConf Rank
SciTegic.value.IntegerValue
141

@<SCITEGIC>MOL_PROPERTY
Conf_Id
SciTegic.value.IntegerValue
0

@<SCITEGIC>MOL_PROPERTY
Delta U+W
SciTegic.value.DoubleValue
0.000

@<SCITEGIC>MOL_PROPERTY
U+W
SciTegic.value.DoubleValue
-56.904

@<SCITEGIC>MOL_PROPERTY
Grad RMS
SciTegic.value.DoubleValue
0.000000

@<SCITEGIC>MOL_PROPERTY
U
SciTegic.value.DoubleValue
7.329

@<SCITEGIC>MOL_PROPERTY
W
SciTegic.value.DoubleValue
-64.233

@<SCITEGIC>MOL_PROPERTY
W(PB)
SciTegic.value.DoubleValue
-66.148

@<SCITEGIC>MOL_PROPERTY
W(SA)
SciTegic.value.DoubleValue
1.915

@<SCITEGIC>MOL_PROPERTY
Valence
SciTegic.value.DoubleValue
6.755

@<SCITEGIC>MOL_PROPERTY
Coulomb
SciTegic.value.DoubleValue
-0.421

@<SCITEGIC>MOL_PROPERTY
VdW
SciTegic.value.DoubleValue
0.995

@<SCITEGIC>MOL_PROPERTY
VdW6
SciTegic.value.DoubleValue
-4.495

@<SCITEGIC>MOL_PROPERTY
VdW12
SciTegic.value.DoubleValue
5.490

@<SCITEGIC>MOL_PROPERTY
Bond
SciTegic.value.DoubleValue
0.106

@<SCITEGIC>MOL_PROPERTY
Angle
SciTegic.value.DoubleValue
2.715

@<SCITEGIC>MOL_PROPERTY
Pdih
SciTegic.value.DoubleValue
3.934

@<SCITEGIC>MOL_PROPERTY
Idih
SciTegic.value.DoubleValue
0.000

@<SCITEGIC>MOL_PROPERTY
Tether
SciTegic.value.DoubleValue
0.000

@<TRIPOS>MOLECULE
guest-s18_confgen4.mol2 : confsearch ligand conformer 142
          16          15           1
SMALL
USER_CHARGES
 
@<TRIPOS>ATOM
       1    C1      20.416773   16.855265   20.464650 C.2        1 MOL1         0.6075
       2    O1      21.176120   16.981274   19.524779 O.co2      1 MOL1        -0.6830
       3    O2      20.275431   15.817289   21.079850 O.co2      1 MOL1        -0.6830
       4    C2      19.610567   18.071105   20.907763 C.3        1 MOL1        -0.2050
       5    H1      18.650124   17.718089   21.302450 H          1 MOL1         0.0710
       6    H2      19.392798   18.677782   20.020424 H          1 MOL1         0.0710
       7    C3      20.343374   18.925125   21.971578 C.3        1 MOL1        -0.1947
       8    H3      20.565363   18.300879   22.848269 H          1 MOL1         0.0712
       9    H4      21.308109   19.260564   21.566214 H          1 MOL1         0.0712
      10    C4      19.506694   20.147880   22.402156 C.3        1 MOL1        -0.1921
      11    H5      18.542131   19.812815   22.808219 H          1 MOL1         0.0712
      12    H6      19.285034   20.772732   21.525820 H          1 MOL1         0.0712
      13    C5      20.242128   20.993089   23.460863 C.3        1 MOL1        -0.2936
      14    H7      21.197280   21.367844   23.070078 H          1 MOL1         0.0724
      15    H8      20.448911   20.400828   24.361940 H          1 MOL1         0.0724
      16    H9      19.633906   21.858033   23.755968 H          1 MOL1         0.0724
@<TRIPOS>BOND
    1     1     2    1
    2     1     3    2
    3     1     4    1
    4     4     5    1
    5     4     6    1
    6     4     7    1
    7     7     8    1
    8     7     9    1
    9     7    10    1
   10    10    11    1
   11    10    12    1
   12    10    13    1
   13    13    14    1
   14    13    15    1
   15    13    16    1
@<TRIPOS>SUBSTRUCTURE
       1 MOL1            1 RESIDUE      1      MOL     
@<SCITEGIC>MOL_PROPERTY
VConf Rank
SciTegic.value.IntegerValue
142

@<SCITEGIC>MOL_PROPERTY
Conf_Id
SciTegic.value.IntegerValue
22

@<SCITEGIC>MOL_PROPERTY
Delta U+W
SciTegic.value.DoubleValue
-1.185

@<SCITEGIC>MOL_PROPERTY
U+W
SciTegic.value.DoubleValue
-58.089

@<SCITEGIC>MOL_PROPERTY
Grad RMS
SciTegic.value.DoubleValue
0.000000

@<SCITEGIC>MOL_PROPERTY
U
SciTegic.value.DoubleValue
6.298

@<SCITEGIC>MOL_PROPERTY
W
SciTegic.value.DoubleValue
-64.387

@<SCITEGIC>MOL_PROPERTY
W(PB)
SciTegic.value.DoubleValue
-66.329

@<SCITEGIC>MOL_PROPERTY
W(SA)
SciTegic.value.DoubleValue
1.942

@<SCITEGIC>MOL_PROPERTY
Valence
SciTegic.value.DoubleValue
6.246

@<SCITEGIC>MOL_PROPERTY
Coulomb
SciTegic.value.DoubleValue
-0.408

@<SCITEGIC>MOL_PROPERTY
VdW
SciTegic.value.DoubleValue
0.460

@<SCITEGIC>MOL_PROPERTY
VdW6
SciTegic.value.DoubleValue
-4.207

@<SCITEGIC>MOL_PROPERTY
VdW12
SciTegic.value.DoubleValue
4.667

@<SCITEGIC>MOL_PROPERTY
Bond
SciTegic.value.DoubleValue
0.072

@<SCITEGIC>MOL_PROPERTY
Angle
SciTegic.value.DoubleValue
2.246

@<SCITEGIC>MOL_PROPERTY
Pdih
SciTegic.value.DoubleValue
3.928

@<SCITEGIC>MOL_PROPERTY
Idih
SciTegic.value.DoubleValue
0.001

@<SCITEGIC>MOL_PROPERTY
Tether
SciTegic.value.DoubleValue
0.000

@<TRIPOS>MOLECULE
guest-s18_confgen4.mol2 : confsearch ligand conformer 143
          16          15           1
SMALL
USER_CHARGES
 
@<TRIPOS>ATOM
       1    C1      22.153222   17.799408   21.678737 C.2        1 MOL1         0.6075
       2    O1      23.121058   17.957550   22.395870 O.co2      1 MOL1        -0.6830
       3    O2      22.212446   17.306499   20.569913 O.co2      1 MOL1        -0.6830
       4    C2      20.793923   18.263184   22.190391 C.3        1 MOL1        -0.2050
       5    H1      20.779296   18.137916   23.279731 H          1 MOL1         0.0710
       6    H2      20.033592   17.591608   21.775664 H          1 MOL1         0.0710
       7    C3      20.481890   19.735859   21.817755 C.3        1 MOL1        -0.1947
       8    H3      21.305080   20.371789   22.171846 H          1 MOL1         0.0712
       9    H4      20.457175   19.839917   20.724197 H          1 MOL1         0.0712
      10    C4      19.157185   20.256066   22.421867 C.3        1 MOL1        -0.1921
      11    H5      19.066860   21.329154   22.203617 H          1 MOL1         0.0712
      12    H6      19.186366   20.162994   23.516338 H          1 MOL1         0.0712
      13    C5      17.910904   19.529755   21.872149 C.3        1 MOL1        -0.2936
      14    H7      17.901425   18.472399   22.164877 H          1 MOL1         0.0724
      15    H8      17.875655   19.584662   20.776251 H          1 MOL1         0.0724
      16    H9      16.994640   19.990814   22.263164 H          1 MOL1         0.0724
@<TRIPOS>BOND
    1     1     2    1
    2     1     3    2
    3     1     4    1
    4     4     5    1
    5     4     6    1
    6     4     7    1
    7     7     8    1
    8     7     9    1
    9     7    10    1
   10    10    11    1
   11    10    12    1
   12    10    13    1
   13    13    14    1
   14    13    15    1
   15    13    16    1
@<TRIPOS>SUBSTRUCTURE
       1 MOL1            1 RESIDUE      1      MOL     
@<SCITEGIC>MOL_PROPERTY
VConf Rank
SciTegic.value.IntegerValue
143

@<SCITEGIC>MOL_PROPERTY
Conf_Id
SciTegic.value.IntegerValue
36

@<SCITEGIC>MOL_PROPERTY
Delta U+W
SciTegic.value.DoubleValue
-0.427

@<SCITEGIC>MOL_PROPERTY
U+W
SciTegic.value.DoubleValue
-57.331

@<SCITEGIC>MOL_PROPERTY
Grad RMS
SciTegic.value.DoubleValue
0.000000

@<SCITEGIC>MOL_PROPERTY
U
SciTegic.value.DoubleValue
7.263

@<SCITEGIC>MOL_PROPERTY
W
SciTegic.value.DoubleValue
-64.594

@<SCITEGIC>MOL_PROPERTY
W(PB)
SciTegic.value.DoubleValue
-66.513

@<SCITEGIC>MOL_PROPERTY
W(SA)
SciTegic.value.DoubleValue
1.920

@<SCITEGIC>MOL_PROPERTY
Valence
SciTegic.value.DoubleValue
6.734

@<SCITEGIC>MOL_PROPERTY
Coulomb
SciTegic.value.DoubleValue
-0.068

@<SCITEGIC>MOL_PROPERTY
VdW
SciTegic.value.DoubleValue
0.598

@<SCITEGIC>MOL_PROPERTY
VdW6
SciTegic.value.DoubleValue
-4.819

@<SCITEGIC>MOL_PROPERTY
VdW12
SciTegic.value.DoubleValue
5.417

@<SCITEGIC>MOL_PROPERTY
Bond
SciTegic.value.DoubleValue
0.107

@<SCITEGIC>MOL_PROPERTY
Angle
SciTegic.value.DoubleValue
2.469

@<SCITEGIC>MOL_PROPERTY
Pdih
SciTegic.value.DoubleValue
4.157

@<SCITEGIC>MOL_PROPERTY
Idih
SciTegic.value.DoubleValue
0.001

@<SCITEGIC>MOL_PROPERTY
Tether
SciTegic.value.DoubleValue
0.000

@<TRIPOS>MOLECULE
guest-s18_confgen4.mol2 : confsearch ligand conformer 144
          16          15           1
SMALL
USER_CHARGES
 
@<TRIPOS>ATOM
       1    C1      17.624264   19.196245   20.884670 C.2        1 MOL1         0.6075
       2    O1      17.438892   20.244970   20.300058 O.co2      1 MOL1        -0.6830
       3    O2      16.728546   18.447656   21.221271 O.co2      1 MOL1        -0.6830
       4    C2      19.056929   18.807807   21.232750 C.3        1 MOL1        -0.2050
       5    H1      19.709574   19.192833   20.440962 H          1 MOL1         0.0710
       6    H2      19.128243   17.713753   21.209802 H          1 MOL1         0.0710
       7    C3      19.505503   19.343482   22.617245 C.3        1 MOL1        -0.1947
       8    H3      19.470677   20.441702   22.614205 H          1 MOL1         0.0712
       9    H4      18.782591   19.011797   23.375408 H          1 MOL1         0.0712
      10    C4      20.916068   18.866913   23.033894 C.3        1 MOL1        -0.1921
      11    H5      20.947737   17.768657   23.048373 H          1 MOL1         0.0712
      12    H6      21.110483   19.196934   24.063747 H          1 MOL1         0.0712
      13    C5      22.035871   19.406518   22.118581 C.3        1 MOL1        -0.2936
      14    H7      21.946952   19.009518   21.099627 H          1 MOL1         0.0724
      15    H8      23.021004   19.113683   22.504286 H          1 MOL1         0.0724
      16    H9      22.005954   20.502670   22.065600 H          1 MOL1         0.0724
@<TRIPOS>BOND
    1     1     2    1
    2     1     3    2
    3     1     4    1
    4     4     5    1
    5     4     6    1
    6     4     7    1
    7     7     8    1
    8     7     9    1
    9     7    10    1
   10    10    11    1
   11    10    12    1
   12    10    13    1
   13    13    14    1
   14    13    15    1
   15    13    16    1
@<TRIPOS>SUBSTRUCTURE
       1 MOL1            1 RESIDUE      1      MOL     
@<SCITEGIC>MOL_PROPERTY
VConf Rank
SciTegic.value.IntegerValue
144

@<SCITEGIC>MOL_PROPERTY
Conf_Id
SciTegic.value.IntegerValue
17

@<SCITEGIC>MOL_PROPERTY
Delta U+W
SciTegic.value.DoubleValue
-0.432

@<SCITEGIC>MOL_PROPERTY
U+W
SciTegic.value.DoubleValue
-57.336

@<SCITEGIC>MOL_PROPERTY
Grad RMS
SciTegic.value.DoubleValue
0.000000

@<SCITEGIC>MOL_PROPERTY
U
SciTegic.value.DoubleValue
7.263

@<SCITEGIC>MOL_PROPERTY
W
SciTegic.value.DoubleValue
-64.599

@<SCITEGIC>MOL_PROPERTY
W(PB)
SciTegic.value.DoubleValue
-66.503

@<SCITEGIC>MOL_PROPERTY
W(SA)
SciTegic.value.DoubleValue
1.904

@<SCITEGIC>MOL_PROPERTY
Valence
SciTegic.value.DoubleValue
6.734

@<SCITEGIC>MOL_PROPERTY
Coulomb
SciTegic.value.DoubleValue
-0.068

@<SCITEGIC>MOL_PROPERTY
VdW
SciTegic.value.DoubleValue
0.598

@<SCITEGIC>MOL_PROPERTY
VdW6
SciTegic.value.DoubleValue
-4.819

@<SCITEGIC>MOL_PROPERTY
VdW12
SciTegic.value.DoubleValue
5.417

@<SCITEGIC>MOL_PROPERTY
Bond
SciTegic.value.DoubleValue
0.107

@<SCITEGIC>MOL_PROPERTY
Angle
SciTegic.value.DoubleValue
2.469

@<SCITEGIC>MOL_PROPERTY
Pdih
SciTegic.value.DoubleValue
4.157

@<SCITEGIC>MOL_PROPERTY
Idih
SciTegic.value.DoubleValue
0.001

@<SCITEGIC>MOL_PROPERTY
Tether
SciTegic.value.DoubleValue
0.000

@<TRIPOS>MOLECULE
guest-s18_confgen4.mol2 : confsearch ligand conformer 145
          16          15           1
SMALL
USER_CHARGES
 
@<TRIPOS>ATOM
       1    C1      19.186085   17.284686   23.220818 C.2        1 MOL1         0.6075
       2    O1      19.882571   16.852660   24.117814 O.co2      1 MOL1        -0.6830
       3    O2      18.003038   17.530281   23.348667 O.co2      1 MOL1        -0.6830
       4    C2      19.828427   17.507379   21.854327 C.3        1 MOL1        -0.2050
       5    H1      19.035744   17.553162   21.097596 H          1 MOL1         0.0710
       6    H2      20.432530   16.620959   21.627275 H          1 MOL1         0.0710
       7    C3      20.718903   18.774478   21.773410 C.3        1 MOL1        -0.1947
       8    H3      21.490013   18.728192   22.554992 H          1 MOL1         0.0712
       9    H4      21.245600   18.778989   20.809497 H          1 MOL1         0.0712
      10    C4      19.907652   20.080525   21.915873 C.3        1 MOL1        -0.1921
      11    H5      19.392189   20.096407   22.886321 H          1 MOL1         0.0712
      12    H6      19.129080   20.119542   21.141483 H          1 MOL1         0.0712
      13    C5      20.811077   21.324026   21.798093 C.3        1 MOL1        -0.2936
      14    H7      21.580602   21.325589   22.581215 H          1 MOL1         0.0724
      15    H8      20.219518   22.242889   21.902335 H          1 MOL1         0.0724
      16    H9      21.314073   21.353518   20.822623 H          1 MOL1         0.0724
@<TRIPOS>BOND
    1     1     2    1
    2     1     3    2
    3     1     4    1
    4     4     5    1
    5     4     6    1
    6     4     7    1
    7     7     8    1
    8     7     9    1
    9     7    10    1
   10    10    11    1
   11    10    12    1
   12    10    13    1
   13    13    14    1
   14    13    15    1
   15    13    16    1
@<TRIPOS>SUBSTRUCTURE
       1 MOL1            1 RESIDUE      1      MOL     
@<SCITEGIC>MOL_PROPERTY
VConf Rank
SciTegic.value.IntegerValue
145

@<SCITEGIC>MOL_PROPERTY
Conf_Id
SciTegic.value.IntegerValue
19

@<SCITEGIC>MOL_PROPERTY
Delta U+W
SciTegic.value.DoubleValue
0.048

@<SCITEGIC>MOL_PROPERTY
U+W
SciTegic.value.DoubleValue
-56.856

@<SCITEGIC>MOL_PROPERTY
Grad RMS
SciTegic.value.DoubleValue
0.000000

@<SCITEGIC>MOL_PROPERTY
U
SciTegic.value.DoubleValue
8.276

@<SCITEGIC>MOL_PROPERTY
W
SciTegic.value.DoubleValue
-65.132

@<SCITEGIC>MOL_PROPERTY
W(PB)
SciTegic.value.DoubleValue
-67.031

@<SCITEGIC>MOL_PROPERTY
W(SA)
SciTegic.value.DoubleValue
1.899

@<SCITEGIC>MOL_PROPERTY
Valence
SciTegic.value.DoubleValue
6.513

@<SCITEGIC>MOL_PROPERTY
Coulomb
SciTegic.value.DoubleValue
1.428

@<SCITEGIC>MOL_PROPERTY
VdW
SciTegic.value.DoubleValue
0.335

@<SCITEGIC>MOL_PROPERTY
VdW6
SciTegic.value.DoubleValue
-5.021

@<SCITEGIC>MOL_PROPERTY
VdW12
SciTegic.value.DoubleValue
5.356

@<SCITEGIC>MOL_PROPERTY
Bond
SciTegic.value.DoubleValue
0.092

@<SCITEGIC>MOL_PROPERTY
Angle
SciTegic.value.DoubleValue
2.417

@<SCITEGIC>MOL_PROPERTY
Pdih
SciTegic.value.DoubleValue
4.003

@<SCITEGIC>MOL_PROPERTY
Idih
SciTegic.value.DoubleValue
0.001

@<SCITEGIC>MOL_PROPERTY
Tether
SciTegic.value.DoubleValue
0.000

@<TRIPOS>MOLECULE
guest-s18_confgen4.mol2 : confsearch ligand conformer 146
          16          15           1
SMALL
USER_CHARGES
 
@<TRIPOS>ATOM
       1    C1      21.961207   20.232533   22.342213 C.2        1 MOL1         0.6075
       2    O1      22.049843   21.277937   21.729337 O.co2      1 MOL1        -0.6830
       3    O2      22.801939   19.356388   22.299779 O.co2      1 MOL1        -0.6830
       4    C2      20.738516   20.020555   23.230802 C.3        1 MOL1        -0.2050
       5    H1      20.584988   20.943007   23.803293 H          1 MOL1         0.0710
       6    H2      20.965711   19.230716   23.957177 H          1 MOL1         0.0710
       7    C3      19.443224   19.674071   22.451564 C.3        1 MOL1        -0.1947
       8    H3      18.595456   19.677315   23.150018 H          1 MOL1         0.0712
       9    H4      19.244097   20.459077   21.708773 H          1 MOL1         0.0712
      10    C4      19.520655   18.299731   21.752004 C.3        1 MOL1        -0.1921
      11    H5      19.732068   17.517487   22.494148 H          1 MOL1         0.0712
      12    H6      20.353579   18.291598   21.035139 H          1 MOL1         0.0712
      13    C5      18.209356   17.965447   21.013694 C.3        1 MOL1        -0.2936
      14    H7      17.362610   17.932346   21.711791 H          1 MOL1         0.0724
      15    H8      18.281444   16.986765   20.521656 H          1 MOL1         0.0724
      16    H9      17.990105   18.716704   20.243633 H          1 MOL1         0.0724
@<TRIPOS>BOND
    1     1     2    1
    2     1     3    2
    3     1     4    1
    4     4     5    1
    5     4     6    1
    6     4     7    1
    7     7     8    1
    8     7     9    1
    9     7    10    1
   10    10    11    1
   11    10    12    1
   12    10    13    1
   13    13    14    1
   14    13    15    1
   15    13    16    1
@<TRIPOS>SUBSTRUCTURE
       1 MOL1            1 RESIDUE      1      MOL     
@<SCITEGIC>MOL_PROPERTY
VConf Rank
SciTegic.value.IntegerValue
146

@<SCITEGIC>MOL_PROPERTY
Conf_Id
SciTegic.value.IntegerValue
20

@<SCITEGIC>MOL_PROPERTY
Delta U+W
SciTegic.value.DoubleValue
-0.010

@<SCITEGIC>MOL_PROPERTY
U+W
SciTegic.value.DoubleValue
-56.914

@<SCITEGIC>MOL_PROPERTY
Grad RMS
SciTegic.value.DoubleValue
0.000000

@<SCITEGIC>MOL_PROPERTY
U
SciTegic.value.DoubleValue
8.277

@<SCITEGIC>MOL_PROPERTY
W
SciTegic.value.DoubleValue
-65.191

@<SCITEGIC>MOL_PROPERTY
W(PB)
SciTegic.value.DoubleValue
-67.081

@<SCITEGIC>MOL_PROPERTY
W(SA)
SciTegic.value.DoubleValue
1.890

@<SCITEGIC>MOL_PROPERTY
Valence
SciTegic.value.DoubleValue
6.513

@<SCITEGIC>MOL_PROPERTY
Coulomb
SciTegic.value.DoubleValue
1.429

@<SCITEGIC>MOL_PROPERTY
VdW
SciTegic.value.DoubleValue
0.335

@<SCITEGIC>MOL_PROPERTY
VdW6
SciTegic.value.DoubleValue
-5.021

@<SCITEGIC>MOL_PROPERTY
VdW12
SciTegic.value.DoubleValue
5.356

@<SCITEGIC>MOL_PROPERTY
Bond
SciTegic.value.DoubleValue
0.092

@<SCITEGIC>MOL_PROPERTY
Angle
SciTegic.value.DoubleValue
2.417

@<SCITEGIC>MOL_PROPERTY
Pdih
SciTegic.value.DoubleValue
4.002

@<SCITEGIC>MOL_PROPERTY
Idih
SciTegic.value.DoubleValue
0.001

@<SCITEGIC>MOL_PROPERTY
Tether
SciTegic.value.DoubleValue
0.000

@<TRIPOS>MOLECULE
guest-s18_confgen4.mol2 : confsearch ligand conformer 147
          16          15           1
SMALL
USER_CHARGES
 
@<TRIPOS>ATOM
       1    C1      19.273029   20.966028   23.179535 C.2        1 MOL1         0.6075
       2    O1      19.168655   21.049703   24.387380 O.co2      1 MOL1        -0.6830
       3    O2      18.439491   21.390026   22.403815 O.co2      1 MOL1        -0.6830
       4    C2      20.534969   20.324403   22.608947 C.3        1 MOL1        -0.2050
       5    H1      21.392522   20.806727   23.092524 H          1 MOL1         0.0710
       6    H2      20.602647   20.568575   21.542623 H          1 MOL1         0.0710
       7    C3      20.621328   18.788725   22.825543 C.3        1 MOL1        -0.1947
       8    H3      21.591106   18.427151   22.457894 H          1 MOL1         0.0712
       9    H4      20.605075   18.583244   23.904834 H          1 MOL1         0.0712
      10    C4      19.487529   17.984112   22.146509 C.3        1 MOL1        -0.1921
      11    H5      18.512361   18.312782   22.532022 H          1 MOL1         0.0712
      12    H6      19.589807   16.926474   22.425916 H          1 MOL1         0.0712
      13    C5      19.499543   18.095857   20.607090 C.3        1 MOL1        -0.2936
      14    H7      19.277007   19.119763   20.280622 H          1 MOL1         0.0724
      15    H8      18.740049   17.435683   20.168683 H          1 MOL1         0.0724
      16    H9      20.476481   17.806495   20.198522 H          1 MOL1         0.0724
@<TRIPOS>BOND
    1     1     2    1
    2     1     3    2
    3     1     4    1
    4     4     5    1
    5     4     6    1
    6     4     7    1
    7     7     8    1
    8     7     9    1
    9     7    10    1
   10    10    11    1
   11    10    12    1
   12    10    13    1
   13    13    14    1
   14    13    15    1
   15    13    16    1
@<TRIPOS>SUBSTRUCTURE
       1 MOL1            1 RESIDUE      1      MOL     
@<SCITEGIC>MOL_PROPERTY
VConf Rank
SciTegic.value.IntegerValue
147

@<SCITEGIC>MOL_PROPERTY
Conf_Id
SciTegic.value.IntegerValue
37

@<SCITEGIC>MOL_PROPERTY
Delta U+W
SciTegic.value.DoubleValue
1.063

@<SCITEGIC>MOL_PROPERTY
U+W
SciTegic.value.DoubleValue
-55.841

@<SCITEGIC>MOL_PROPERTY
Grad RMS
SciTegic.value.DoubleValue
0.000000

@<SCITEGIC>MOL_PROPERTY
U
SciTegic.value.DoubleValue
9.719

@<SCITEGIC>MOL_PROPERTY
W
SciTegic.value.DoubleValue
-65.560

@<SCITEGIC>MOL_PROPERTY
W(PB)
SciTegic.value.DoubleValue
-67.414

@<SCITEGIC>MOL_PROPERTY
W(SA)
SciTegic.value.DoubleValue
1.854

@<SCITEGIC>MOL_PROPERTY
Valence
SciTegic.value.DoubleValue
7.002

@<SCITEGIC>MOL_PROPERTY
Coulomb
SciTegic.value.DoubleValue
2.402

@<SCITEGIC>MOL_PROPERTY
VdW
SciTegic.value.DoubleValue
0.314

@<SCITEGIC>MOL_PROPERTY
VdW6
SciTegic.value.DoubleValue
-5.861

@<SCITEGIC>MOL_PROPERTY
VdW12
SciTegic.value.DoubleValue
6.175

@<SCITEGIC>MOL_PROPERTY
Bond
SciTegic.value.DoubleValue
0.134

@<SCITEGIC>MOL_PROPERTY
Angle
SciTegic.value.DoubleValue
2.733

@<SCITEGIC>MOL_PROPERTY
Pdih
SciTegic.value.DoubleValue
4.133

@<SCITEGIC>MOL_PROPERTY
Idih
SciTegic.value.DoubleValue
0.002

@<SCITEGIC>MOL_PROPERTY
Tether
SciTegic.value.DoubleValue
0.000

@<TRIPOS>MOLECULE
guest-s18_confgen4.mol2 : confsearch ligand conformer 148
          16          15           1
SMALL
USER_CHARGES
 
@<TRIPOS>ATOM
       1    C1      21.870151   18.017421   21.569928 C.2        1 MOL1         0.6075
       2    O1      22.479992   18.239023   20.542420 O.co2      1 MOL1        -0.6830
       3    O2      22.408924   17.846124   22.645419 O.co2      1 MOL1        -0.6830
       4    C2      20.349026   17.915005   21.496195 C.3        1 MOL1        -0.2050
       5    H1      19.982394   17.450984   22.418971 H          1 MOL1         0.0710
       6    H2      20.108630   17.220168   20.682996 H          1 MOL1         0.0710
       7    C3      19.632013   19.269242   21.242000 C.3        1 MOL1        -0.1947
       8    H3      19.982350   19.679661   20.284830 H          1 MOL1         0.0712
       9    H4      18.554829   19.089868   21.124224 H          1 MOL1         0.0712
      10    C4      19.853775   20.326155   22.350038 C.3        1 MOL1        -0.1921
      11    H5      19.379250   21.267186   22.039529 H          1 MOL1         0.0712
      12    H6      20.926575   20.540455   22.453835 H          1 MOL1         0.0712
      13    C5      19.275769   19.904627   23.717760 C.3        1 MOL1        -0.2936
      14    H7      18.211131   19.650379   23.634275 H          1 MOL1         0.0724
      15    H8      19.372837   20.722290   24.443616 H          1 MOL1         0.0724
      16    H9      19.808651   19.035560   24.124265 H          1 MOL1         0.0724
@<TRIPOS>BOND
    1     1     2    1
    2     1     3    2
    3     1     4    1
    4     4     5    1
    5     4     6    1
    6     4     7    1
    7     7     8    1
    8     7     9    1
    9     7    10    1
   10    10    11    1
   11    10    12    1
   12    10    13    1
   13    13    14    1
   14    13    15    1
   15    13    16    1
@<TRIPOS>SUBSTRUCTURE
       1 MOL1            1 RESIDUE      1      MOL     
@<SCITEGIC>MOL_PROPERTY
VConf Rank
SciTegic.value.IntegerValue
148

@<SCITEGIC>MOL_PROPERTY
Conf_Id
SciTegic.value.IntegerValue
39

@<SCITEGIC>MOL_PROPERTY
Delta U+W
SciTegic.value.DoubleValue
1.129

@<SCITEGIC>MOL_PROPERTY
U+W
SciTegic.value.DoubleValue
-55.775

@<SCITEGIC>MOL_PROPERTY
Grad RMS
SciTegic.value.DoubleValue
0.000000

@<SCITEGIC>MOL_PROPERTY
U
SciTegic.value.DoubleValue
9.718

@<SCITEGIC>MOL_PROPERTY
W
SciTegic.value.DoubleValue
-65.493

@<SCITEGIC>MOL_PROPERTY
W(PB)
SciTegic.value.DoubleValue
-67.361

@<SCITEGIC>MOL_PROPERTY
W(SA)
SciTegic.value.DoubleValue
1.869

@<SCITEGIC>MOL_PROPERTY
Valence
SciTegic.value.DoubleValue
7.002

@<SCITEGIC>MOL_PROPERTY
Coulomb
SciTegic.value.DoubleValue
2.402

@<SCITEGIC>MOL_PROPERTY
VdW
SciTegic.value.DoubleValue
0.314

@<SCITEGIC>MOL_PROPERTY
VdW6
SciTegic.value.DoubleValue
-5.861

@<SCITEGIC>MOL_PROPERTY
VdW12
SciTegic.value.DoubleValue
6.175

@<SCITEGIC>MOL_PROPERTY
Bond
SciTegic.value.DoubleValue
0.134

@<SCITEGIC>MOL_PROPERTY
Angle
SciTegic.value.DoubleValue
2.734

@<SCITEGIC>MOL_PROPERTY
Pdih
SciTegic.value.DoubleValue
4.133

@<SCITEGIC>MOL_PROPERTY
Idih
SciTegic.value.DoubleValue
0.002

@<SCITEGIC>MOL_PROPERTY
Tether
SciTegic.value.DoubleValue
0.000

@<TRIPOS>MOLECULE
guest-s18_confgen4.mol2 : confsearch ligand conformer 149
          16          15           1
SMALL
USER_CHARGES
 
@<TRIPOS>ATOM
       1    C1      20.920812   20.580295   21.440476 C.2        1 MOL1         0.6075
       2    O1      22.119047   20.399330   21.531603 O.co2      1 MOL1        -0.6830
       3    O2      20.378718   21.628066   21.732826 O.co2      1 MOL1        -0.6830
       4    C2      20.066413   19.463686   20.843112 C.3        1 MOL1        -0.2050
       5    H1      20.717819   18.626941   20.562918 H          1 MOL1         0.0710
       6    H2      19.647661   19.860364   19.910887 H          1 MOL1         0.0710
       7    C3      18.903939   18.961633   21.745098 C.3        1 MOL1        -0.1947
       8    H3      18.377461   19.818090   22.188769 H          1 MOL1         0.0712
       9    H4      18.170780   18.455450   21.102675 H          1 MOL1         0.0712
      10    C4      19.327509   17.966638   22.852408 C.3        1 MOL1        -0.1921
      11    H5      19.855128   17.113001   22.405024 H          1 MOL1         0.0712
      12    H6      18.419920   17.558468   23.318211 H          1 MOL1         0.0712
      13    C5      20.202153   18.596837   23.956100 C.3        1 MOL1        -0.2936
      14    H7      21.192094   18.872438   23.572616 H          1 MOL1         0.0724
      15    H8      20.353323   17.886117   24.778774 H          1 MOL1         0.0724
      16    H9      19.728512   19.497466   24.368242 H          1 MOL1         0.0724
@<TRIPOS>BOND
    1     1     2    1
    2     1     3    2
    3     1     4    1
    4     4     5    1
    5     4     6    1
    6     4     7    1
    7     7     8    1
    8     7     9    1
    9     7    10    1
   10    10    11    1
   11    10    12    1
   12    10    13    1
   13    13    14    1
   14    13    15    1
   15    13    16    1
@<TRIPOS>SUBSTRUCTURE
       1 MOL1            1 RESIDUE      1      MOL     
@<SCITEGIC>MOL_PROPERTY
VConf Rank
SciTegic.value.IntegerValue
149

@<SCITEGIC>MOL_PROPERTY
Conf_Id
SciTegic.value.IntegerValue
47

@<SCITEGIC>MOL_PROPERTY
Delta U+W
SciTegic.value.DoubleValue
2.301

@<SCITEGIC>MOL_PROPERTY
U+W
SciTegic.value.DoubleValue
-54.603

@<SCITEGIC>MOL_PROPERTY
Grad RMS
SciTegic.value.DoubleValue
0.000000

@<SCITEGIC>MOL_PROPERTY
U
SciTegic.value.DoubleValue
11.258

@<SCITEGIC>MOL_PROPERTY
W
SciTegic.value.DoubleValue
-65.861

@<SCITEGIC>MOL_PROPERTY
W(PB)
SciTegic.value.DoubleValue
-67.702

@<SCITEGIC>MOL_PROPERTY
W(SA)
SciTegic.value.DoubleValue
1.841

@<SCITEGIC>MOL_PROPERTY
Valence
SciTegic.value.DoubleValue
8.169

@<SCITEGIC>MOL_PROPERTY
Coulomb
SciTegic.value.DoubleValue
2.735

@<SCITEGIC>MOL_PROPERTY
VdW
SciTegic.value.DoubleValue
0.355

@<SCITEGIC>MOL_PROPERTY
VdW6
SciTegic.value.DoubleValue
-6.245

@<SCITEGIC>MOL_PROPERTY
VdW12
SciTegic.value.DoubleValue
6.600

@<SCITEGIC>MOL_PROPERTY
Bond
SciTegic.value.DoubleValue
0.149

@<SCITEGIC>MOL_PROPERTY
Angle
SciTegic.value.DoubleValue
3.168

@<SCITEGIC>MOL_PROPERTY
Pdih
SciTegic.value.DoubleValue
4.840

@<SCITEGIC>MOL_PROPERTY
Idih
SciTegic.value.DoubleValue
0.011

@<SCITEGIC>MOL_PROPERTY
Tether
SciTegic.value.DoubleValue
0.000

@<TRIPOS>MOLECULE
guest-s18_confgen4.mol2 : confsearch ligand conformer 150
          16          15           1
SMALL
USER_CHARGES
 
@<TRIPOS>ATOM
       1    C1      21.813357   18.827941   22.649417 C.2        1 MOL1         0.6075
       2    O1      21.929164   17.843666   23.352943 O.co2      1 MOL1        -0.6830
       3    O2      22.376704   19.880859   22.874853 O.co2      1 MOL1        -0.6830
       4    C2      20.990367   18.710435   21.367798 C.3        1 MOL1        -0.2050
       5    H1      21.486190   17.951935   20.750881 H          1 MOL1         0.0710
       6    H2      21.054653   19.655295   20.814547 H          1 MOL1         0.0710
       7    C3      19.503030   18.304617   21.568117 C.3        1 MOL1        -0.1947
       8    H3      19.129335   17.905471   20.615495 H          1 MOL1         0.0712
       9    H4      19.434071   17.479115   22.290150 H          1 MOL1         0.0712
      10    C4      18.568142   19.462345   21.993804 C.3        1 MOL1        -0.1921
      11    H5      17.530166   19.104637   21.949708 H          1 MOL1         0.0712
      12    H6      18.641384   20.286208   21.270536 H          1 MOL1         0.0712
      13    C5      18.841689   19.994340   23.415929 C.3        1 MOL1        -0.2936
      14    H7      18.065520   20.711085   23.713601 H          1 MOL1         0.0724
      15    H8      19.806875   20.512526   23.469777 H          1 MOL1         0.0724
      16    H9      18.847509   19.176541   24.148392 H          1 MOL1         0.0724
@<TRIPOS>BOND
    1     1     2    1
    2     1     3    2
    3     1     4    1
    4     4     5    1
    5     4     6    1
    6     4     7    1
    7     7     8    1
    8     7     9    1
    9     7    10    1
   10    10    11    1
   11    10    12    1
   12    10    13    1
   13    13    14    1
   14    13    15    1
   15    13    16    1
@<TRIPOS>SUBSTRUCTURE
       1 MOL1            1 RESIDUE      1      MOL     
@<SCITEGIC>MOL_PROPERTY
VConf Rank
SciTegic.value.IntegerValue
150

@<SCITEGIC>MOL_PROPERTY
Conf_Id
SciTegic.value.IntegerValue
45

@<SCITEGIC>MOL_PROPERTY
Delta U+W
SciTegic.value.DoubleValue
2.303

@<SCITEGIC>MOL_PROPERTY
U+W
SciTegic.value.DoubleValue
-54.601

@<SCITEGIC>MOL_PROPERTY
Grad RMS
SciTegic.value.DoubleValue
0.000000

@<SCITEGIC>MOL_PROPERTY
U
SciTegic.value.DoubleValue
11.258

@<SCITEGIC>MOL_PROPERTY
W
SciTegic.value.DoubleValue
-65.860

@<SCITEGIC>MOL_PROPERTY
W(PB)
SciTegic.value.DoubleValue
-67.709

@<SCITEGIC>MOL_PROPERTY
W(SA)
SciTegic.value.DoubleValue
1.849

@<SCITEGIC>MOL_PROPERTY
Valence
SciTegic.value.DoubleValue
8.169

@<SCITEGIC>MOL_PROPERTY
Coulomb
SciTegic.value.DoubleValue
2.735

@<SCITEGIC>MOL_PROPERTY
VdW
SciTegic.value.DoubleValue
0.355

@<SCITEGIC>MOL_PROPERTY
VdW6
SciTegic.value.DoubleValue
-6.245

@<SCITEGIC>MOL_PROPERTY
VdW12
SciTegic.value.DoubleValue
6.600

@<SCITEGIC>MOL_PROPERTY
Bond
SciTegic.value.DoubleValue
0.149

@<SCITEGIC>MOL_PROPERTY
Angle
SciTegic.value.DoubleValue
3.168

@<SCITEGIC>MOL_PROPERTY
Pdih
SciTegic.value.DoubleValue
4.840

@<SCITEGIC>MOL_PROPERTY
Idih
SciTegic.value.DoubleValue
0.011

@<SCITEGIC>MOL_PROPERTY
Tether
SciTegic.value.DoubleValue
0.000

@<TRIPOS>MOLECULE
guest-s18_confgen4.mol2 : confsearch ligand conformer 151
          16          15           1
SMALL
USER_CHARGES
 
@<TRIPOS>ATOM
       1    C1      21.968521   19.052082   19.998134 C.2        1 MOL1         0.6075
       2    O1      21.288099   19.591907   19.147609 O.co2      1 MOL1        -0.6830
       3    O2      23.113372   18.696362   19.802962 O.co2      1 MOL1        -0.6830
       4    C2      21.384657   18.794569   21.388343 C.3        1 MOL1        -0.2050
       5    H1      22.036992   19.293448   22.114799 H          1 MOL1         0.0710
       6    H2      21.456934   17.717306   21.579244 H          1 MOL1         0.0710
       7    C3      19.919682   19.264992   21.590581 C.3        1 MOL1        -0.1947
       8    H3      19.852478   20.343781   21.392671 H          1 MOL1         0.0712
       9    H4      19.271826   18.766003   20.856577 H          1 MOL1         0.0712
      10    C4      19.413296   18.966563   23.017386 C.3        1 MOL1        -0.1921
      11    H5      20.059327   19.466477   23.752389 H          1 MOL1         0.0712
      12    H6      19.478324   17.887754   23.215986 H          1 MOL1         0.0712
      13    C5      17.958004   19.436006   23.212045 C.3        1 MOL1        -0.2936
      14    H7      17.869490   20.518312   23.050032 H          1 MOL1         0.0724
      15    H8      17.613729   19.216473   24.231074 H          1 MOL1         0.0724
      16    H9      17.284195   18.927944   22.509674 H          1 MOL1         0.0724
@<TRIPOS>BOND
    1     1     2    1
    2     1     3    2
    3     1     4    1
    4     4     5    1
    5     4     6    1
    6     4     7    1
    7     7     8    1
    8     7     9    1
    9     7    10    1
   10    10    11    1
   11    10    12    1
   12    10    13    1
   13    13    14    1
   14    13    15    1
   15    13    16    1
@<TRIPOS>SUBSTRUCTURE
       1 MOL1            1 RESIDUE      1      MOL     
@<SCITEGIC>MOL_PROPERTY
VConf Rank
SciTegic.value.IntegerValue
151

@<SCITEGIC>MOL_PROPERTY
Conf_Id
SciTegic.value.IntegerValue
0

@<SCITEGIC>MOL_PROPERTY
Delta U+W
SciTegic.value.DoubleValue
0.000

@<SCITEGIC>MOL_PROPERTY
U+W
SciTegic.value.DoubleValue
-56.904

@<SCITEGIC>MOL_PROPERTY
Grad RMS
SciTegic.value.DoubleValue
0.000000

@<SCITEGIC>MOL_PROPERTY
U
SciTegic.value.DoubleValue
7.329

@<SCITEGIC>MOL_PROPERTY
W
SciTegic.value.DoubleValue
-64.233

@<SCITEGIC>MOL_PROPERTY
W(PB)
SciTegic.value.DoubleValue
-66.148

@<SCITEGIC>MOL_PROPERTY
W(SA)
SciTegic.value.DoubleValue
1.915

@<SCITEGIC>MOL_PROPERTY
Valence
SciTegic.value.DoubleValue
6.755

@<SCITEGIC>MOL_PROPERTY
Coulomb
SciTegic.value.DoubleValue
-0.421

@<SCITEGIC>MOL_PROPERTY
VdW
SciTegic.value.DoubleValue
0.995

@<SCITEGIC>MOL_PROPERTY
VdW6
SciTegic.value.DoubleValue
-4.495

@<SCITEGIC>MOL_PROPERTY
VdW12
SciTegic.value.DoubleValue
5.490

@<SCITEGIC>MOL_PROPERTY
Bond
SciTegic.value.DoubleValue
0.106

@<SCITEGIC>MOL_PROPERTY
Angle
SciTegic.value.DoubleValue
2.715

@<SCITEGIC>MOL_PROPERTY
Pdih
SciTegic.value.DoubleValue
3.934

@<SCITEGIC>MOL_PROPERTY
Idih
SciTegic.value.DoubleValue
0.000

@<SCITEGIC>MOL_PROPERTY
Tether
SciTegic.value.DoubleValue
0.000

@<TRIPOS>MOLECULE
guest-s18_confgen4.mol2 : confsearch ligand conformer 152
          16          15           1
SMALL
USER_CHARGES
 
@<TRIPOS>ATOM
       1    C1      20.740507   21.288437   23.452303 C.2        1 MOL1         0.6075
       2    O1      20.105499   21.420570   24.479506 O.co2      1 MOL1        -0.6830
       3    O2      21.895271   21.643887   23.325734 O.co2      1 MOL1        -0.6830
       4    C2      20.056586   20.623781   22.262737 C.3        1 MOL1        -0.2050
       5    H1      20.465960   21.062898   21.344892 H          1 MOL1         0.0710
       6    H2      18.990396   20.878675   22.296174 H          1 MOL1         0.0710
       7    C3      20.237475   19.085911   22.245497 C.3        1 MOL1        -0.1947
       8    H3      21.309806   18.846711   22.224543 H          1 MOL1         0.0712
       9    H4      19.834236   18.662478   23.175902 H          1 MOL1         0.0712
      10    C4      19.536445   18.438854   21.032881 C.3        1 MOL1        -0.1921
      11    H5      19.939903   18.861543   20.102240 H          1 MOL1         0.0712
      12    H6      18.463951   18.677296   21.053824 H          1 MOL1         0.0712
      13    C5      19.720632   16.908474   21.022250 C.3        1 MOL1        -0.2936
      14    H7      19.297403   16.455608   21.928485 H          1 MOL1         0.0724
      15    H8      20.784260   16.641216   20.969896 H          1 MOL1         0.0724
      16    H9      19.216414   16.464255   20.154158 H          1 MOL1         0.0724
@<TRIPOS>BOND
    1     1     2    1
    2     1     3    2
    3     1     4    1
    4     4     5    1
    5     4     6    1
    6     4     7    1
    7     7     8    1
    8     7     9    1
    9     7    10    1
   10    10    11    1
   11    10    12    1
   12    10    13    1
   13    13    14    1
   14    13    15    1
   15    13    16    1
@<TRIPOS>SUBSTRUCTURE
       1 MOL1            1 RESIDUE      1      MOL     
@<SCITEGIC>MOL_PROPERTY
VConf Rank
SciTegic.value.IntegerValue
152

@<SCITEGIC>MOL_PROPERTY
Conf_Id
SciTegic.value.IntegerValue
22

@<SCITEGIC>MOL_PROPERTY
Delta U+W
SciTegic.value.DoubleValue
-1.185

@<SCITEGIC>MOL_PROPERTY
U+W
SciTegic.value.DoubleValue
-58.089

@<SCITEGIC>MOL_PROPERTY
Grad RMS
SciTegic.value.DoubleValue
0.000000

@<SCITEGIC>MOL_PROPERTY
U
SciTegic.value.DoubleValue
6.298

@<SCITEGIC>MOL_PROPERTY
W
SciTegic.value.DoubleValue
-64.387

@<SCITEGIC>MOL_PROPERTY
W(PB)
SciTegic.value.DoubleValue
-66.329

@<SCITEGIC>MOL_PROPERTY
W(SA)
SciTegic.value.DoubleValue
1.942

@<SCITEGIC>MOL_PROPERTY
Valence
SciTegic.value.DoubleValue
6.246

@<SCITEGIC>MOL_PROPERTY
Coulomb
SciTegic.value.DoubleValue
-0.408

@<SCITEGIC>MOL_PROPERTY
VdW
SciTegic.value.DoubleValue
0.460

@<SCITEGIC>MOL_PROPERTY
VdW6
SciTegic.value.DoubleValue
-4.207

@<SCITEGIC>MOL_PROPERTY
VdW12
SciTegic.value.DoubleValue
4.667

@<SCITEGIC>MOL_PROPERTY
Bond
SciTegic.value.DoubleValue
0.072

@<SCITEGIC>MOL_PROPERTY
Angle
SciTegic.value.DoubleValue
2.246

@<SCITEGIC>MOL_PROPERTY
Pdih
SciTegic.value.DoubleValue
3.928

@<SCITEGIC>MOL_PROPERTY
Idih
SciTegic.value.DoubleValue
0.001

@<SCITEGIC>MOL_PROPERTY
Tether
SciTegic.value.DoubleValue
0.000

@<TRIPOS>MOLECULE
guest-s18_confgen4.mol2 : confsearch ligand conformer 153
          16          15           1
SMALL
USER_CHARGES
 
@<TRIPOS>ATOM
       1    C1      18.614173   20.784616   20.509122 C.2        1 MOL1         0.6075
       2    O1      17.411901   20.920384   20.619141 O.co2      1 MOL1        -0.6830
       3    O2      19.235712   21.088900   19.510594 O.co2      1 MOL1        -0.6830
       4    C2      19.381237   20.180991   21.680370 C.3        1 MOL1        -0.2050
       5    H1      18.878459   20.481124   22.607570 H          1 MOL1         0.0710
       6    H2      20.380852   20.630143   21.692501 H          1 MOL1         0.0710
       7    C3      19.479265   18.635272   21.602033 C.3        1 MOL1        -0.1947
       8    H3      18.466021   18.221663   21.503590 H          1 MOL1         0.0712
       9    H4      20.021945   18.348109   20.690801 H          1 MOL1         0.0712
      10    C4      20.157940   17.998341   22.836589 C.3        1 MOL1        -0.1921
      11    H5      20.088557   16.904954   22.752925 H          1 MOL1         0.0712
      12    H6      19.608485   18.275781   23.746812 H          1 MOL1         0.0712
      13    C5      21.642860   18.392818   22.986041 C.3        1 MOL1        -0.2936
      14    H7      21.754444   19.465800   23.186144 H          1 MOL1         0.0724
      15    H8      22.207110   18.151107   22.075850 H          1 MOL1         0.0724
      16    H9      22.101756   17.849568   23.822284 H          1 MOL1         0.0724
@<TRIPOS>BOND
    1     1     2    1
    2     1     3    2
    3     1     4    1
    4     4     5    1
    5     4     6    1
    6     4     7    1
    7     7     8    1
    8     7     9    1
    9     7    10    1
   10    10    11    1
   11    10    12    1
   12    10    13    1
   13    13    14    1
   14    13    15    1
   15    13    16    1
@<TRIPOS>SUBSTRUCTURE
       1 MOL1            1 RESIDUE      1      MOL     
@<SCITEGIC>MOL_PROPERTY
VConf Rank
SciTegic.value.IntegerValue
153

@<SCITEGIC>MOL_PROPERTY
Conf_Id
SciTegic.value.IntegerValue
36

@<SCITEGIC>MOL_PROPERTY
Delta U+W
SciTegic.value.DoubleValue
-0.427

@<SCITEGIC>MOL_PROPERTY
U+W
SciTegic.value.DoubleValue
-57.331

@<SCITEGIC>MOL_PROPERTY
Grad RMS
SciTegic.value.DoubleValue
0.000000

@<SCITEGIC>MOL_PROPERTY
U
SciTegic.value.DoubleValue
7.263

@<SCITEGIC>MOL_PROPERTY
W
SciTegic.value.DoubleValue
-64.594

@<SCITEGIC>MOL_PROPERTY
W(PB)
SciTegic.value.DoubleValue
-66.513

@<SCITEGIC>MOL_PROPERTY
W(SA)
SciTegic.value.DoubleValue
1.920

@<SCITEGIC>MOL_PROPERTY
Valence
SciTegic.value.DoubleValue
6.734

@<SCITEGIC>MOL_PROPERTY
Coulomb
SciTegic.value.DoubleValue
-0.068

@<SCITEGIC>MOL_PROPERTY
VdW
SciTegic.value.DoubleValue
0.598

@<SCITEGIC>MOL_PROPERTY
VdW6
SciTegic.value.DoubleValue
-4.819

@<SCITEGIC>MOL_PROPERTY
VdW12
SciTegic.value.DoubleValue
5.417

@<SCITEGIC>MOL_PROPERTY
Bond
SciTegic.value.DoubleValue
0.107

@<SCITEGIC>MOL_PROPERTY
Angle
SciTegic.value.DoubleValue
2.469

@<SCITEGIC>MOL_PROPERTY
Pdih
SciTegic.value.DoubleValue
4.157

@<SCITEGIC>MOL_PROPERTY
Idih
SciTegic.value.DoubleValue
0.001

@<SCITEGIC>MOL_PROPERTY
Tether
SciTegic.value.DoubleValue
0.000

@<TRIPOS>MOLECULE
guest-s18_confgen4.mol2 : confsearch ligand conformer 154
          16          15           1
SMALL
USER_CHARGES
 
@<TRIPOS>ATOM
       1    C1      20.928895   21.288606   23.066065 C.2        1 MOL1         0.6075
       2    O1      20.466901   21.469614   24.175008 O.co2      1 MOL1        -0.6830
       3    O2      21.464010   22.160689   22.410994 O.co2      1 MOL1        -0.6830
       4    C2      20.813203   19.896678   22.454734 C.3        1 MOL1        -0.2050
       5    H1      20.871613   19.167214   23.270570 H          1 MOL1         0.0710
       6    H2      21.685373   19.734327   21.810119 H          1 MOL1         0.0710
       7    C3      19.505816   19.703259   21.643363 C.3        1 MOL1        -0.1947
       8    H3      18.639982   19.826133   22.308603 H          1 MOL1         0.0712
       9    H4      19.435540   20.501317   20.891304 H          1 MOL1         0.0712
      10    C4      19.423328   18.336139   20.926017 C.3        1 MOL1        -0.1921
      11    H5      20.282961   18.218071   20.251873 H          1 MOL1         0.0712
      12    H6      18.526633   18.323972   20.291117 H          1 MOL1         0.0712
      13    C5      19.359584   17.140446   21.900278 C.3        1 MOL1        -0.2936
      14    H7      20.286913   17.044822   22.478810 H          1 MOL1         0.0724
      15    H8      19.214583   16.202942   21.347949 H          1 MOL1         0.0724
      16    H9      18.523954   17.250908   22.603677 H          1 MOL1         0.0724
@<TRIPOS>BOND
    1     1     2    1
    2     1     3    2
    3     1     4    1
    4     4     5    1
    5     4     6    1
    6     4     7    1
    7     7     8    1
    8     7     9    1
    9     7    10    1
   10    10    11    1
   11    10    12    1
   12    10    13    1
   13    13    14    1
   14    13    15    1
   15    13    16    1
@<TRIPOS>SUBSTRUCTURE
       1 MOL1            1 RESIDUE      1      MOL     
@<SCITEGIC>MOL_PROPERTY
VConf Rank
SciTegic.value.IntegerValue
154

@<SCITEGIC>MOL_PROPERTY
Conf_Id
SciTegic.value.IntegerValue
17

@<SCITEGIC>MOL_PROPERTY
Delta U+W
SciTegic.value.DoubleValue
-0.432

@<SCITEGIC>MOL_PROPERTY
U+W
SciTegic.value.DoubleValue
-57.336

@<SCITEGIC>MOL_PROPERTY
Grad RMS
SciTegic.value.DoubleValue
0.000000

@<SCITEGIC>MOL_PROPERTY
U
SciTegic.value.DoubleValue
7.263

@<SCITEGIC>MOL_PROPERTY
W
SciTegic.value.DoubleValue
-64.599

@<SCITEGIC>MOL_PROPERTY
W(PB)
SciTegic.value.DoubleValue
-66.503

@<SCITEGIC>MOL_PROPERTY
W(SA)
SciTegic.value.DoubleValue
1.904

@<SCITEGIC>MOL_PROPERTY
Valence
SciTegic.value.DoubleValue
6.734

@<SCITEGIC>MOL_PROPERTY
Coulomb
SciTegic.value.DoubleValue
-0.068

@<SCITEGIC>MOL_PROPERTY
VdW
SciTegic.value.DoubleValue
0.598

@<SCITEGIC>MOL_PROPERTY
VdW6
SciTegic.value.DoubleValue
-4.819

@<SCITEGIC>MOL_PROPERTY
VdW12
SciTegic.value.DoubleValue
5.417

@<SCITEGIC>MOL_PROPERTY
Bond
SciTegic.value.DoubleValue
0.107

@<SCITEGIC>MOL_PROPERTY
Angle
SciTegic.value.DoubleValue
2.469

@<SCITEGIC>MOL_PROPERTY
Pdih
SciTegic.value.DoubleValue
4.157

@<SCITEGIC>MOL_PROPERTY
Idih
SciTegic.value.DoubleValue
0.001

@<SCITEGIC>MOL_PROPERTY
Tether
SciTegic.value.DoubleValue
0.000

@<TRIPOS>MOLECULE
guest-s18_confgen4.mol2 : confsearch ligand conformer 155
          16          15           1
SMALL
USER_CHARGES
 
@<TRIPOS>ATOM
       1    C1      21.846279   19.600028   23.661093 C.2        1 MOL1         0.6075
       2    O1      22.821584   18.884941   23.543731 O.co2      1 MOL1        -0.6830
       3    O2      21.908468   20.809896   23.753905 O.co2      1 MOL1        -0.6830
       4    C2      20.471829   18.938943   23.718931 C.3        1 MOL1        -0.2050
       5    H1      19.761344   19.645698   24.164793 H          1 MOL1         0.0710
       6    H2      20.545698   18.087785   24.406176 H          1 MOL1         0.0710
       7    C3      19.947577   18.449292   22.344000 C.3        1 MOL1        -0.1947
       8    H3      20.682066   17.765018   21.896876 H          1 MOL1         0.0712
       9    H4      19.028170   17.868671   22.499337 H          1 MOL1         0.0712
      10    C4      19.656390   19.612339   21.371008 C.3        1 MOL1        -0.1921
      11    H5      20.574797   20.188681   21.191891 H          1 MOL1         0.0712
      12    H6      18.931287   20.302222   21.824509 H          1 MOL1         0.0712
      13    C5      19.105183   19.100471   20.025457 C.3        1 MOL1        -0.2936
      14    H7      19.824944   18.431669   19.535460 H          1 MOL1         0.0724
      15    H8      18.904537   19.938904   19.345833 H          1 MOL1         0.0724
      16    H9      18.166947   18.548722   20.169340 H          1 MOL1         0.0724
@<TRIPOS>BOND
    1     1     2    1
    2     1     3    2
    3     1     4    1
    4     4     5    1
    5     4     6    1
    6     4     7    1
    7     7     8    1
    8     7     9    1
    9     7    10    1
   10    10    11    1
   11    10    12    1
   12    10    13    1
   13    13    14    1
   14    13    15    1
   15    13    16    1
@<TRIPOS>SUBSTRUCTURE
       1 MOL1            1 RESIDUE      1      MOL     
@<SCITEGIC>MOL_PROPERTY
VConf Rank
SciTegic.value.IntegerValue
155

@<SCITEGIC>MOL_PROPERTY
Conf_Id
SciTegic.value.IntegerValue
19

@<SCITEGIC>MOL_PROPERTY
Delta U+W
SciTegic.value.DoubleValue
0.048

@<SCITEGIC>MOL_PROPERTY
U+W
SciTegic.value.DoubleValue
-56.856

@<SCITEGIC>MOL_PROPERTY
Grad RMS
SciTegic.value.DoubleValue
0.000000

@<SCITEGIC>MOL_PROPERTY
U
SciTegic.value.DoubleValue
8.276

@<SCITEGIC>MOL_PROPERTY
W
SciTegic.value.DoubleValue
-65.132

@<SCITEGIC>MOL_PROPERTY
W(PB)
SciTegic.value.DoubleValue
-67.031

@<SCITEGIC>MOL_PROPERTY
W(SA)
SciTegic.value.DoubleValue
1.899

@<SCITEGIC>MOL_PROPERTY
Valence
SciTegic.value.DoubleValue
6.513

@<SCITEGIC>MOL_PROPERTY
Coulomb
SciTegic.value.DoubleValue
1.428

@<SCITEGIC>MOL_PROPERTY
VdW
SciTegic.value.DoubleValue
0.335

@<SCITEGIC>MOL_PROPERTY
VdW6
SciTegic.value.DoubleValue
-5.021

@<SCITEGIC>MOL_PROPERTY
VdW12
SciTegic.value.DoubleValue
5.356

@<SCITEGIC>MOL_PROPERTY
Bond
SciTegic.value.DoubleValue
0.092

@<SCITEGIC>MOL_PROPERTY
Angle
SciTegic.value.DoubleValue
2.417

@<SCITEGIC>MOL_PROPERTY
Pdih
SciTegic.value.DoubleValue
4.003

@<SCITEGIC>MOL_PROPERTY
Idih
SciTegic.value.DoubleValue
0.001

@<SCITEGIC>MOL_PROPERTY
Tether
SciTegic.value.DoubleValue
0.000

@<TRIPOS>MOLECULE
guest-s18_confgen4.mol2 : confsearch ligand conformer 156
          16          15           1
SMALL
USER_CHARGES
 
@<TRIPOS>ATOM
       1    C1      20.783565   21.017864   23.237196 C.2        1 MOL1         0.6075
       2    O1      19.953238   21.694819   23.810458 O.co2      1 MOL1        -0.6830
       3    O2      21.641148   21.480081   22.511132 O.co2      1 MOL1        -0.6830
       4    C2      20.760744   19.508289   23.461165 C.3        1 MOL1        -0.2050
       5    H1      20.642862   19.338015   24.537894 H          1 MOL1         0.0710
       6    H2      21.738180   19.097385   23.180341 H          1 MOL1         0.0710
       7    C3      19.631047   18.772548   22.694671 C.3        1 MOL1        -0.1947
       8    H3      19.603347   17.724025   23.020848 H          1 MOL1         0.0712
       9    H4      18.661173   19.213377   22.964184 H          1 MOL1         0.0712
      10    C4      19.821360   18.823969   21.163225 C.3        1 MOL1        -0.1921
      11    H5      20.796765   18.394165   20.896331 H          1 MOL1         0.0712
      12    H6      19.830133   19.868751   20.822522 H          1 MOL1         0.0712
      13    C5      18.704400   18.057291   20.427728 C.3        1 MOL1        -0.2936
      14    H7      18.693365   16.999842   20.722846 H          1 MOL1         0.0724
      15    H8      18.853995   18.104418   19.341212 H          1 MOL1         0.0724
      16    H9      17.719477   18.486837   20.653266 H          1 MOL1         0.0724
@<TRIPOS>BOND
    1     1     2    1
    2     1     3    2
    3     1     4    1
    4     4     5    1
    5     4     6    1
    6     4     7    1
    7     7     8    1
    8     7     9    1
    9     7    10    1
   10    10    11    1
   11    10    12    1
   12    10    13    1
   13    13    14    1
   14    13    15    1
   15    13    16    1
@<TRIPOS>SUBSTRUCTURE
       1 MOL1            1 RESIDUE      1      MOL     
@<SCITEGIC>MOL_PROPERTY
VConf Rank
SciTegic.value.IntegerValue
156

@<SCITEGIC>MOL_PROPERTY
Conf_Id
SciTegic.value.IntegerValue
20

@<SCITEGIC>MOL_PROPERTY
Delta U+W
SciTegic.value.DoubleValue
-0.010

@<SCITEGIC>MOL_PROPERTY
U+W
SciTegic.value.DoubleValue
-56.914

@<SCITEGIC>MOL_PROPERTY
Grad RMS
SciTegic.value.DoubleValue
0.000000

@<SCITEGIC>MOL_PROPERTY
U
SciTegic.value.DoubleValue
8.277

@<SCITEGIC>MOL_PROPERTY
W
SciTegic.value.DoubleValue
-65.191

@<SCITEGIC>MOL_PROPERTY
W(PB)
SciTegic.value.DoubleValue
-67.081

@<SCITEGIC>MOL_PROPERTY
W(SA)
SciTegic.value.DoubleValue
1.890

@<SCITEGIC>MOL_PROPERTY
Valence
SciTegic.value.DoubleValue
6.513

@<SCITEGIC>MOL_PROPERTY
Coulomb
SciTegic.value.DoubleValue
1.429

@<SCITEGIC>MOL_PROPERTY
VdW
SciTegic.value.DoubleValue
0.335

@<SCITEGIC>MOL_PROPERTY
VdW6
SciTegic.value.DoubleValue
-5.021

@<SCITEGIC>MOL_PROPERTY
VdW12
SciTegic.value.DoubleValue
5.356

@<SCITEGIC>MOL_PROPERTY
Bond
SciTegic.value.DoubleValue
0.092

@<SCITEGIC>MOL_PROPERTY
Angle
SciTegic.value.DoubleValue
2.417

@<SCITEGIC>MOL_PROPERTY
Pdih
SciTegic.value.DoubleValue
4.002

@<SCITEGIC>MOL_PROPERTY
Idih
SciTegic.value.DoubleValue
0.001

@<SCITEGIC>MOL_PROPERTY
Tether
SciTegic.value.DoubleValue
0.000

@<TRIPOS>MOLECULE
guest-s18_confgen4.mol2 : confsearch ligand conformer 157
          16          15           1
SMALL
USER_CHARGES
 
@<TRIPOS>ATOM
       1    C1      19.557714   19.134123   24.299618 C.2        1 MOL1         0.6075
       2    O1      18.827786   19.915838   24.876604 O.co2      1 MOL1        -0.6830
       3    O2      20.677587   18.856653   24.680663 O.co2      1 MOL1        -0.6830
       4    C2      19.024126   18.439871   23.049401 C.3        1 MOL1        -0.2050
       5    H1      18.043321   18.020988   23.303253 H          1 MOL1         0.0710
       6    H2      19.673576   17.588612   22.815265 H          1 MOL1         0.0710
       7    C3      18.879213   19.373381   21.816422 C.3        1 MOL1        -0.1947
       8    H3      18.416545   18.812999   20.992844 H          1 MOL1         0.0712
       9    H4      18.181216   20.183929   22.067752 H          1 MOL1         0.0712
      10    C4      20.209304   19.993368   21.326050 C.3        1 MOL1        -0.1921
      11    H5      20.665457   20.586105   22.131149 H          1 MOL1         0.0712
      12    H6      19.990902   20.696320   20.510399 H          1 MOL1         0.0712
      13    C5      21.220708   18.942705   20.820469 C.3        1 MOL1        -0.2936
      14    H7      21.561429   18.293158   21.636855 H          1 MOL1         0.0724
      15    H8      22.105756   19.434958   20.397105 H          1 MOL1         0.0724
      16    H9      20.776958   18.312742   20.038613 H          1 MOL1         0.0724
@<TRIPOS>BOND
    1     1     2    1
    2     1     3    2
    3     1     4    1
    4     4     5    1
    5     4     6    1
    6     4     7    1
    7     7     8    1
    8     7     9    1
    9     7    10    1
   10    10    11    1
   11    10    12    1
   12    10    13    1
   13    13    14    1
   14    13    15    1
   15    13    16    1
@<TRIPOS>SUBSTRUCTURE
       1 MOL1            1 RESIDUE      1      MOL     
@<SCITEGIC>MOL_PROPERTY
VConf Rank
SciTegic.value.IntegerValue
157

@<SCITEGIC>MOL_PROPERTY
Conf_Id
SciTegic.value.IntegerValue
37

@<SCITEGIC>MOL_PROPERTY
Delta U+W
SciTegic.value.DoubleValue
1.063

@<SCITEGIC>MOL_PROPERTY
U+W
SciTegic.value.DoubleValue
-55.841

@<SCITEGIC>MOL_PROPERTY
Grad RMS
SciTegic.value.DoubleValue
0.000000

@<SCITEGIC>MOL_PROPERTY
U
SciTegic.value.DoubleValue
9.719

@<SCITEGIC>MOL_PROPERTY
W
SciTegic.value.DoubleValue
-65.560

@<SCITEGIC>MOL_PROPERTY
W(PB)
SciTegic.value.DoubleValue
-67.414

@<SCITEGIC>MOL_PROPERTY
W(SA)
SciTegic.value.DoubleValue
1.854

@<SCITEGIC>MOL_PROPERTY
Valence
SciTegic.value.DoubleValue
7.002

@<SCITEGIC>MOL_PROPERTY
Coulomb
SciTegic.value.DoubleValue
2.402

@<SCITEGIC>MOL_PROPERTY
VdW
SciTegic.value.DoubleValue
0.314

@<SCITEGIC>MOL_PROPERTY
VdW6
SciTegic.value.DoubleValue
-5.861

@<SCITEGIC>MOL_PROPERTY
VdW12
SciTegic.value.DoubleValue
6.175

@<SCITEGIC>MOL_PROPERTY
Bond
SciTegic.value.DoubleValue
0.134

@<SCITEGIC>MOL_PROPERTY
Angle
SciTegic.value.DoubleValue
2.733

@<SCITEGIC>MOL_PROPERTY
Pdih
SciTegic.value.DoubleValue
4.133

@<SCITEGIC>MOL_PROPERTY
Idih
SciTegic.value.DoubleValue
0.002

@<SCITEGIC>MOL_PROPERTY
Tether
SciTegic.value.DoubleValue
0.000

@<TRIPOS>MOLECULE
guest-s18_confgen4.mol2 : confsearch ligand conformer 158
          16          15           1
SMALL
USER_CHARGES
 
@<TRIPOS>ATOM
       1    C1      18.337627   19.591289   21.090735 C.2        1 MOL1         0.6075
       2    O1      17.285471   19.863314   21.634567 O.co2      1 MOL1        -0.6830
       3    O2      18.793461   20.223612   20.158703 O.co2      1 MOL1        -0.6830
       4    C2      19.108006   18.369489   21.584159 C.3        1 MOL1        -0.2050
       5    H1      19.864639   18.105014   20.836625 H          1 MOL1         0.0710
       6    H2      18.401544   17.531930   21.620045 H          1 MOL1         0.0710
       7    C3      19.759686   18.550594   22.982442 C.3        1 MOL1        -0.1947
       8    H3      18.968780   18.760826   23.715670 H          1 MOL1         0.0712
       9    H4      20.220831   17.602491   23.290366 H          1 MOL1         0.0712
      10    C4      20.817804   19.677343   23.051835 C.3        1 MOL1        -0.1921
      11    H5      21.155690   19.779922   24.092239 H          1 MOL1         0.0712
      12    H6      20.359864   20.638406   22.779354 H          1 MOL1         0.0712
      13    C5      22.045193   19.415911   22.153163 C.3        1 MOL1        -0.2936
      14    H7      22.500968   18.443705   22.381528 H          1 MOL1         0.0724
      15    H8      22.806235   20.191567   22.308188 H          1 MOL1         0.0724
      16    H9      21.770499   19.428739   21.090682 H          1 MOL1         0.0724
@<TRIPOS>BOND
    1     1     2    1
    2     1     3    2
    3     1     4    1
    4     4     5    1
    5     4     6    1
    6     4     7    1
    7     7     8    1
    8     7     9    1
    9     7    10    1
   10    10    11    1
   11    10    12    1
   12    10    13    1
   13    13    14    1
   14    13    15    1
   15    13    16    1
@<TRIPOS>SUBSTRUCTURE
       1 MOL1            1 RESIDUE      1      MOL     
@<SCITEGIC>MOL_PROPERTY
VConf Rank
SciTegic.value.IntegerValue
158

@<SCITEGIC>MOL_PROPERTY
Conf_Id
SciTegic.value.IntegerValue
39

@<SCITEGIC>MOL_PROPERTY
Delta U+W
SciTegic.value.DoubleValue
1.129

@<SCITEGIC>MOL_PROPERTY
U+W
SciTegic.value.DoubleValue
-55.775

@<SCITEGIC>MOL_PROPERTY
Grad RMS
SciTegic.value.DoubleValue
0.000000

@<SCITEGIC>MOL_PROPERTY
U
SciTegic.value.DoubleValue
9.718

@<SCITEGIC>MOL_PROPERTY
W
SciTegic.value.DoubleValue
-65.493

@<SCITEGIC>MOL_PROPERTY
W(PB)
SciTegic.value.DoubleValue
-67.361

@<SCITEGIC>MOL_PROPERTY
W(SA)
SciTegic.value.DoubleValue
1.869

@<SCITEGIC>MOL_PROPERTY
Valence
SciTegic.value.DoubleValue
7.002

@<SCITEGIC>MOL_PROPERTY
Coulomb
SciTegic.value.DoubleValue
2.402

@<SCITEGIC>MOL_PROPERTY
VdW
SciTegic.value.DoubleValue
0.314

@<SCITEGIC>MOL_PROPERTY
VdW6
SciTegic.value.DoubleValue
-5.861

@<SCITEGIC>MOL_PROPERTY
VdW12
SciTegic.value.DoubleValue
6.175

@<SCITEGIC>MOL_PROPERTY
Bond
SciTegic.value.DoubleValue
0.134

@<SCITEGIC>MOL_PROPERTY
Angle
SciTegic.value.DoubleValue
2.734

@<SCITEGIC>MOL_PROPERTY
Pdih
SciTegic.value.DoubleValue
4.133

@<SCITEGIC>MOL_PROPERTY
Idih
SciTegic.value.DoubleValue
0.002

@<SCITEGIC>MOL_PROPERTY
Tether
SciTegic.value.DoubleValue
0.000

@<TRIPOS>MOLECULE
guest-s18_confgen4.mol2 : confsearch ligand conformer 159
          16          15           1
SMALL
USER_CHARGES
 
@<TRIPOS>ATOM
       1    C1      18.152424   18.172254   22.596450 C.2        1 MOL1         0.6075
       2    O1      17.665339   18.523184   23.653056 O.co2      1 MOL1        -0.6830
       3    O2      18.250222   17.008769   22.258966 O.co2      1 MOL1        -0.6830
       4    C2      18.580280   19.253241   21.605458 C.3        1 MOL1        -0.2050
       5    H1      18.352484   20.238026   22.031236 H          1 MOL1         0.0710
       6    H2      17.937890   19.136585   20.724847 H          1 MOL1         0.0710
       7    C3      20.067554   19.192244   21.156821 C.3        1 MOL1        -0.1947
       8    H3      20.346359   18.155051   20.924360 H          1 MOL1         0.0712
       9    H4      20.160471   19.749030   20.214585 H          1 MOL1         0.0712
      10    C4      21.072886   19.799515   22.164835 C.3        1 MOL1        -0.1921
      11    H5      20.789571   20.835610   22.396072 H          1 MOL1         0.0712
      12    H6      22.059517   19.849629   21.683854 H          1 MOL1         0.0712
      13    C5      21.207645   18.993866   23.473672 C.3        1 MOL1        -0.2936
      14    H7      20.291942   19.051993   24.074595 H          1 MOL1         0.0724
      15    H8      22.028976   19.389315   24.085067 H          1 MOL1         0.0724
      16    H9      21.417730   17.936506   23.265865 H          1 MOL1         0.0724
@<TRIPOS>BOND
    1     1     2    1
    2     1     3    2
    3     1     4    1
    4     4     5    1
    5     4     6    1
    6     4     7    1
    7     7     8    1
    8     7     9    1
    9     7    10    1
   10    10    11    1
   11    10    12    1
   12    10    13    1
   13    13    14    1
   14    13    15    1
   15    13    16    1
@<TRIPOS>SUBSTRUCTURE
       1 MOL1            1 RESIDUE      1      MOL     
@<SCITEGIC>MOL_PROPERTY
VConf Rank
SciTegic.value.IntegerValue
159

@<SCITEGIC>MOL_PROPERTY
Conf_Id
SciTegic.value.IntegerValue
47

@<SCITEGIC>MOL_PROPERTY
Delta U+W
SciTegic.value.DoubleValue
2.301

@<SCITEGIC>MOL_PROPERTY
U+W
SciTegic.value.DoubleValue
-54.603

@<SCITEGIC>MOL_PROPERTY
Grad RMS
SciTegic.value.DoubleValue
0.000000

@<SCITEGIC>MOL_PROPERTY
U
SciTegic.value.DoubleValue
11.258

@<SCITEGIC>MOL_PROPERTY
W
SciTegic.value.DoubleValue
-65.861

@<SCITEGIC>MOL_PROPERTY
W(PB)
SciTegic.value.DoubleValue
-67.702

@<SCITEGIC>MOL_PROPERTY
W(SA)
SciTegic.value.DoubleValue
1.841

@<SCITEGIC>MOL_PROPERTY
Valence
SciTegic.value.DoubleValue
8.169

@<SCITEGIC>MOL_PROPERTY
Coulomb
SciTegic.value.DoubleValue
2.735

@<SCITEGIC>MOL_PROPERTY
VdW
SciTegic.value.DoubleValue
0.355

@<SCITEGIC>MOL_PROPERTY
VdW6
SciTegic.value.DoubleValue
-6.245

@<SCITEGIC>MOL_PROPERTY
VdW12
SciTegic.value.DoubleValue
6.600

@<SCITEGIC>MOL_PROPERTY
Bond
SciTegic.value.DoubleValue
0.149

@<SCITEGIC>MOL_PROPERTY
Angle
SciTegic.value.DoubleValue
3.168

@<SCITEGIC>MOL_PROPERTY
Pdih
SciTegic.value.DoubleValue
4.840

@<SCITEGIC>MOL_PROPERTY
Idih
SciTegic.value.DoubleValue
0.011

@<SCITEGIC>MOL_PROPERTY
Tether
SciTegic.value.DoubleValue
0.000

@<TRIPOS>MOLECULE
guest-s18_confgen4.mol2 : confsearch ligand conformer 160
          16          15           1
SMALL
USER_CHARGES
 
@<TRIPOS>ATOM
       1    C1      19.142412   20.928339   21.881296 C.2        1 MOL1         0.6075
       2    O1      19.691555   21.731347   22.609841 O.co2      1 MOL1        -0.6830
       3    O2      17.939229   20.890371   21.714783 O.co2      1 MOL1        -0.6830
       4    C2      20.013899   19.976687   21.063656 C.3        1 MOL1        -0.2050
       5    H1      20.631391   20.606112   20.412290 H          1 MOL1         0.0710
       6    H2      19.370559   19.380566   20.405071 H          1 MOL1         0.0710
       7    C3      20.942285   19.046591   21.894323 C.3        1 MOL1        -0.1947
       8    H3      21.747373   18.694874   21.235094 H          1 MOL1         0.0712
       9    H4      21.433242   19.622361   22.691187 H          1 MOL1         0.0712
      10    C4      20.243730   17.801334   22.491747 C.3        1 MOL1        -0.1921
      11    H5      21.013267   17.141119   22.915093 H          1 MOL1         0.0712
      12    H6      19.752668   17.229538   21.692285 H          1 MOL1         0.0712
      13    C5      19.220132   18.130920   23.598050 C.3        1 MOL1        -0.2936
      14    H7      18.863239   17.210310   24.077501 H          1 MOL1         0.0724
      15    H8      18.344693   18.650813   23.190229 H          1 MOL1         0.0724
      16    H9      19.668481   18.765733   24.373501 H          1 MOL1         0.0724
@<TRIPOS>BOND
    1     1     2    1
    2     1     3    2
    3     1     4    1
    4     4     5    1
    5     4     6    1
    6     4     7    1
    7     7     8    1
    8     7     9    1
    9     7    10    1
   10    10    11    1
   11    10    12    1
   12    10    13    1
   13    13    14    1
   14    13    15    1
   15    13    16    1
@<TRIPOS>SUBSTRUCTURE
       1 MOL1            1 RESIDUE      1      MOL     
@<SCITEGIC>MOL_PROPERTY
VConf Rank
SciTegic.value.IntegerValue
160

@<SCITEGIC>MOL_PROPERTY
Conf_Id
SciTegic.value.IntegerValue
45

@<SCITEGIC>MOL_PROPERTY
Delta U+W
SciTegic.value.DoubleValue
2.303

@<SCITEGIC>MOL_PROPERTY
U+W
SciTegic.value.DoubleValue
-54.601

@<SCITEGIC>MOL_PROPERTY
Grad RMS
SciTegic.value.DoubleValue
0.000000

@<SCITEGIC>MOL_PROPERTY
U
SciTegic.value.DoubleValue
11.258

@<SCITEGIC>MOL_PROPERTY
W
SciTegic.value.DoubleValue
-65.860

@<SCITEGIC>MOL_PROPERTY
W(PB)
SciTegic.value.DoubleValue
-67.709

@<SCITEGIC>MOL_PROPERTY
W(SA)
SciTegic.value.DoubleValue
1.849

@<SCITEGIC>MOL_PROPERTY
Valence
SciTegic.value.DoubleValue
8.169

@<SCITEGIC>MOL_PROPERTY
Coulomb
SciTegic.value.DoubleValue
2.735

@<SCITEGIC>MOL_PROPERTY
VdW
SciTegic.value.DoubleValue
0.355

@<SCITEGIC>MOL_PROPERTY
VdW6
SciTegic.value.DoubleValue
-6.245

@<SCITEGIC>MOL_PROPERTY
VdW12
SciTegic.value.DoubleValue
6.600

@<SCITEGIC>MOL_PROPERTY
Bond
SciTegic.value.DoubleValue
0.149

@<SCITEGIC>MOL_PROPERTY
Angle
SciTegic.value.DoubleValue
3.168

@<SCITEGIC>MOL_PROPERTY
Pdih
SciTegic.value.DoubleValue
4.840

@<SCITEGIC>MOL_PROPERTY
Idih
SciTegic.value.DoubleValue
0.011

@<SCITEGIC>MOL_PROPERTY
Tether
SciTegic.value.DoubleValue
0.000

@<TRIPOS>MOLECULE
guest-s18_confgen4.mol2 : confsearch ligand conformer 161
          16          15           1
SMALL
USER_CHARGES
 
@<TRIPOS>ATOM
       1    C1      18.100228   17.888866   20.349434 C.2        1 MOL1         0.6075
       2    O1      18.294248   18.607526   19.388361 O.co2      1 MOL1        -0.6830
       3    O2      17.278960   16.993977   20.352084 O.co2      1 MOL1        -0.6830
       4    C2      18.911508   18.095908   21.629611 C.3        1 MOL1        -0.2050
       5    H1      19.421493   17.150727   21.850310 H          1 MOL1         0.0710
       6    H2      18.198751   18.273392   22.443638 H          1 MOL1         0.0710
       7    C3      19.947298   19.250458   21.579619 C.3        1 MOL1        -0.1947
       8    H3      20.655289   19.069916   20.758874 H          1 MOL1         0.0712
       9    H4      19.431285   20.193733   21.352831 H          1 MOL1         0.0712
      10    C4      20.718211   19.387291   22.909367 C.3        1 MOL1        -0.1921
      11    H5      21.236177   18.445146   23.136467 H          1 MOL1         0.0712
      12    H6      20.011448   19.569635   23.730789 H          1 MOL1         0.0712
      13    C5      21.745262   20.535414   22.853505 C.3        1 MOL1        -0.2936
      14    H7      22.484120   20.363115   22.059860 H          1 MOL1         0.0724
      15    H8      22.284292   20.618972   23.806189 H          1 MOL1         0.0724
      16    H9      21.250360   21.495904   22.658568 H          1 MOL1         0.0724
@<TRIPOS>BOND
    1     1     2    1
    2     1     3    2
    3     1     4    1
    4     4     5    1
    5     4     6    1
    6     4     7    1
    7     7     8    1
    8     7     9    1
    9     7    10    1
   10    10    11    1
   11    10    12    1
   12    10    13    1
   13    13    14    1
   14    13    15    1
   15    13    16    1
@<TRIPOS>SUBSTRUCTURE
       1 MOL1            1 RESIDUE      1      MOL     
@<SCITEGIC>MOL_PROPERTY
VConf Rank
SciTegic.value.IntegerValue
161

@<SCITEGIC>MOL_PROPERTY
Conf_Id
SciTegic.value.IntegerValue
0

@<SCITEGIC>MOL_PROPERTY
Delta U+W
SciTegic.value.DoubleValue
0.000

@<SCITEGIC>MOL_PROPERTY
U+W
SciTegic.value.DoubleValue
-56.904

@<SCITEGIC>MOL_PROPERTY
Grad RMS
SciTegic.value.DoubleValue
0.000000

@<SCITEGIC>MOL_PROPERTY
U
SciTegic.value.DoubleValue
7.329

@<SCITEGIC>MOL_PROPERTY
W
SciTegic.value.DoubleValue
-64.233

@<SCITEGIC>MOL_PROPERTY
W(PB)
SciTegic.value.DoubleValue
-66.148

@<SCITEGIC>MOL_PROPERTY
W(SA)
SciTegic.value.DoubleValue
1.915

@<SCITEGIC>MOL_PROPERTY
Valence
SciTegic.value.DoubleValue
6.755

@<SCITEGIC>MOL_PROPERTY
Coulomb
SciTegic.value.DoubleValue
-0.421

@<SCITEGIC>MOL_PROPERTY
VdW
SciTegic.value.DoubleValue
0.995

@<SCITEGIC>MOL_PROPERTY
VdW6
SciTegic.value.DoubleValue
-4.495

@<SCITEGIC>MOL_PROPERTY
VdW12
SciTegic.value.DoubleValue
5.490

@<SCITEGIC>MOL_PROPERTY
Bond
SciTegic.value.DoubleValue
0.106

@<SCITEGIC>MOL_PROPERTY
Angle
SciTegic.value.DoubleValue
2.715

@<SCITEGIC>MOL_PROPERTY
Pdih
SciTegic.value.DoubleValue
3.934

@<SCITEGIC>MOL_PROPERTY
Idih
SciTegic.value.DoubleValue
0.000

@<SCITEGIC>MOL_PROPERTY
Tether
SciTegic.value.DoubleValue
0.000

@<TRIPOS>MOLECULE
guest-s18_confgen4.mol2 : confsearch ligand conformer 162
          16          15           1
SMALL
USER_CHARGES
 
@<TRIPOS>ATOM
       1    C1      22.640800   19.814318   21.484161 C.2        1 MOL1         0.6075
       2    O1      23.352651   18.901690   21.115078 O.co2      1 MOL1        -0.6830
       3    O2      22.810077   20.972452   21.158718 O.co2      1 MOL1        -0.6830
       4    C2      21.459752   19.485757   22.390668 C.3        1 MOL1        -0.2050
       5    H1      21.293234   20.340658   23.057201 H          1 MOL1         0.0710
       6    H2      21.740497   18.633374   23.021125 H          1 MOL1         0.0710
       7    C3      20.166315   19.163569   21.602456 C.3        1 MOL1        -0.1947
       8    H3      19.905243   20.021256   20.967032 H          1 MOL1         0.0712
       9    H4      20.352541   18.313933   20.930898 H          1 MOL1         0.0712
      10    C4      18.987838   18.834929   22.542535 C.3        1 MOL1        -0.1921
      11    H5      18.800854   19.684612   23.213813 H          1 MOL1         0.0712
      12    H6      19.248284   17.976866   23.177700 H          1 MOL1         0.0712
      13    C5      17.704136   18.515330   21.751292 C.3        1 MOL1        -0.2936
      14    H7      17.853446   17.648739   21.093874 H          1 MOL1         0.0724
      15    H8      17.402725   19.369092   21.130234 H          1 MOL1         0.0724
      16    H9      16.876350   18.284017   22.434237 H          1 MOL1         0.0724
@<TRIPOS>BOND
    1     1     2    1
    2     1     3    2
    3     1     4    1
    4     4     5    1
    5     4     6    1
    6     4     7    1
    7     7     8    1
    8     7     9    1
    9     7    10    1
   10    10    11    1
   11    10    12    1
   12    10    13    1
   13    13    14    1
   14    13    15    1
   15    13    16    1
@<TRIPOS>SUBSTRUCTURE
       1 MOL1            1 RESIDUE      1      MOL     
@<SCITEGIC>MOL_PROPERTY
VConf Rank
SciTegic.value.IntegerValue
162

@<SCITEGIC>MOL_PROPERTY
Conf_Id
SciTegic.value.IntegerValue
22

@<SCITEGIC>MOL_PROPERTY
Delta U+W
SciTegic.value.DoubleValue
-1.185

@<SCITEGIC>MOL_PROPERTY
U+W
SciTegic.value.DoubleValue
-58.089

@<SCITEGIC>MOL_PROPERTY
Grad RMS
SciTegic.value.DoubleValue
0.000000

@<SCITEGIC>MOL_PROPERTY
U
SciTegic.value.DoubleValue
6.298

@<SCITEGIC>MOL_PROPERTY
W
SciTegic.value.DoubleValue
-64.387

@<SCITEGIC>MOL_PROPERTY
W(PB)
SciTegic.value.DoubleValue
-66.329

@<SCITEGIC>MOL_PROPERTY
W(SA)
SciTegic.value.DoubleValue
1.942

@<SCITEGIC>MOL_PROPERTY
Valence
SciTegic.value.DoubleValue
6.246

@<SCITEGIC>MOL_PROPERTY
Coulomb
SciTegic.value.DoubleValue
-0.408

@<SCITEGIC>MOL_PROPERTY
VdW
SciTegic.value.DoubleValue
0.460

@<SCITEGIC>MOL_PROPERTY
VdW6
SciTegic.value.DoubleValue
-4.207

@<SCITEGIC>MOL_PROPERTY
VdW12
SciTegic.value.DoubleValue
4.667

@<SCITEGIC>MOL_PROPERTY
Bond
SciTegic.value.DoubleValue
0.072

@<SCITEGIC>MOL_PROPERTY
Angle
SciTegic.value.DoubleValue
2.246

@<SCITEGIC>MOL_PROPERTY
Pdih
SciTegic.value.DoubleValue
3.928

@<SCITEGIC>MOL_PROPERTY
Idih
SciTegic.value.DoubleValue
0.001

@<SCITEGIC>MOL_PROPERTY
Tether
SciTegic.value.DoubleValue
0.000

@<TRIPOS>MOLECULE
guest-s18_confgen4.mol2 : confsearch ligand conformer 163
          16          15           1
SMALL
USER_CHARGES
 
@<TRIPOS>ATOM
       1    C1      19.117738   16.854589   22.845454 C.2        1 MOL1         0.6075
       2    O1      18.916308   15.915988   22.100840 O.co2      1 MOL1        -0.6830
       3    O2      18.620323   16.954795   23.949309 O.co2      1 MOL1        -0.6830
       4    C2      20.028226   17.976992   22.359866 C.3        1 MOL1        -0.2050
       5    H1      20.789344   17.538181   21.703582 H          1 MOL1         0.0710
       6    H2      20.548814   18.386671   23.232945 H          1 MOL1         0.0710
       7    C3      19.257271   19.094913   21.610951 C.3        1 MOL1        -0.1947
       8    H3      18.678076   18.639351   20.795828 H          1 MOL1         0.0712
       9    H4      18.527394   19.555587   22.290928 H          1 MOL1         0.0712
      10    C4      20.178081   20.185494   21.016687 C.3        1 MOL1        -0.1921
      11    H5      19.568139   20.873106   20.414633 H          1 MOL1         0.0712
      12    H6      20.900485   19.726490   20.327609 H          1 MOL1         0.0712
      13    C5      20.930508   20.998776   22.091565 C.3        1 MOL1        -0.2936
      14    H7      21.639687   20.371248   22.645690 H          1 MOL1         0.0724
      15    H8      20.229519   21.443909   22.809702 H          1 MOL1         0.0724
      16    H9      21.500804   21.813481   21.626778 H          1 MOL1         0.0724
@<TRIPOS>BOND
    1     1     2    1
    2     1     3    2
    3     1     4    1
    4     4     5    1
    5     4     6    1
    6     4     7    1
    7     7     8    1
    8     7     9    1
    9     7    10    1
   10    10    11    1
   11    10    12    1
   12    10    13    1
   13    13    14    1
   14    13    15    1
   15    13    16    1
@<TRIPOS>SUBSTRUCTURE
       1 MOL1            1 RESIDUE      1      MOL     
@<SCITEGIC>MOL_PROPERTY
VConf Rank
SciTegic.value.IntegerValue
163

@<SCITEGIC>MOL_PROPERTY
Conf_Id
SciTegic.value.IntegerValue
36

@<SCITEGIC>MOL_PROPERTY
Delta U+W
SciTegic.value.DoubleValue
-0.427

@<SCITEGIC>MOL_PROPERTY
U+W
SciTegic.value.DoubleValue
-57.331

@<SCITEGIC>MOL_PROPERTY
Grad RMS
SciTegic.value.DoubleValue
0.000000

@<SCITEGIC>MOL_PROPERTY
U
SciTegic.value.DoubleValue
7.263

@<SCITEGIC>MOL_PROPERTY
W
SciTegic.value.DoubleValue
-64.594

@<SCITEGIC>MOL_PROPERTY
W(PB)
SciTegic.value.DoubleValue
-66.513

@<SCITEGIC>MOL_PROPERTY
W(SA)
SciTegic.value.DoubleValue
1.920

@<SCITEGIC>MOL_PROPERTY
Valence
SciTegic.value.DoubleValue
6.734

@<SCITEGIC>MOL_PROPERTY
Coulomb
SciTegic.value.DoubleValue
-0.068

@<SCITEGIC>MOL_PROPERTY
VdW
SciTegic.value.DoubleValue
0.598

@<SCITEGIC>MOL_PROPERTY
VdW6
SciTegic.value.DoubleValue
-4.819

@<SCITEGIC>MOL_PROPERTY
VdW12
SciTegic.value.DoubleValue
5.417

@<SCITEGIC>MOL_PROPERTY
Bond
SciTegic.value.DoubleValue
0.107

@<SCITEGIC>MOL_PROPERTY
Angle
SciTegic.value.DoubleValue
2.469

@<SCITEGIC>MOL_PROPERTY
Pdih
SciTegic.value.DoubleValue
4.157

@<SCITEGIC>MOL_PROPERTY
Idih
SciTegic.value.DoubleValue
0.001

@<SCITEGIC>MOL_PROPERTY
Tether
SciTegic.value.DoubleValue
0.000

@<TRIPOS>MOLECULE
guest-s18_confgen4.mol2 : confsearch ligand conformer 164
          16          15           1
SMALL
USER_CHARGES
 
@<TRIPOS>ATOM
       1    C1      18.632905   17.455123   23.432505 C.2        1 MOL1         0.6075
       2    O1      19.122456   17.340864   24.538507 O.co2      1 MOL1        -0.6830
       3    O2      17.874198   16.640149   22.946525 O.co2      1 MOL1        -0.6830
       4    C2      19.006373   18.677308   22.601025 C.3        1 MOL1        -0.2050
       5    H1      19.167843   19.514006   23.290213 H          1 MOL1         0.0710
       6    H2      18.146940   18.936048   21.970949 H          1 MOL1         0.0710
       7    C3      20.262667   18.445214   21.721905 C.3        1 MOL1        -0.1947
       8    H3      21.126060   18.228977   22.366190 H          1 MOL1         0.0712
       9    H4      20.102303   17.549298   21.106237 H          1 MOL1         0.0712
      10    C4      20.590781   19.635302   20.791078 C.3        1 MOL1        -0.1921
      11    H5      19.731730   19.844179   20.138558 H          1 MOL1         0.0712
      12    H6      21.420419   19.348493   20.130207 H          1 MOL1         0.0712
      13    C5      20.984582   20.916452   21.556914 C.3        1 MOL1        -0.2936
      14    H7      20.144689   21.305572   22.145937 H          1 MOL1         0.0724
      15    H8      21.291303   21.703444   20.855791 H          1 MOL1         0.0724
      16    H9      21.824041   20.724710   22.237937 H          1 MOL1         0.0724
@<TRIPOS>BOND
    1     1     2    1
    2     1     3    2
    3     1     4    1
    4     4     5    1
    5     4     6    1
    6     4     7    1
    7     7     8    1
    8     7     9    1
    9     7    10    1
   10    10    11    1
   11    10    12    1
   12    10    13    1
   13    13    14    1
   14    13    15    1
   15    13    16    1
@<TRIPOS>SUBSTRUCTURE
       1 MOL1            1 RESIDUE      1      MOL     
@<SCITEGIC>MOL_PROPERTY
VConf Rank
SciTegic.value.IntegerValue
164

@<SCITEGIC>MOL_PROPERTY
Conf_Id
SciTegic.value.IntegerValue
17

@<SCITEGIC>MOL_PROPERTY
Delta U+W
SciTegic.value.DoubleValue
-0.432

@<SCITEGIC>MOL_PROPERTY
U+W
SciTegic.value.DoubleValue
-57.336

@<SCITEGIC>MOL_PROPERTY
Grad RMS
SciTegic.value.DoubleValue
0.000000

@<SCITEGIC>MOL_PROPERTY
U
SciTegic.value.DoubleValue
7.263

@<SCITEGIC>MOL_PROPERTY
W
SciTegic.value.DoubleValue
-64.599

@<SCITEGIC>MOL_PROPERTY
W(PB)
SciTegic.value.DoubleValue
-66.503

@<SCITEGIC>MOL_PROPERTY
W(SA)
SciTegic.value.DoubleValue
1.904

@<SCITEGIC>MOL_PROPERTY
Valence
SciTegic.value.DoubleValue
6.734

@<SCITEGIC>MOL_PROPERTY
Coulomb
SciTegic.value.DoubleValue
-0.068

@<SCITEGIC>MOL_PROPERTY
VdW
SciTegic.value.DoubleValue
0.598

@<SCITEGIC>MOL_PROPERTY
VdW6
SciTegic.value.DoubleValue
-4.819

@<SCITEGIC>MOL_PROPERTY
VdW12
SciTegic.value.DoubleValue
5.417

@<SCITEGIC>MOL_PROPERTY
Bond
SciTegic.value.DoubleValue
0.107

@<SCITEGIC>MOL_PROPERTY
Angle
SciTegic.value.DoubleValue
2.469

@<SCITEGIC>MOL_PROPERTY
Pdih
SciTegic.value.DoubleValue
4.157

@<SCITEGIC>MOL_PROPERTY
Idih
SciTegic.value.DoubleValue
0.001

@<SCITEGIC>MOL_PROPERTY
Tether
SciTegic.value.DoubleValue
0.000

@<TRIPOS>MOLECULE
guest-s18_confgen4.mol2 : confsearch ligand conformer 165
          16          15           1
SMALL
USER_CHARGES
 
@<TRIPOS>ATOM
       1    C1      21.803213   20.118056   20.726194 C.2        1 MOL1         0.6075
       2    O1      21.356927   20.838674   19.855630 O.co2      1 MOL1        -0.6830
       3    O2      22.707387   20.444295   21.469361 O.co2      1 MOL1        -0.6830
       4    C2      21.210891   18.719493   20.876760 C.3        1 MOL1        -0.2050
       5    H1      21.921433   18.095834   21.432873 H          1 MOL1         0.0710
       6    H2      21.129041   18.287847   19.872163 H          1 MOL1         0.0710
       7    C3      19.821898   18.692154   21.565951 C.3        1 MOL1        -0.1947
       8    H3      19.129018   19.343136   21.014804 H          1 MOL1         0.0712
       9    H4      19.414298   17.673903   21.506073 H          1 MOL1         0.0712
      10    C4      19.884474   19.128788   23.045686 C.3        1 MOL1        -0.1921
      11    H5      20.271983   20.154717   23.116618 H          1 MOL1         0.0712
      12    H6      20.586999   18.484888   23.592703 H          1 MOL1         0.0712
      13    C5      18.497745   19.060194   23.715478 C.3        1 MOL1        -0.2936
      14    H7      17.782843   19.719605   23.206026 H          1 MOL1         0.0724
      15    H8      18.559681   19.374248   24.765550 H          1 MOL1         0.0724
      16    H9      18.099268   18.037449   23.690470 H          1 MOL1         0.0724
@<TRIPOS>BOND
    1     1     2    1
    2     1     3    2
    3     1     4    1
    4     4     5    1
    5     4     6    1
    6     4     7    1
    7     7     8    1
    8     7     9    1
    9     7    10    1
   10    10    11    1
   11    10    12    1
   12    10    13    1
   13    13    14    1
   14    13    15    1
   15    13    16    1
@<TRIPOS>SUBSTRUCTURE
       1 MOL1            1 RESIDUE      1      MOL     
@<SCITEGIC>MOL_PROPERTY
VConf Rank
SciTegic.value.IntegerValue
165

@<SCITEGIC>MOL_PROPERTY
Conf_Id
SciTegic.value.IntegerValue
19

@<SCITEGIC>MOL_PROPERTY
Delta U+W
SciTegic.value.DoubleValue
0.048

@<SCITEGIC>MOL_PROPERTY
U+W
SciTegic.value.DoubleValue
-56.856

@<SCITEGIC>MOL_PROPERTY
Grad RMS
SciTegic.value.DoubleValue
0.000000

@<SCITEGIC>MOL_PROPERTY
U
SciTegic.value.DoubleValue
8.276

@<SCITEGIC>MOL_PROPERTY
W
SciTegic.value.DoubleValue
-65.132

@<SCITEGIC>MOL_PROPERTY
W(PB)
SciTegic.value.DoubleValue
-67.031

@<SCITEGIC>MOL_PROPERTY
W(SA)
SciTegic.value.DoubleValue
1.899

@<SCITEGIC>MOL_PROPERTY
Valence
SciTegic.value.DoubleValue
6.513

@<SCITEGIC>MOL_PROPERTY
Coulomb
SciTegic.value.DoubleValue
1.428

@<SCITEGIC>MOL_PROPERTY
VdW
SciTegic.value.DoubleValue
0.335

@<SCITEGIC>MOL_PROPERTY
VdW6
SciTegic.value.DoubleValue
-5.021

@<SCITEGIC>MOL_PROPERTY
VdW12
SciTegic.value.DoubleValue
5.356

@<SCITEGIC>MOL_PROPERTY
Bond
SciTegic.value.DoubleValue
0.092

@<SCITEGIC>MOL_PROPERTY
Angle
SciTegic.value.DoubleValue
2.417

@<SCITEGIC>MOL_PROPERTY
Pdih
SciTegic.value.DoubleValue
4.003

@<SCITEGIC>MOL_PROPERTY
Idih
SciTegic.value.DoubleValue
0.001

@<SCITEGIC>MOL_PROPERTY
Tether
SciTegic.value.DoubleValue
0.000

@<TRIPOS>MOLECULE
guest-s18_confgen4.mol2 : confsearch ligand conformer 166
          16          15           1
SMALL
USER_CHARGES
 
@<TRIPOS>ATOM
       1    C1      19.236112   18.241947   20.000835 C.2        1 MOL1         0.6075
       2    O1      18.092586   18.499198   19.680660 O.co2      1 MOL1        -0.6830
       3    O2      19.708435   17.123178   19.961732 O.co2      1 MOL1        -0.6830
       4    C2      20.132592   19.391114   20.453864 C.3        1 MOL1        -0.2050
       5    H1      19.991974   20.216002   19.745330 H          1 MOL1         0.0710
       6    H2      21.179143   19.074223   20.367858 H          1 MOL1         0.0710
       7    C3      19.841499   19.890407   21.892966 C.3        1 MOL1        -0.1947
       8    H3      20.430203   20.798485   22.081064 H          1 MOL1         0.0712
       9    H4      18.783620   20.177263   21.971891 H          1 MOL1         0.0712
      10    C4      20.178458   18.834091   22.967604 C.3        1 MOL1        -0.1921
      11    H5      21.233273   18.539169   22.879485 H          1 MOL1         0.0712
      12    H6      19.579739   17.927646   22.801421 H          1 MOL1         0.0712
      13    C5      19.911985   19.367527   24.389148 C.3        1 MOL1        -0.2936
      14    H7      20.523572   20.255335   24.596932 H          1 MOL1         0.0724
      15    H8      20.155523   18.604820   25.140203 H          1 MOL1         0.0724
      16    H9      18.856087   19.641271   24.514027 H          1 MOL1         0.0724
@<TRIPOS>BOND
    1     1     2    1
    2     1     3    2
    3     1     4    1
    4     4     5    1
    5     4     6    1
    6     4     7    1
    7     7     8    1
    8     7     9    1
    9     7    10    1
   10    10    11    1
   11    10    12    1
   12    10    13    1
   13    13    14    1
   14    13    15    1
   15    13    16    1
@<TRIPOS>SUBSTRUCTURE
       1 MOL1            1 RESIDUE      1      MOL     
@<SCITEGIC>MOL_PROPERTY
VConf Rank
SciTegic.value.IntegerValue
166

@<SCITEGIC>MOL_PROPERTY
Conf_Id
SciTegic.value.IntegerValue
20

@<SCITEGIC>MOL_PROPERTY
Delta U+W
SciTegic.value.DoubleValue
-0.010

@<SCITEGIC>MOL_PROPERTY
U+W
SciTegic.value.DoubleValue
-56.914

@<SCITEGIC>MOL_PROPERTY
Grad RMS
SciTegic.value.DoubleValue
0.000000

@<SCITEGIC>MOL_PROPERTY
U
SciTegic.value.DoubleValue
8.277

@<SCITEGIC>MOL_PROPERTY
W
SciTegic.value.DoubleValue
-65.191

@<SCITEGIC>MOL_PROPERTY
W(PB)
SciTegic.value.DoubleValue
-67.081

@<SCITEGIC>MOL_PROPERTY
W(SA)
SciTegic.value.DoubleValue
1.890

@<SCITEGIC>MOL_PROPERTY
Valence
SciTegic.value.DoubleValue
6.513

@<SCITEGIC>MOL_PROPERTY
Coulomb
SciTegic.value.DoubleValue
1.429

@<SCITEGIC>MOL_PROPERTY
VdW
SciTegic.value.DoubleValue
0.335

@<SCITEGIC>MOL_PROPERTY
VdW6
SciTegic.value.DoubleValue
-5.021

@<SCITEGIC>MOL_PROPERTY
VdW12
SciTegic.value.DoubleValue
5.356

@<SCITEGIC>MOL_PROPERTY
Bond
SciTegic.value.DoubleValue
0.092

@<SCITEGIC>MOL_PROPERTY
Angle
SciTegic.value.DoubleValue
2.417

@<SCITEGIC>MOL_PROPERTY
Pdih
SciTegic.value.DoubleValue
4.002

@<SCITEGIC>MOL_PROPERTY
Idih
SciTegic.value.DoubleValue
0.001

@<SCITEGIC>MOL_PROPERTY
Tether
SciTegic.value.DoubleValue
0.000

@<TRIPOS>MOLECULE
guest-s18_confgen4.mol2 : confsearch ligand conformer 167
          16          15           1
SMALL
USER_CHARGES
 
@<TRIPOS>ATOM
       1    C1      19.050228   20.561925   20.759777 C.2        1 MOL1         0.6075
       2    O1      19.547761   20.772855   19.671312 O.co2      1 MOL1        -0.6830
       3    O2      18.679911   21.443366   21.509595 O.co2      1 MOL1        -0.6830
       4    C2      18.849920   19.111411   21.190628 C.3        1 MOL1        -0.2050
       5    H1      18.343213   18.594354   20.367354 H          1 MOL1         0.0710
       6    H2      18.160017   19.089229   22.041973 H          1 MOL1         0.0710
       7    C3      20.166673   18.362132   21.533294 C.3        1 MOL1        -0.1947
       8    H3      19.936163   17.310955   21.752984 H          1 MOL1         0.0712
       9    H4      20.811220   18.356606   20.643415 H          1 MOL1         0.0712
      10    C4      20.955706   18.968471   22.718101 C.3        1 MOL1        -0.1921
      11    H5      21.222925   20.010932   22.495690 H          1 MOL1         0.0712
      12    H6      21.903203   18.422927   22.826540 H          1 MOL1         0.0712
      13    C5      20.188766   18.905229   24.056102 C.3        1 MOL1        -0.2936
      14    H7      19.293667   19.539825   24.032154 H          1 MOL1         0.0724
      15    H8      20.823519   19.258301   24.879077 H          1 MOL1         0.0724
      16    H9      19.878708   17.877230   24.284465 H          1 MOL1         0.0724
@<TRIPOS>BOND
    1     1     2    1
    2     1     3    2
    3     1     4    1
    4     4     5    1
    5     4     6    1
    6     4     7    1
    7     7     8    1
    8     7     9    1
    9     7    10    1
   10    10    11    1
   11    10    12    1
   12    10    13    1
   13    13    14    1
   14    13    15    1
   15    13    16    1
@<TRIPOS>SUBSTRUCTURE
       1 MOL1            1 RESIDUE      1      MOL     
@<SCITEGIC>MOL_PROPERTY
VConf Rank
SciTegic.value.IntegerValue
167

@<SCITEGIC>MOL_PROPERTY
Conf_Id
SciTegic.value.IntegerValue
37

@<SCITEGIC>MOL_PROPERTY
Delta U+W
SciTegic.value.DoubleValue
1.063

@<SCITEGIC>MOL_PROPERTY
U+W
SciTegic.value.DoubleValue
-55.841

@<SCITEGIC>MOL_PROPERTY
Grad RMS
SciTegic.value.DoubleValue
0.000000

@<SCITEGIC>MOL_PROPERTY
U
SciTegic.value.DoubleValue
9.719

@<SCITEGIC>MOL_PROPERTY
W
SciTegic.value.DoubleValue
-65.560

@<SCITEGIC>MOL_PROPERTY
W(PB)
SciTegic.value.DoubleValue
-67.414

@<SCITEGIC>MOL_PROPERTY
W(SA)
SciTegic.value.DoubleValue
1.854

@<SCITEGIC>MOL_PROPERTY
Valence
SciTegic.value.DoubleValue
7.002

@<SCITEGIC>MOL_PROPERTY
Coulomb
SciTegic.value.DoubleValue
2.402

@<SCITEGIC>MOL_PROPERTY
VdW
SciTegic.value.DoubleValue
0.314

@<SCITEGIC>MOL_PROPERTY
VdW6
SciTegic.value.DoubleValue
-5.861

@<SCITEGIC>MOL_PROPERTY
VdW12
SciTegic.value.DoubleValue
6.175

@<SCITEGIC>MOL_PROPERTY
Bond
SciTegic.value.DoubleValue
0.134

@<SCITEGIC>MOL_PROPERTY
Angle
SciTegic.value.DoubleValue
2.733

@<SCITEGIC>MOL_PROPERTY
Pdih
SciTegic.value.DoubleValue
4.133

@<SCITEGIC>MOL_PROPERTY
Idih
SciTegic.value.DoubleValue
0.002

@<SCITEGIC>MOL_PROPERTY
Tether
SciTegic.value.DoubleValue
0.000

@<TRIPOS>MOLECULE
guest-s18_confgen4.mol2 : confsearch ligand conformer 168
          16          15           1
SMALL
USER_CHARGES
 
@<TRIPOS>ATOM
       1    C1      18.787501   17.522903   22.613745 C.2        1 MOL1         0.6075
       2    O1      18.001546   17.547915   23.540263 O.co2      1 MOL1        -0.6830
       3    O2      18.487832   17.171306   21.489967 O.co2      1 MOL1        -0.6830
       4    C2      20.235245   17.921696   22.887142 C.3        1 MOL1        -0.2050
       5    H1      20.856318   17.589782   22.047291 H          1 MOL1         0.0710
       6    H2      20.569373   17.353770   23.763327 H          1 MOL1         0.0710
       7    C3      20.437854   19.438773   23.151920 C.3        1 MOL1        -0.1947
       8    H3      19.844408   19.725764   24.031018 H          1 MOL1         0.0712
       9    H4      21.488130   19.621026   23.416637 H          1 MOL1         0.0712
      10    C4      20.046432   20.351166   21.965194 C.3        1 MOL1        -0.1921
      11    H5      20.146295   21.399436   22.278699 H          1 MOL1         0.0712
      12    H6      18.987125   20.203551   21.712852 H          1 MOL1         0.0712
      13    C5      20.914124   20.122198   20.709358 C.3        1 MOL1        -0.2936
      14    H7      21.981415   20.229113   20.942864 H          1 MOL1         0.0724
      15    H8      20.662751   20.854041   19.930849 H          1 MOL1         0.0724
      16    H9      20.749951   19.121709   20.289172 H          1 MOL1         0.0724
@<TRIPOS>BOND
    1     1     2    1
    2     1     3    2
    3     1     4    1
    4     4     5    1
    5     4     6    1
    6     4     7    1
    7     7     8    1
    8     7     9    1
    9     7    10    1
   10    10    11    1
   11    10    12    1
   12    10    13    1
   13    13    14    1
   14    13    15    1
   15    13    16    1
@<TRIPOS>SUBSTRUCTURE
       1 MOL1            1 RESIDUE      1      MOL     
@<SCITEGIC>MOL_PROPERTY
VConf Rank
SciTegic.value.IntegerValue
168

@<SCITEGIC>MOL_PROPERTY
Conf_Id
SciTegic.value.IntegerValue
39

@<SCITEGIC>MOL_PROPERTY
Delta U+W
SciTegic.value.DoubleValue
1.129

@<SCITEGIC>MOL_PROPERTY
U+W
SciTegic.value.DoubleValue
-55.775

@<SCITEGIC>MOL_PROPERTY
Grad RMS
SciTegic.value.DoubleValue
0.000000

@<SCITEGIC>MOL_PROPERTY
U
SciTegic.value.DoubleValue
9.718

@<SCITEGIC>MOL_PROPERTY
W
SciTegic.value.DoubleValue
-65.493

@<SCITEGIC>MOL_PROPERTY
W(PB)
SciTegic.value.DoubleValue
-67.361

@<SCITEGIC>MOL_PROPERTY
W(SA)
SciTegic.value.DoubleValue
1.869

@<SCITEGIC>MOL_PROPERTY
Valence
SciTegic.value.DoubleValue
7.002

@<SCITEGIC>MOL_PROPERTY
Coulomb
SciTegic.value.DoubleValue
2.402

@<SCITEGIC>MOL_PROPERTY
VdW
SciTegic.value.DoubleValue
0.314

@<SCITEGIC>MOL_PROPERTY
VdW6
SciTegic.value.DoubleValue
-5.861

@<SCITEGIC>MOL_PROPERTY
VdW12
SciTegic.value.DoubleValue
6.175

@<SCITEGIC>MOL_PROPERTY
Bond
SciTegic.value.DoubleValue
0.134

@<SCITEGIC>MOL_PROPERTY
Angle
SciTegic.value.DoubleValue
2.734

@<SCITEGIC>MOL_PROPERTY
Pdih
SciTegic.value.DoubleValue
4.133

@<SCITEGIC>MOL_PROPERTY
Idih
SciTegic.value.DoubleValue
0.002

@<SCITEGIC>MOL_PROPERTY
Tether
SciTegic.value.DoubleValue
0.000

@<TRIPOS>MOLECULE
guest-s18_confgen4.mol2 : confsearch ligand conformer 169
          16          15           1
SMALL
USER_CHARGES
 
@<TRIPOS>ATOM
       1    C1      19.832500   17.225868   21.535772 C.2        1 MOL1         0.6075
       2    O1      19.231960   16.478650   22.282657 O.co2      1 MOL1        -0.6830
       3    O2      20.915711   16.960046   21.052914 O.co2      1 MOL1        -0.6830
       4    C2      19.148880   18.524788   21.112541 C.3        1 MOL1        -0.2050
       5    H1      18.154312   18.570944   21.572632 H          1 MOL1         0.0710
       6    H2      18.990212   18.451818   20.030298 H          1 MOL1         0.0710
       7    C3      19.944293   19.824830   21.419447 C.3        1 MOL1        -0.1947
       8    H3      20.998505   19.694052   21.138246 H          1 MOL1         0.0712
       9    H4      19.554784   20.621488   20.771318 H          1 MOL1         0.0712
      10    C4      19.841902   20.315553   22.883780 C.3        1 MOL1        -0.1921
      11    H5      18.786544   20.443150   23.161572 H          1 MOL1         0.0712
      12    H6      20.300587   21.311868   22.949024 H          1 MOL1         0.0712
      13    C5      20.538344   19.389300   23.902264 C.3        1 MOL1        -0.2936
      14    H7      20.012537   18.431278   23.995642 H          1 MOL1         0.0724
      15    H8      20.554534   19.854843   24.896133 H          1 MOL1         0.0724
      16    H9      21.575682   19.186342   23.605500 H          1 MOL1         0.0724
@<TRIPOS>BOND
    1     1     2    1
    2     1     3    2
    3     1     4    1
    4     4     5    1
    5     4     6    1
    6     4     7    1
    7     7     8    1
    8     7     9    1
    9     7    10    1
   10    10    11    1
   11    10    12    1
   12    10    13    1
   13    13    14    1
   14    13    15    1
   15    13    16    1
@<TRIPOS>SUBSTRUCTURE
       1 MOL1            1 RESIDUE      1      MOL     
@<SCITEGIC>MOL_PROPERTY
VConf Rank
SciTegic.value.IntegerValue
169

@<SCITEGIC>MOL_PROPERTY
Conf_Id
SciTegic.value.IntegerValue
47

@<SCITEGIC>MOL_PROPERTY
Delta U+W
SciTegic.value.DoubleValue
2.301

@<SCITEGIC>MOL_PROPERTY
U+W
SciTegic.value.DoubleValue
-54.603

@<SCITEGIC>MOL_PROPERTY
Grad RMS
SciTegic.value.DoubleValue
0.000000

@<SCITEGIC>MOL_PROPERTY
U
SciTegic.value.DoubleValue
11.258

@<SCITEGIC>MOL_PROPERTY
W
SciTegic.value.DoubleValue
-65.861

@<SCITEGIC>MOL_PROPERTY
W(PB)
SciTegic.value.DoubleValue
-67.702

@<SCITEGIC>MOL_PROPERTY
W(SA)
SciTegic.value.DoubleValue
1.841

@<SCITEGIC>MOL_PROPERTY
Valence
SciTegic.value.DoubleValue
8.169

@<SCITEGIC>MOL_PROPERTY
Coulomb
SciTegic.value.DoubleValue
2.735

@<SCITEGIC>MOL_PROPERTY
VdW
SciTegic.value.DoubleValue
0.355

@<SCITEGIC>MOL_PROPERTY
VdW6
SciTegic.value.DoubleValue
-6.245

@<SCITEGIC>MOL_PROPERTY
VdW12
SciTegic.value.DoubleValue
6.600

@<SCITEGIC>MOL_PROPERTY
Bond
SciTegic.value.DoubleValue
0.149

@<SCITEGIC>MOL_PROPERTY
Angle
SciTegic.value.DoubleValue
3.168

@<SCITEGIC>MOL_PROPERTY
Pdih
SciTegic.value.DoubleValue
4.840

@<SCITEGIC>MOL_PROPERTY
Idih
SciTegic.value.DoubleValue
0.011

@<SCITEGIC>MOL_PROPERTY
Tether
SciTegic.value.DoubleValue
0.000

@<TRIPOS>MOLECULE
guest-s18_confgen4.mol2 : confsearch ligand conformer 170
          16          15           1
SMALL
USER_CHARGES
 
@<TRIPOS>ATOM
       1    C1      20.555335   17.931250   20.808031 C.2        1 MOL1         0.6075
       2    O1      19.655044   17.735469   20.015374 O.co2      1 MOL1        -0.6830
       3    O2      21.259653   17.045915   21.251807 O.co2      1 MOL1        -0.6830
       4    C2      20.877384   19.372720   21.198050 C.3        1 MOL1        -0.2050
       5    H1      21.168872   19.884948   20.273709 H          1 MOL1         0.0710
       6    H2      21.759147   19.377407   21.850316 H          1 MOL1         0.0710
       7    C3      19.711826   20.157172   21.863707 C.3        1 MOL1        -0.1947
       8    H3      19.923906   21.230107   21.762285 H          1 MOL1         0.0712
       9    H4      18.777987   19.979687   21.312360 H          1 MOL1         0.0712
      10    C4      19.505925   19.857045   23.368064 C.3        1 MOL1        -0.1921
      11    H5      18.774851   20.573113   23.768151 H          1 MOL1         0.0712
      12    H6      20.442115   20.033895   23.915334 H          1 MOL1         0.0712
      13    C5      18.998611   18.428653   23.655492 C.3        1 MOL1        -0.2936
      14    H7      18.739079   18.319641   24.716402 H          1 MOL1         0.0724
      15    H8      19.764978   17.678630   23.424958 H          1 MOL1         0.0724
      16    H9      18.103443   18.201362   23.061908 H          1 MOL1         0.0724
@<TRIPOS>BOND
    1     1     2    1
    2     1     3    2
    3     1     4    1
    4     4     5    1
    5     4     6    1
    6     4     7    1
    7     7     8    1
    8     7     9    1
    9     7    10    1
   10    10    11    1
   11    10    12    1
   12    10    13    1
   13    13    14    1
   14    13    15    1
   15    13    16    1
@<TRIPOS>SUBSTRUCTURE
       1 MOL1            1 RESIDUE      1      MOL     
@<SCITEGIC>MOL_PROPERTY
VConf Rank
SciTegic.value.IntegerValue
170

@<SCITEGIC>MOL_PROPERTY
Conf_Id
SciTegic.value.IntegerValue
45

@<SCITEGIC>MOL_PROPERTY
Delta U+W
SciTegic.value.DoubleValue
2.303

@<SCITEGIC>MOL_PROPERTY
U+W
SciTegic.value.DoubleValue
-54.601

@<SCITEGIC>MOL_PROPERTY
Grad RMS
SciTegic.value.DoubleValue
0.000000

@<SCITEGIC>MOL_PROPERTY
U
SciTegic.value.DoubleValue
11.258

@<SCITEGIC>MOL_PROPERTY
W
SciTegic.value.DoubleValue
-65.860

@<SCITEGIC>MOL_PROPERTY
W(PB)
SciTegic.value.DoubleValue
-67.709

@<SCITEGIC>MOL_PROPERTY
W(SA)
SciTegic.value.DoubleValue
1.849

@<SCITEGIC>MOL_PROPERTY
Valence
SciTegic.value.DoubleValue
8.169

@<SCITEGIC>MOL_PROPERTY
Coulomb
SciTegic.value.DoubleValue
2.735

@<SCITEGIC>MOL_PROPERTY
VdW
SciTegic.value.DoubleValue
0.355

@<SCITEGIC>MOL_PROPERTY
VdW6
SciTegic.value.DoubleValue
-6.245

@<SCITEGIC>MOL_PROPERTY
VdW12
SciTegic.value.DoubleValue
6.600

@<SCITEGIC>MOL_PROPERTY
Bond
SciTegic.value.DoubleValue
0.149

@<SCITEGIC>MOL_PROPERTY
Angle
SciTegic.value.DoubleValue
3.168

@<SCITEGIC>MOL_PROPERTY
Pdih
SciTegic.value.DoubleValue
4.840

@<SCITEGIC>MOL_PROPERTY
Idih
SciTegic.value.DoubleValue
0.011

@<SCITEGIC>MOL_PROPERTY
Tether
SciTegic.value.DoubleValue
0.000

@<TRIPOS>MOLECULE
guest-s18_confgen4.mol2 : confsearch ligand conformer 171
          16          15           1
SMALL
USER_CHARGES
 
@<TRIPOS>ATOM
       1    C1      19.424305   18.072187   24.415674 C.2        1 MOL1         0.6075
       2    O1      18.238446   18.333405   24.358404 O.co2      1 MOL1        -0.6830
       3    O2      19.936390   17.524685   25.371354 O.co2      1 MOL1        -0.6830
       4    C2      20.340518   18.437366   23.246447 C.3        1 MOL1        -0.2050
       5    H1      20.821465   17.512600   22.906360 H          1 MOL1         0.0710
       6    H2      21.132765   19.084419   23.641200 H          1 MOL1         0.0710
       7    C3      19.642443   19.135419   22.049050 C.3        1 MOL1        -0.1947
       8    H3      18.846270   18.484845   21.661324 H          1 MOL1         0.0712
       9    H4      19.157908   20.058286   22.396919 H          1 MOL1         0.0712
      10    C4      20.638687   19.466799   20.918146 C.3        1 MOL1        -0.1921
      11    H5      21.122688   18.544450   20.568125 H          1 MOL1         0.0712
      12    H6      21.434521   20.118834   21.304150 H          1 MOL1         0.0712
      13    C5      19.939529   20.159819   19.731958 C.3        1 MOL1        -0.2936
      14    H7      19.158670   19.516251   19.305871 H          1 MOL1         0.0724
      15    H8      20.661522   20.388362   18.937203 H          1 MOL1         0.0724
      16    H9      19.472801   21.102252   20.047322 H          1 MOL1         0.0724
@<TRIPOS>BOND
    1     1     2    1
    2     1     3    2
    3     1     4    1
    4     4     5    1
    5     4     6    1
    6     4     7    1
    7     7     8    1
    8     7     9    1
    9     7    10    1
   10    10    11    1
   11    10    12    1
   12    10    13    1
   13    13    14    1
   14    13    15    1
   15    13    16    1
@<TRIPOS>SUBSTRUCTURE
       1 MOL1            1 RESIDUE      1      MOL     
@<SCITEGIC>MOL_PROPERTY
VConf Rank
SciTegic.value.IntegerValue
171

@<SCITEGIC>MOL_PROPERTY
Conf_Id
SciTegic.value.IntegerValue
0

@<SCITEGIC>MOL_PROPERTY
Delta U+W
SciTegic.value.DoubleValue
0.000

@<SCITEGIC>MOL_PROPERTY
U+W
SciTegic.value.DoubleValue
-56.904

@<SCITEGIC>MOL_PROPERTY
Grad RMS
SciTegic.value.DoubleValue
0.000000

@<SCITEGIC>MOL_PROPERTY
U
SciTegic.value.DoubleValue
7.329

@<SCITEGIC>MOL_PROPERTY
W
SciTegic.value.DoubleValue
-64.233

@<SCITEGIC>MOL_PROPERTY
W(PB)
SciTegic.value.DoubleValue
-66.148

@<SCITEGIC>MOL_PROPERTY
W(SA)
SciTegic.value.DoubleValue
1.915

@<SCITEGIC>MOL_PROPERTY
Valence
SciTegic.value.DoubleValue
6.755

@<SCITEGIC>MOL_PROPERTY
Coulomb
SciTegic.value.DoubleValue
-0.421

@<SCITEGIC>MOL_PROPERTY
VdW
SciTegic.value.DoubleValue
0.995

@<SCITEGIC>MOL_PROPERTY
VdW6
SciTegic.value.DoubleValue
-4.495

@<SCITEGIC>MOL_PROPERTY
VdW12
SciTegic.value.DoubleValue
5.490

@<SCITEGIC>MOL_PROPERTY
Bond
SciTegic.value.DoubleValue
0.106

@<SCITEGIC>MOL_PROPERTY
Angle
SciTegic.value.DoubleValue
2.715

@<SCITEGIC>MOL_PROPERTY
Pdih
SciTegic.value.DoubleValue
3.934

@<SCITEGIC>MOL_PROPERTY
Idih
SciTegic.value.DoubleValue
0.000

@<SCITEGIC>MOL_PROPERTY
Tether
SciTegic.value.DoubleValue
0.000

@<TRIPOS>MOLECULE
guest-s18_confgen4.mol2 : confsearch ligand conformer 172
          16          15           1
SMALL
USER_CHARGES
 
@<TRIPOS>ATOM
       1    C1      17.369939   18.757935   21.472962 C.2        1 MOL1         0.6075
       2    O1      16.643238   19.571801   22.007162 O.co2      1 MOL1        -0.6830
       3    O2      17.108245   18.212849   20.419282 O.co2      1 MOL1        -0.6830
       4    C2      18.690886   18.415418   22.152936 C.3        1 MOL1        -0.2050
       5    H1      18.928681   17.368573   21.928395 H          1 MOL1         0.0710
       6    H2      18.545354   18.489068   23.237485 H          1 MOL1         0.0710
       7    C3      19.854537   19.334657   21.706865 C.3        1 MOL1        -0.1947
       8    H3      19.979674   19.259319   20.617730 H          1 MOL1         0.0712
       9    H4      19.596303   20.379879   21.926815 H          1 MOL1         0.0712
      10    C4      21.178257   18.967082   22.409157 C.3        1 MOL1        -0.1921
      11    H5      21.437192   17.922107   22.188886 H          1 MOL1         0.0712
      12    H6      21.053711   19.042921   23.498319 H          1 MOL1         0.0712
      13    C5      22.331727   19.885934   21.960469 C.3        1 MOL1        -0.2936
      14    H7      22.112788   20.935411   22.197392 H          1 MOL1         0.0724
      15    H8      22.499085   19.806337   20.878282 H          1 MOL1         0.0724
      16    H9      23.265128   19.611300   22.468886 H          1 MOL1         0.0724
@<TRIPOS>BOND
    1     1     2    1
    2     1     3    2
    3     1     4    1
    4     4     5    1
    5     4     6    1
    6     4     7    1
    7     7     8    1
    8     7     9    1
    9     7    10    1
   10    10    11    1
   11    10    12    1
   12    10    13    1
   13    13    14    1
   14    13    15    1
   15    13    16    1
@<TRIPOS>SUBSTRUCTURE
       1 MOL1            1 RESIDUE      1      MOL     
@<SCITEGIC>MOL_PROPERTY
VConf Rank
SciTegic.value.IntegerValue
172

@<SCITEGIC>MOL_PROPERTY
Conf_Id
SciTegic.value.IntegerValue
22

@<SCITEGIC>MOL_PROPERTY
Delta U+W
SciTegic.value.DoubleValue
-1.185

@<SCITEGIC>MOL_PROPERTY
U+W
SciTegic.value.DoubleValue
-58.089

@<SCITEGIC>MOL_PROPERTY
Grad RMS
SciTegic.value.DoubleValue
0.000000

@<SCITEGIC>MOL_PROPERTY
U
SciTegic.value.DoubleValue
6.298

@<SCITEGIC>MOL_PROPERTY
W
SciTegic.value.DoubleValue
-64.387

@<SCITEGIC>MOL_PROPERTY
W(PB)
SciTegic.value.DoubleValue
-66.329

@<SCITEGIC>MOL_PROPERTY
W(SA)
SciTegic.value.DoubleValue
1.942

@<SCITEGIC>MOL_PROPERTY
Valence
SciTegic.value.DoubleValue
6.246

@<SCITEGIC>MOL_PROPERTY
Coulomb
SciTegic.value.DoubleValue
-0.408

@<SCITEGIC>MOL_PROPERTY
VdW
SciTegic.value.DoubleValue
0.460

@<SCITEGIC>MOL_PROPERTY
VdW6
SciTegic.value.DoubleValue
-4.207

@<SCITEGIC>MOL_PROPERTY
VdW12
SciTegic.value.DoubleValue
4.667

@<SCITEGIC>MOL_PROPERTY
Bond
SciTegic.value.DoubleValue
0.072

@<SCITEGIC>MOL_PROPERTY
Angle
SciTegic.value.DoubleValue
2.246

@<SCITEGIC>MOL_PROPERTY
Pdih
SciTegic.value.DoubleValue
3.928

@<SCITEGIC>MOL_PROPERTY
Idih
SciTegic.value.DoubleValue
0.001

@<SCITEGIC>MOL_PROPERTY
Tether
SciTegic.value.DoubleValue
0.000

@<TRIPOS>MOLECULE
guest-s18_confgen4.mol2 : confsearch ligand conformer 173
          16          15           1
SMALL
USER_CHARGES
 
@<TRIPOS>ATOM
       1    C1      21.781243   18.799492   20.178194 C.2        1 MOL1         0.6075
       2    O1      22.920217   19.199502   20.315037 O.co2      1 MOL1        -0.6830
       3    O2      21.283554   18.546240   19.099247 O.co2      1 MOL1        -0.6830
       4    C2      20.923921   18.625202   21.426871 C.3        1 MOL1        -0.2050
       5    H1      21.582495   18.334983   22.254289 H          1 MOL1         0.0710
       6    H2      20.238709   17.788780   21.247986 H          1 MOL1         0.0710
       7    C3      20.133869   19.907218   21.797337 C.3        1 MOL1        -0.1947
       8    H3      20.840098   20.744542   21.884264 H          1 MOL1         0.0712
       9    H4      19.446985   20.163801   20.979007 H          1 MOL1         0.0712
      10    C4      19.345329   19.783052   23.121420 C.3        1 MOL1        -0.1921
      11    H5      18.907463   20.760996   23.364748 H          1 MOL1         0.0712
      12    H6      20.033771   19.538039   23.942027 H          1 MOL1         0.0712
      13    C5      18.215397   18.733049   23.060745 C.3        1 MOL1        -0.2936
      14    H7      18.616152   17.719833   22.932021 H          1 MOL1         0.0724
      15    H8      17.529905   18.941190   22.228863 H          1 MOL1         0.0724
      16    H9      17.631611   18.743654   23.990309 H          1 MOL1         0.0724
@<TRIPOS>BOND
    1     1     2    1
    2     1     3    2
    3     1     4    1
    4     4     5    1
    5     4     6    1
    6     4     7    1
    7     7     8    1
    8     7     9    1
    9     7    10    1
   10    10    11    1
   11    10    12    1
   12    10    13    1
   13    13    14    1
   14    13    15    1
   15    13    16    1
@<TRIPOS>SUBSTRUCTURE
       1 MOL1            1 RESIDUE      1      MOL     
@<SCITEGIC>MOL_PROPERTY
VConf Rank
SciTegic.value.IntegerValue
173

@<SCITEGIC>MOL_PROPERTY
Conf_Id
SciTegic.value.IntegerValue
36

@<SCITEGIC>MOL_PROPERTY
Delta U+W
SciTegic.value.DoubleValue
-0.427

@<SCITEGIC>MOL_PROPERTY
U+W
SciTegic.value.DoubleValue
-57.331

@<SCITEGIC>MOL_PROPERTY
Grad RMS
SciTegic.value.DoubleValue
0.000000

@<SCITEGIC>MOL_PROPERTY
U
SciTegic.value.DoubleValue
7.263

@<SCITEGIC>MOL_PROPERTY
W
SciTegic.value.DoubleValue
-64.594

@<SCITEGIC>MOL_PROPERTY
W(PB)
SciTegic.value.DoubleValue
-66.513

@<SCITEGIC>MOL_PROPERTY
W(SA)
SciTegic.value.DoubleValue
1.920

@<SCITEGIC>MOL_PROPERTY
Valence
SciTegic.value.DoubleValue
6.734

@<SCITEGIC>MOL_PROPERTY
Coulomb
SciTegic.value.DoubleValue
-0.068

@<SCITEGIC>MOL_PROPERTY
VdW
SciTegic.value.DoubleValue
0.598

@<SCITEGIC>MOL_PROPERTY
VdW6
SciTegic.value.DoubleValue
-4.819

@<SCITEGIC>MOL_PROPERTY
VdW12
SciTegic.value.DoubleValue
5.417

@<SCITEGIC>MOL_PROPERTY
Bond
SciTegic.value.DoubleValue
0.107

@<SCITEGIC>MOL_PROPERTY
Angle
SciTegic.value.DoubleValue
2.469

@<SCITEGIC>MOL_PROPERTY
Pdih
SciTegic.value.DoubleValue
4.157

@<SCITEGIC>MOL_PROPERTY
Idih
SciTegic.value.DoubleValue
0.001

@<SCITEGIC>MOL_PROPERTY
Tether
SciTegic.value.DoubleValue
0.000

@<TRIPOS>MOLECULE
guest-s18_confgen4.mol2 : confsearch ligand conformer 174
          16          15           1
SMALL
USER_CHARGES
 
@<TRIPOS>ATOM
       1    C1      20.993647   20.315684   24.053698 C.2        1 MOL1         0.6075
       2    O1      20.213072   21.107452   24.543355 O.co2      1 MOL1        -0.6830
       3    O2      22.190832   20.338513   24.259178 O.co2      1 MOL1        -0.6830
       4    C2      20.444059   19.247754   23.114522 C.3        1 MOL1        -0.2050
       5    H1      19.438075   18.983979   23.460263 H          1 MOL1         0.0710
       6    H2      21.068113   18.351689   23.215472 H          1 MOL1         0.0710
       7    C3      20.407962   19.709675   21.634549 C.3        1 MOL1        -0.1947
       8    H3      19.746275   20.581627   21.538735 H          1 MOL1         0.0712
       9    H4      21.412498   20.048717   21.345781 H          1 MOL1         0.0712
      10    C4      19.956996   18.601786   20.654948 C.3        1 MOL1        -0.1921
      11    H5      20.625665   17.734235   20.742233 H          1 MOL1         0.0712
      12    H6      20.064088   18.974384   19.626838 H          1 MOL1         0.0712
      13    C5      18.495578   18.154793   20.872625 C.3        1 MOL1        -0.2936
      14    H7      18.365598   17.670472   21.848495 H          1 MOL1         0.0724
      15    H8      18.196206   17.433343   20.101332 H          1 MOL1         0.0724
      16    H9      17.810622   19.011036   20.818457 H          1 MOL1         0.0724
@<TRIPOS>BOND
    1     1     2    1
    2     1     3    2
    3     1     4    1
    4     4     5    1
    5     4     6    1
    6     4     7    1
    7     7     8    1
    8     7     9    1
    9     7    10    1
   10    10    11    1
   11    10    12    1
   12    10    13    1
   13    13    14    1
   14    13    15    1
   15    13    16    1
@<TRIPOS>SUBSTRUCTURE
       1 MOL1            1 RESIDUE      1      MOL     
@<SCITEGIC>MOL_PROPERTY
VConf Rank
SciTegic.value.IntegerValue
174

@<SCITEGIC>MOL_PROPERTY
Conf_Id
SciTegic.value.IntegerValue
17

@<SCITEGIC>MOL_PROPERTY
Delta U+W
SciTegic.value.DoubleValue
-0.432

@<SCITEGIC>MOL_PROPERTY
U+W
SciTegic.value.DoubleValue
-57.336

@<SCITEGIC>MOL_PROPERTY
Grad RMS
SciTegic.value.DoubleValue
0.000000

@<SCITEGIC>MOL_PROPERTY
U
SciTegic.value.DoubleValue
7.263

@<SCITEGIC>MOL_PROPERTY
W
SciTegic.value.DoubleValue
-64.599

@<SCITEGIC>MOL_PROPERTY
W(PB)
SciTegic.value.DoubleValue
-66.503

@<SCITEGIC>MOL_PROPERTY
W(SA)
SciTegic.value.DoubleValue
1.904

@<SCITEGIC>MOL_PROPERTY
Valence
SciTegic.value.DoubleValue
6.734

@<SCITEGIC>MOL_PROPERTY
Coulomb
SciTegic.value.DoubleValue
-0.068

@<SCITEGIC>MOL_PROPERTY
VdW
SciTegic.value.DoubleValue
0.598

@<SCITEGIC>MOL_PROPERTY
VdW6
SciTegic.value.DoubleValue
-4.819

@<SCITEGIC>MOL_PROPERTY
VdW12
SciTegic.value.DoubleValue
5.417

@<SCITEGIC>MOL_PROPERTY
Bond
SciTegic.value.DoubleValue
0.107

@<SCITEGIC>MOL_PROPERTY
Angle
SciTegic.value.DoubleValue
2.469

@<SCITEGIC>MOL_PROPERTY
Pdih
SciTegic.value.DoubleValue
4.157

@<SCITEGIC>MOL_PROPERTY
Idih
SciTegic.value.DoubleValue
0.001

@<SCITEGIC>MOL_PROPERTY
Tether
SciTegic.value.DoubleValue
0.000

@<TRIPOS>MOLECULE
guest-s18_confgen4.mol2 : confsearch ligand conformer 175
          16          15           1
SMALL
USER_CHARGES
 
@<TRIPOS>ATOM
       1    C1      22.154378   18.144132   21.349710 C.2        1 MOL1         0.6075
       2    O1      22.524318   17.217491   22.043123 O.co2      1 MOL1        -0.6830
       3    O2      22.085940   18.089907   20.137836 O.co2      1 MOL1        -0.6830
       4    C2      21.778876   19.453392   22.038425 C.3        1 MOL1        -0.2050
       5    H1      21.811071   20.261238   21.297187 H          1 MOL1         0.0710
       6    H2      22.558680   19.670593   22.777995 H          1 MOL1         0.0710
       7    C3      20.395538   19.425049   22.738858 C.3        1 MOL1        -0.1947
       8    H3      20.368074   18.593951   23.457290 H          1 MOL1         0.0712
       9    H4      20.271038   20.349133   23.319485 H          1 MOL1         0.0712
      10    C4      19.226377   19.291017   21.739219 C.3        1 MOL1        -0.1921
      11    H5      19.329420   18.358880   21.166309 H          1 MOL1         0.0712
      12    H6      19.262426   20.115735   21.014017 H          1 MOL1         0.0712
      13    C5      17.862803   19.299397   22.458205 C.3        1 MOL1        -0.2936
      14    H7      17.788327   18.465098   23.168028 H          1 MOL1         0.0724
      15    H8      17.043395   19.202547   21.734114 H          1 MOL1         0.0724
      16    H9      17.716438   20.235723   23.012538 H          1 MOL1         0.0724
@<TRIPOS>BOND
    1     1     2    1
    2     1     3    2
    3     1     4    1
    4     4     5    1
    5     4     6    1
    6     4     7    1
    7     7     8    1
    8     7     9    1
    9     7    10    1
   10    10    11    1
   11    10    12    1
   12    10    13    1
   13    13    14    1
   14    13    15    1
   15    13    16    1
@<TRIPOS>SUBSTRUCTURE
       1 MOL1            1 RESIDUE      1      MOL     
@<SCITEGIC>MOL_PROPERTY
VConf Rank
SciTegic.value.IntegerValue
175

@<SCITEGIC>MOL_PROPERTY
Conf_Id
SciTegic.value.IntegerValue
19

@<SCITEGIC>MOL_PROPERTY
Delta U+W
SciTegic.value.DoubleValue
0.048

@<SCITEGIC>MOL_PROPERTY
U+W
SciTegic.value.DoubleValue
-56.856

@<SCITEGIC>MOL_PROPERTY
Grad RMS
SciTegic.value.DoubleValue
0.000000

@<SCITEGIC>MOL_PROPERTY
U
SciTegic.value.DoubleValue
8.276

@<SCITEGIC>MOL_PROPERTY
W
SciTegic.value.DoubleValue
-65.132

@<SCITEGIC>MOL_PROPERTY
W(PB)
SciTegic.value.DoubleValue
-67.031

@<SCITEGIC>MOL_PROPERTY
W(SA)
SciTegic.value.DoubleValue
1.899

@<SCITEGIC>MOL_PROPERTY
Valence
SciTegic.value.DoubleValue
6.513

@<SCITEGIC>MOL_PROPERTY
Coulomb
SciTegic.value.DoubleValue
1.428

@<SCITEGIC>MOL_PROPERTY
VdW
SciTegic.value.DoubleValue
0.335

@<SCITEGIC>MOL_PROPERTY
VdW6
SciTegic.value.DoubleValue
-5.021

@<SCITEGIC>MOL_PROPERTY
VdW12
SciTegic.value.DoubleValue
5.356

@<SCITEGIC>MOL_PROPERTY
Bond
SciTegic.value.DoubleValue
0.092

@<SCITEGIC>MOL_PROPERTY
Angle
SciTegic.value.DoubleValue
2.417

@<SCITEGIC>MOL_PROPERTY
Pdih
SciTegic.value.DoubleValue
4.003

@<SCITEGIC>MOL_PROPERTY
Idih
SciTegic.value.DoubleValue
0.001

@<SCITEGIC>MOL_PROPERTY
Tether
SciTegic.value.DoubleValue
0.000

@<TRIPOS>MOLECULE
guest-s18_confgen4.mol2 : confsearch ligand conformer 176
          16          15           1
SMALL
USER_CHARGES
 
@<TRIPOS>ATOM
       1    C1      18.056854   20.293962   23.117596 C.2        1 MOL1         0.6075
       2    O1      18.131809   20.330613   24.329776 O.co2      1 MOL1        -0.6830
       3    O2      17.055386   19.958397   22.516996 O.co2      1 MOL1        -0.6830
       4    C2      19.280137   20.714924   22.307740 C.3        1 MOL1        -0.2050
       5    H1      19.664105   21.641457   22.750843 H          1 MOL1         0.0710
       6    H2      18.958163   20.960648   21.288407 H          1 MOL1         0.0710
       7    C3      20.409609   19.652875   22.270467 C.3        1 MOL1        -0.1947
       8    H3      21.295023   20.090927   21.790143 H          1 MOL1         0.0712
       9    H4      20.701863   19.395863   23.298161 H          1 MOL1         0.0712
      10    C4      19.997819   18.374472   21.508689 C.3        1 MOL1        -0.1921
      11    H5      19.694083   18.634536   20.485220 H          1 MOL1         0.0712
      12    H6      19.124381   17.915813   21.992901 H          1 MOL1         0.0712
      13    C5      21.148754   17.350222   21.457604 C.3        1 MOL1        -0.2936
      14    H7      22.025774   17.769526   20.947277 H          1 MOL1         0.0724
      15    H8      20.839481   16.448010   20.914021 H          1 MOL1         0.0724
      16    H9      21.451556   17.049430   22.469180 H          1 MOL1         0.0724
@<TRIPOS>BOND
    1     1     2    1
    2     1     3    2
    3     1     4    1
    4     4     5    1
    5     4     6    1
    6     4     7    1
    7     7     8    1
    8     7     9    1
    9     7    10    1
   10    10    11    1
   11    10    12    1
   12    10    13    1
   13    13    14    1
   14    13    15    1
   15    13    16    1
@<TRIPOS>SUBSTRUCTURE
       1 MOL1            1 RESIDUE      1      MOL     
@<SCITEGIC>MOL_PROPERTY
VConf Rank
SciTegic.value.IntegerValue
176

@<SCITEGIC>MOL_PROPERTY
Conf_Id
SciTegic.value.IntegerValue
20

@<SCITEGIC>MOL_PROPERTY
Delta U+W
SciTegic.value.DoubleValue
-0.010

@<SCITEGIC>MOL_PROPERTY
U+W
SciTegic.value.DoubleValue
-56.914

@<SCITEGIC>MOL_PROPERTY
Grad RMS
SciTegic.value.DoubleValue
0.000000

@<SCITEGIC>MOL_PROPERTY
U
SciTegic.value.DoubleValue
8.277

@<SCITEGIC>MOL_PROPERTY
W
SciTegic.value.DoubleValue
-65.191

@<SCITEGIC>MOL_PROPERTY
W(PB)
SciTegic.value.DoubleValue
-67.081

@<SCITEGIC>MOL_PROPERTY
W(SA)
SciTegic.value.DoubleValue
1.890

@<SCITEGIC>MOL_PROPERTY
Valence
SciTegic.value.DoubleValue
6.513

@<SCITEGIC>MOL_PROPERTY
Coulomb
SciTegic.value.DoubleValue
1.429

@<SCITEGIC>MOL_PROPERTY
VdW
SciTegic.value.DoubleValue
0.335

@<SCITEGIC>MOL_PROPERTY
VdW6
SciTegic.value.DoubleValue
-5.021

@<SCITEGIC>MOL_PROPERTY
VdW12
SciTegic.value.DoubleValue
5.356

@<SCITEGIC>MOL_PROPERTY
Bond
SciTegic.value.DoubleValue
0.092

@<SCITEGIC>MOL_PROPERTY
Angle
SciTegic.value.DoubleValue
2.417

@<SCITEGIC>MOL_PROPERTY
Pdih
SciTegic.value.DoubleValue
4.002

@<SCITEGIC>MOL_PROPERTY
Idih
SciTegic.value.DoubleValue
0.001

@<SCITEGIC>MOL_PROPERTY
Tether
SciTegic.value.DoubleValue
0.000

@<TRIPOS>MOLECULE
guest-s18_confgen4.mol2 : confsearch ligand conformer 177
          16          15           1
SMALL
USER_CHARGES
 
@<TRIPOS>ATOM
       1    C1      21.958195   18.967455   22.610230 C.2        1 MOL1         0.6075
       2    O1      22.403761   18.964500   23.740827 O.co2      1 MOL1        -0.6830
       3    O2      22.435300   19.620561   21.703520 O.co2      1 MOL1        -0.6830
       4    C2      20.756358   18.076400   22.307983 C.3        1 MOL1        -0.2050
       5    H1      20.990772   17.074433   22.686129 H          1 MOL1         0.0710
       6    H2      20.653327   17.981231   21.220981 H          1 MOL1         0.0710
       7    C3      19.426088   18.565736   22.943286 C.3        1 MOL1        -0.1947
       8    H3      18.638187   17.827230   22.742809 H          1 MOL1         0.0712
       9    H4      19.547400   18.598021   24.034889 H          1 MOL1         0.0712
      10    C4      18.957743   19.955872   22.451184 C.3        1 MOL1        -0.1921
      11    H5      19.723520   20.710812   22.677570 H          1 MOL1         0.0712
      12    H6      18.061169   20.246039   23.016061 H          1 MOL1         0.0712
      13    C5      18.628690   19.988779   20.943509 C.3        1 MOL1        -0.2936
      14    H7      19.528062   19.825126   20.336191 H          1 MOL1         0.0724
      15    H8      18.212387   20.964934   20.663020 H          1 MOL1         0.0724
      16    H9      17.890642   19.218619   20.684272 H          1 MOL1         0.0724
@<TRIPOS>BOND
    1     1     2    1
    2     1     3    2
    3     1     4    1
    4     4     5    1
    5     4     6    1
    6     4     7    1
    7     7     8    1
    8     7     9    1
    9     7    10    1
   10    10    11    1
   11    10    12    1
   12    10    13    1
   13    13    14    1
   14    13    15    1
   15    13    16    1
@<TRIPOS>SUBSTRUCTURE
       1 MOL1            1 RESIDUE      1      MOL     
@<SCITEGIC>MOL_PROPERTY
VConf Rank
SciTegic.value.IntegerValue
177

@<SCITEGIC>MOL_PROPERTY
Conf_Id
SciTegic.value.IntegerValue
37

@<SCITEGIC>MOL_PROPERTY
Delta U+W
SciTegic.value.DoubleValue
1.063

@<SCITEGIC>MOL_PROPERTY
U+W
SciTegic.value.DoubleValue
-55.841

@<SCITEGIC>MOL_PROPERTY
Grad RMS
SciTegic.value.DoubleValue
0.000000

@<SCITEGIC>MOL_PROPERTY
U
SciTegic.value.DoubleValue
9.719

@<SCITEGIC>MOL_PROPERTY
W
SciTegic.value.DoubleValue
-65.560

@<SCITEGIC>MOL_PROPERTY
W(PB)
SciTegic.value.DoubleValue
-67.414

@<SCITEGIC>MOL_PROPERTY
W(SA)
SciTegic.value.DoubleValue
1.854

@<SCITEGIC>MOL_PROPERTY
Valence
SciTegic.value.DoubleValue
7.002

@<SCITEGIC>MOL_PROPERTY
Coulomb
SciTegic.value.DoubleValue
2.402

@<SCITEGIC>MOL_PROPERTY
VdW
SciTegic.value.DoubleValue
0.314

@<SCITEGIC>MOL_PROPERTY
VdW6
SciTegic.value.DoubleValue
-5.861

@<SCITEGIC>MOL_PROPERTY
VdW12
SciTegic.value.DoubleValue
6.175

@<SCITEGIC>MOL_PROPERTY
Bond
SciTegic.value.DoubleValue
0.134

@<SCITEGIC>MOL_PROPERTY
Angle
SciTegic.value.DoubleValue
2.733

@<SCITEGIC>MOL_PROPERTY
Pdih
SciTegic.value.DoubleValue
4.133

@<SCITEGIC>MOL_PROPERTY
Idih
SciTegic.value.DoubleValue
0.002

@<SCITEGIC>MOL_PROPERTY
Tether
SciTegic.value.DoubleValue
0.000

@<TRIPOS>MOLECULE
guest-s18_confgen4.mol2 : confsearch ligand conformer 178
          16          15           1
SMALL
USER_CHARGES
 
@<TRIPOS>ATOM
       1    C1      19.595185   17.269223   23.089349 C.2        1 MOL1         0.6075
       2    O1      18.446065   16.955841   23.330388 O.co2      1 MOL1        -0.6830
       3    O2      20.397187   16.523057   22.563678 O.co2      1 MOL1        -0.6830
       4    C2      20.062699   18.662582   23.501327 C.3        1 MOL1        -0.2050
       5    H1      21.157935   18.689805   23.470278 H          1 MOL1         0.0710
       6    H2      19.778635   18.804173   24.550680 H          1 MOL1         0.0710
       7    C3      19.462012   19.813105   22.648009 C.3        1 MOL1        -0.1947
       8    H3      18.367726   19.789710   22.744679 H          1 MOL1         0.0712
       9    H4      19.787174   20.776727   23.062825 H          1 MOL1         0.0712
      10    C4      19.832462   19.754225   21.146912 C.3        1 MOL1        -0.1921
      11    H5      19.296154   20.555304   20.619868 H          1 MOL1         0.0712
      12    H6      19.481158   18.808476   20.711318 H          1 MOL1         0.0712
      13    C5      21.345568   19.913087   20.886692 C.3        1 MOL1        -0.2936
      14    H7      21.729369   20.834705   21.343181 H          1 MOL1         0.0724
      15    H8      21.546484   19.959959   19.808594 H          1 MOL1         0.0724
      16    H9      21.910484   19.064170   21.292522 H          1 MOL1         0.0724
@<TRIPOS>BOND
    1     1     2    1
    2     1     3    2
    3     1     4    1
    4     4     5    1
    5     4     6    1
    6     4     7    1
    7     7     8    1
    8     7     9    1
    9     7    10    1
   10    10    11    1
   11    10    12    1
   12    10    13    1
   13    13    14    1
   14    13    15    1
   15    13    16    1
@<TRIPOS>SUBSTRUCTURE
       1 MOL1            1 RESIDUE      1      MOL     
@<SCITEGIC>MOL_PROPERTY
VConf Rank
SciTegic.value.IntegerValue
178

@<SCITEGIC>MOL_PROPERTY
Conf_Id
SciTegic.value.IntegerValue
39

@<SCITEGIC>MOL_PROPERTY
Delta U+W
SciTegic.value.DoubleValue
1.129

@<SCITEGIC>MOL_PROPERTY
U+W
SciTegic.value.DoubleValue
-55.775

@<SCITEGIC>MOL_PROPERTY
Grad RMS
SciTegic.value.DoubleValue
0.000000

@<SCITEGIC>MOL_PROPERTY
U
SciTegic.value.DoubleValue
9.718

@<SCITEGIC>MOL_PROPERTY
W
SciTegic.value.DoubleValue
-65.493

@<SCITEGIC>MOL_PROPERTY
W(PB)
SciTegic.value.DoubleValue
-67.361

@<SCITEGIC>MOL_PROPERTY
W(SA)
SciTegic.value.DoubleValue
1.869

@<SCITEGIC>MOL_PROPERTY
Valence
SciTegic.value.DoubleValue
7.002

@<SCITEGIC>MOL_PROPERTY
Coulomb
SciTegic.value.DoubleValue
2.402

@<SCITEGIC>MOL_PROPERTY
VdW
SciTegic.value.DoubleValue
0.314

@<SCITEGIC>MOL_PROPERTY
VdW6
SciTegic.value.DoubleValue
-5.861

@<SCITEGIC>MOL_PROPERTY
VdW12
SciTegic.value.DoubleValue
6.175

@<SCITEGIC>MOL_PROPERTY
Bond
SciTegic.value.DoubleValue
0.134

@<SCITEGIC>MOL_PROPERTY
Angle
SciTegic.value.DoubleValue
2.734

@<SCITEGIC>MOL_PROPERTY
Pdih
SciTegic.value.DoubleValue
4.133

@<SCITEGIC>MOL_PROPERTY
Idih
SciTegic.value.DoubleValue
0.002

@<SCITEGIC>MOL_PROPERTY
Tether
SciTegic.value.DoubleValue
0.000

@<TRIPOS>MOLECULE
guest-s18_confgen4.mol2 : confsearch ligand conformer 179
          16          15           1
SMALL
USER_CHARGES
 
@<TRIPOS>ATOM
       1    C1      21.551504   20.190689   22.138280 C.2        1 MOL1         0.6075
       2    O1      22.420914   19.613516   21.515530 O.co2      1 MOL1        -0.6830
       3    O2      21.743074   20.730349   23.210300 O.co2      1 MOL1        -0.6830
       4    C2      20.171007   20.320863   21.497235 C.3        1 MOL1        -0.2050
       5    H1      20.191951   19.851084   20.506353 H          1 MOL1         0.0710
       6    H2      20.006805   21.392150   21.332519 H          1 MOL1         0.0710
       7    C3      18.992301   19.752895   22.336906 C.3        1 MOL1        -0.1947
       8    H3      19.093988   20.066502   23.385167 H          1 MOL1         0.0712
       9    H4      18.063858   20.212689   21.972169 H          1 MOL1         0.0712
      10    C4      18.821500   18.216714   22.256046 C.3        1 MOL1        -0.1921
      11    H5      18.722156   17.907101   21.206521 H          1 MOL1         0.0712
      12    H6      17.877152   17.945922   22.748156 H          1 MOL1         0.0712
      13    C5      19.965186   17.425826   22.924451 C.3        1 MOL1        -0.2936
      14    H7      20.903749   17.532786   22.367084 H          1 MOL1         0.0724
      15    H8      19.722635   16.355920   22.959655 H          1 MOL1         0.0724
      16    H9      20.133507   17.769811   23.953369 H          1 MOL1         0.0724
@<TRIPOS>BOND
    1     1     2    1
    2     1     3    2
    3     1     4    1
    4     4     5    1
    5     4     6    1
    6     4     7    1
    7     7     8    1
    8     7     9    1
    9     7    10    1
   10    10    11    1
   11    10    12    1
   12    10    13    1
   13    13    14    1
   14    13    15    1
   15    13    16    1
@<TRIPOS>SUBSTRUCTURE
       1 MOL1            1 RESIDUE      1      MOL     
@<SCITEGIC>MOL_PROPERTY
VConf Rank
SciTegic.value.IntegerValue
179

@<SCITEGIC>MOL_PROPERTY
Conf_Id
SciTegic.value.IntegerValue
47

@<SCITEGIC>MOL_PROPERTY
Delta U+W
SciTegic.value.DoubleValue
2.301

@<SCITEGIC>MOL_PROPERTY
U+W
SciTegic.value.DoubleValue
-54.603

@<SCITEGIC>MOL_PROPERTY
Grad RMS
SciTegic.value.DoubleValue
0.000000

@<SCITEGIC>MOL_PROPERTY
U
SciTegic.value.DoubleValue
11.258

@<SCITEGIC>MOL_PROPERTY
W
SciTegic.value.DoubleValue
-65.861

@<SCITEGIC>MOL_PROPERTY
W(PB)
SciTegic.value.DoubleValue
-67.702

@<SCITEGIC>MOL_PROPERTY
W(SA)
SciTegic.value.DoubleValue
1.841

@<SCITEGIC>MOL_PROPERTY
Valence
SciTegic.value.DoubleValue
8.169

@<SCITEGIC>MOL_PROPERTY
Coulomb
SciTegic.value.DoubleValue
2.735

@<SCITEGIC>MOL_PROPERTY
VdW
SciTegic.value.DoubleValue
0.355

@<SCITEGIC>MOL_PROPERTY
VdW6
SciTegic.value.DoubleValue
-6.245

@<SCITEGIC>MOL_PROPERTY
VdW12
SciTegic.value.DoubleValue
6.600

@<SCITEGIC>MOL_PROPERTY
Bond
SciTegic.value.DoubleValue
0.149

@<SCITEGIC>MOL_PROPERTY
Angle
SciTegic.value.DoubleValue
3.168

@<SCITEGIC>MOL_PROPERTY
Pdih
SciTegic.value.DoubleValue
4.840

@<SCITEGIC>MOL_PROPERTY
Idih
SciTegic.value.DoubleValue
0.011

@<SCITEGIC>MOL_PROPERTY
Tether
SciTegic.value.DoubleValue
0.000

@<TRIPOS>MOLECULE
guest-s18_confgen4.mol2 : confsearch ligand conformer 180
          16          15           1
SMALL
USER_CHARGES
 
@<TRIPOS>ATOM
       1    C1      18.733802   19.467655   23.862493 C.2        1 MOL1         0.6075
       2    O1      18.524092   20.662770   23.932344 O.co2      1 MOL1        -0.6830
       3    O2      19.082846   18.793568   24.811489 O.co2      1 MOL1        -0.6830
       4    C2      18.458327   18.759349   22.537320 C.3        1 MOL1        -0.2050
       5    H1      17.389911   18.893458   22.331768 H          1 MOL1         0.0710
       6    H2      18.619474   17.682361   22.668112 H          1 MOL1         0.0710
       7    C3      19.275462   19.281772   21.322268 C.3        1 MOL1        -0.1947
       8    H3      18.753345   18.975463   20.405742 H          1 MOL1         0.0712
       9    H4      19.277309   20.380639   21.316817 H          1 MOL1         0.0712
      10    C4      20.725788   18.747583   21.240050 C.3        1 MOL1        -0.1921
      11    H5      21.151801   19.046952   20.272484 H          1 MOL1         0.0712
      12    H6      20.719692   17.648885   21.247615 H          1 MOL1         0.0712
      13    C5      21.647277   19.269222   22.362117 C.3        1 MOL1        -0.2936
      14    H7      22.687125   18.972402   22.174015 H          1 MOL1         0.0724
      15    H8      21.359197   18.860084   23.338138 H          1 MOL1         0.0724
      16    H9      21.612708   20.364853   22.423176 H          1 MOL1         0.0724
@<TRIPOS>BOND
    1     1     2    1
    2     1     3    2
    3     1     4    1
    4     4     5    1
    5     4     6    1
    6     4     7    1
    7     7     8    1
    8     7     9    1
    9     7    10    1
   10    10    11    1
   11    10    12    1
   12    10    13    1
   13    13    14    1
   14    13    15    1
   15    13    16    1
@<TRIPOS>SUBSTRUCTURE
       1 MOL1            1 RESIDUE      1      MOL     
@<SCITEGIC>MOL_PROPERTY
VConf Rank
SciTegic.value.IntegerValue
180

@<SCITEGIC>MOL_PROPERTY
Conf_Id
SciTegic.value.IntegerValue
45

@<SCITEGIC>MOL_PROPERTY
Delta U+W
SciTegic.value.DoubleValue
2.303

@<SCITEGIC>MOL_PROPERTY
U+W
SciTegic.value.DoubleValue
-54.601

@<SCITEGIC>MOL_PROPERTY
Grad RMS
SciTegic.value.DoubleValue
0.000000

@<SCITEGIC>MOL_PROPERTY
U
SciTegic.value.DoubleValue
11.258

@<SCITEGIC>MOL_PROPERTY
W
SciTegic.value.DoubleValue
-65.860

@<SCITEGIC>MOL_PROPERTY
W(PB)
SciTegic.value.DoubleValue
-67.709

@<SCITEGIC>MOL_PROPERTY
W(SA)
SciTegic.value.DoubleValue
1.849

@<SCITEGIC>MOL_PROPERTY
Valence
SciTegic.value.DoubleValue
8.169

@<SCITEGIC>MOL_PROPERTY
Coulomb
SciTegic.value.DoubleValue
2.735

@<SCITEGIC>MOL_PROPERTY
VdW
SciTegic.value.DoubleValue
0.355

@<SCITEGIC>MOL_PROPERTY
VdW6
SciTegic.value.DoubleValue
-6.245

@<SCITEGIC>MOL_PROPERTY
VdW12
SciTegic.value.DoubleValue
6.600

@<SCITEGIC>MOL_PROPERTY
Bond
SciTegic.value.DoubleValue
0.149

@<SCITEGIC>MOL_PROPERTY
Angle
SciTegic.value.DoubleValue
3.168

@<SCITEGIC>MOL_PROPERTY
Pdih
SciTegic.value.DoubleValue
4.840

@<SCITEGIC>MOL_PROPERTY
Idih
SciTegic.value.DoubleValue
0.011

@<SCITEGIC>MOL_PROPERTY
Tether
SciTegic.value.DoubleValue
0.000

@<TRIPOS>MOLECULE
guest-s18_confgen4.mol2 : confsearch ligand conformer 181
          16          15           1
SMALL
USER_CHARGES
 
@<TRIPOS>ATOM
       1    C1      17.880012   20.457532   20.769884 C.2        1 MOL1         0.6075
       2    O1      17.060570   20.050147   21.570091 O.co2      1 MOL1        -0.6830
       3    O2      17.596518   21.200673   19.851905 O.co2      1 MOL1        -0.6830
       4    C2      19.343892   20.032551   20.897711 C.3        1 MOL1        -0.2050
       5    H1      19.943363   20.946286   20.986499 H          1 MOL1         0.0710
       6    H2      19.628891   19.552479   19.954064 H          1 MOL1         0.0710
       7    C3      19.658184   19.082821   22.084126 C.3        1 MOL1        -0.1947
       8    H3      19.365551   19.566937   23.026181 H          1 MOL1         0.0712
       9    H4      19.050768   18.171694   21.992670 H          1 MOL1         0.0712
      10    C4      21.153778   18.706408   22.136777 C.3        1 MOL1        -0.1921
      11    H5      21.762292   19.616637   22.230014 H          1 MOL1         0.0712
      12    H6      21.447333   18.220557   21.195886 H          1 MOL1         0.0712
      13    C5      21.459611   17.763180   23.317001 C.3        1 MOL1        -0.2936
      14    H7      21.204476   18.236464   24.274277 H          1 MOL1         0.0724
      15    H8      22.526493   17.505534   23.339894 H          1 MOL1         0.0724
      16    H9      20.887196   16.830081   23.232525 H          1 MOL1         0.0724
@<TRIPOS>BOND
    1     1     2    1
    2     1     3    2
    3     1     4    1
    4     4     5    1
    5     4     6    1
    6     4     7    1
    7     7     8    1
    8     7     9    1
    9     7    10    1
   10    10    11    1
   11    10    12    1
   12    10    13    1
   13    13    14    1
   14    13    15    1
   15    13    16    1
@<TRIPOS>SUBSTRUCTURE
       1 MOL1            1 RESIDUE      1      MOL     
@<SCITEGIC>MOL_PROPERTY
VConf Rank
SciTegic.value.IntegerValue
181

@<SCITEGIC>MOL_PROPERTY
Conf_Id
SciTegic.value.IntegerValue
0

@<SCITEGIC>MOL_PROPERTY
Delta U+W
SciTegic.value.DoubleValue
0.000

@<SCITEGIC>MOL_PROPERTY
U+W
SciTegic.value.DoubleValue
-56.904

@<SCITEGIC>MOL_PROPERTY
Grad RMS
SciTegic.value.DoubleValue
0.000000

@<SCITEGIC>MOL_PROPERTY
U
SciTegic.value.DoubleValue
7.329

@<SCITEGIC>MOL_PROPERTY
W
SciTegic.value.DoubleValue
-64.233

@<SCITEGIC>MOL_PROPERTY
W(PB)
SciTegic.value.DoubleValue
-66.148

@<SCITEGIC>MOL_PROPERTY
W(SA)
SciTegic.value.DoubleValue
1.915

@<SCITEGIC>MOL_PROPERTY
Valence
SciTegic.value.DoubleValue
6.755

@<SCITEGIC>MOL_PROPERTY
Coulomb
SciTegic.value.DoubleValue
-0.421

@<SCITEGIC>MOL_PROPERTY
VdW
SciTegic.value.DoubleValue
0.995

@<SCITEGIC>MOL_PROPERTY
VdW6
SciTegic.value.DoubleValue
-4.495

@<SCITEGIC>MOL_PROPERTY
VdW12
SciTegic.value.DoubleValue
5.490

@<SCITEGIC>MOL_PROPERTY
Bond
SciTegic.value.DoubleValue
0.106

@<SCITEGIC>MOL_PROPERTY
Angle
SciTegic.value.DoubleValue
2.715

@<SCITEGIC>MOL_PROPERTY
Pdih
SciTegic.value.DoubleValue
3.934

@<SCITEGIC>MOL_PROPERTY
Idih
SciTegic.value.DoubleValue
0.000

@<SCITEGIC>MOL_PROPERTY
Tether
SciTegic.value.DoubleValue
0.000

@<TRIPOS>MOLECULE
guest-s18_confgen4.mol2 : confsearch ligand conformer 182
          16          15           1
SMALL
USER_CHARGES
 
@<TRIPOS>ATOM
       1    C1      17.786175   20.262319   22.991184 C.2        1 MOL1         0.6075
       2    O1      17.673103   21.453395   22.780482 O.co2      1 MOL1        -0.6830
       3    O2      16.841150   19.508033   23.108760 O.co2      1 MOL1        -0.6830
       4    C2      19.191020   19.679167   23.095720 C.3        1 MOL1        -0.2050
       5    H1      19.160308   18.839934   23.801124 H          1 MOL1         0.0710
       6    H2      19.846222   20.443795   23.530353 H          1 MOL1         0.0710
       7    C3      19.751553   19.209024   21.730865 C.3        1 MOL1        -0.1947
       8    H3      19.078487   18.453117   21.302920 H          1 MOL1         0.0712
       9    H4      19.764371   20.057036   21.032107 H          1 MOL1         0.0712
      10    C4      21.172883   18.623812   21.864688 C.3        1 MOL1        -0.1921
      11    H5      21.160354   17.775321   22.562860 H          1 MOL1         0.0712
      12    H6      21.846412   19.379648   22.292016 H          1 MOL1         0.0712
      13    C5      21.724290   18.158075   20.502652 C.3        1 MOL1        -0.2936
      14    H7      21.777240   18.994606   19.793510 H          1 MOL1         0.0724
      15    H8      21.086100   17.378446   20.066344 H          1 MOL1         0.0724
      16    H9      22.735074   17.744864   20.615439 H          1 MOL1         0.0724
@<TRIPOS>BOND
    1     1     2    1
    2     1     3    2
    3     1     4    1
    4     4     5    1
    5     4     6    1
    6     4     7    1
    7     7     8    1
    8     7     9    1
    9     7    10    1
   10    10    11    1
   11    10    12    1
   12    10    13    1
   13    13    14    1
   14    13    15    1
   15    13    16    1
@<TRIPOS>SUBSTRUCTURE
       1 MOL1            1 RESIDUE      1      MOL     
@<SCITEGIC>MOL_PROPERTY
VConf Rank
SciTegic.value.IntegerValue
182

@<SCITEGIC>MOL_PROPERTY
Conf_Id
SciTegic.value.IntegerValue
22

@<SCITEGIC>MOL_PROPERTY
Delta U+W
SciTegic.value.DoubleValue
-1.185

@<SCITEGIC>MOL_PROPERTY
U+W
SciTegic.value.DoubleValue
-58.089

@<SCITEGIC>MOL_PROPERTY
Grad RMS
SciTegic.value.DoubleValue
0.000000

@<SCITEGIC>MOL_PROPERTY
U
SciTegic.value.DoubleValue
6.298

@<SCITEGIC>MOL_PROPERTY
W
SciTegic.value.DoubleValue
-64.387

@<SCITEGIC>MOL_PROPERTY
W(PB)
SciTegic.value.DoubleValue
-66.329

@<SCITEGIC>MOL_PROPERTY
W(SA)
SciTegic.value.DoubleValue
1.942

@<SCITEGIC>MOL_PROPERTY
Valence
SciTegic.value.DoubleValue
6.246

@<SCITEGIC>MOL_PROPERTY
Coulomb
SciTegic.value.DoubleValue
-0.408

@<SCITEGIC>MOL_PROPERTY
VdW
SciTegic.value.DoubleValue
0.460

@<SCITEGIC>MOL_PROPERTY
VdW6
SciTegic.value.DoubleValue
-4.207

@<SCITEGIC>MOL_PROPERTY
VdW12
SciTegic.value.DoubleValue
4.667

@<SCITEGIC>MOL_PROPERTY
Bond
SciTegic.value.DoubleValue
0.072

@<SCITEGIC>MOL_PROPERTY
Angle
SciTegic.value.DoubleValue
2.246

@<SCITEGIC>MOL_PROPERTY
Pdih
SciTegic.value.DoubleValue
3.928

@<SCITEGIC>MOL_PROPERTY
Idih
SciTegic.value.DoubleValue
0.001

@<SCITEGIC>MOL_PROPERTY
Tether
SciTegic.value.DoubleValue
0.000

@<TRIPOS>MOLECULE
guest-s18_confgen4.mol2 : confsearch ligand conformer 183
          16          15           1
SMALL
USER_CHARGES
 
@<TRIPOS>ATOM
       1    C1      18.477856   21.260562   22.116721 C.2        1 MOL1         0.6075
       2    O1      18.111399   21.734920   23.173456 O.co2      1 MOL1        -0.6830
       3    O2      17.922006   21.471540   21.057252 O.co2      1 MOL1        -0.6830
       4    C2      19.688909   20.334351   22.124143 C.3        1 MOL1        -0.2050
       5    H1      20.368803   20.669176   22.916734 H          1 MOL1         0.0710
       6    H2      20.213456   20.462094   21.170387 H          1 MOL1         0.0710
       7    C3      19.306869   18.847068   22.341006 C.3        1 MOL1        -0.1947
       8    H3      18.708681   18.766348   23.259201 H          1 MOL1         0.0712
       9    H4      18.660443   18.510978   21.518519 H          1 MOL1         0.0712
      10    C4      20.529812   17.908744   22.460862 C.3        1 MOL1        -0.1921
      11    H5      20.177578   16.900951   22.720852 H          1 MOL1         0.0712
      12    H6      21.170340   18.237730   23.290845 H          1 MOL1         0.0712
      13    C5      21.362663   17.825655   21.163792 C.3        1 MOL1        -0.2936
      14    H7      21.830335   18.789066   20.925245 H          1 MOL1         0.0724
      15    H8      20.736415   17.526167   20.313280 H          1 MOL1         0.0724
      16    H9      22.165151   17.084221   21.270074 H          1 MOL1         0.0724
@<TRIPOS>BOND
    1     1     2    1
    2     1     3    2
    3     1     4    1
    4     4     5    1
    5     4     6    1
    6     4     7    1
    7     7     8    1
    8     7     9    1
    9     7    10    1
   10    10    11    1
   11    10    12    1
   12    10    13    1
   13    13    14    1
   14    13    15    1
   15    13    16    1
@<TRIPOS>SUBSTRUCTURE
       1 MOL1            1 RESIDUE      1      MOL     
@<SCITEGIC>MOL_PROPERTY
VConf Rank
SciTegic.value.IntegerValue
183

@<SCITEGIC>MOL_PROPERTY
Conf_Id
SciTegic.value.IntegerValue
36

@<SCITEGIC>MOL_PROPERTY
Delta U+W
SciTegic.value.DoubleValue
-0.427

@<SCITEGIC>MOL_PROPERTY
U+W
SciTegic.value.DoubleValue
-57.331

@<SCITEGIC>MOL_PROPERTY
Grad RMS
SciTegic.value.DoubleValue
0.000000

@<SCITEGIC>MOL_PROPERTY
U
SciTegic.value.DoubleValue
7.263

@<SCITEGIC>MOL_PROPERTY
W
SciTegic.value.DoubleValue
-64.594

@<SCITEGIC>MOL_PROPERTY
W(PB)
SciTegic.value.DoubleValue
-66.513

@<SCITEGIC>MOL_PROPERTY
W(SA)
SciTegic.value.DoubleValue
1.920

@<SCITEGIC>MOL_PROPERTY
Valence
SciTegic.value.DoubleValue
6.734

@<SCITEGIC>MOL_PROPERTY
Coulomb
SciTegic.value.DoubleValue
-0.068

@<SCITEGIC>MOL_PROPERTY
VdW
SciTegic.value.DoubleValue
0.598

@<SCITEGIC>MOL_PROPERTY
VdW6
SciTegic.value.DoubleValue
-4.819

@<SCITEGIC>MOL_PROPERTY
VdW12
SciTegic.value.DoubleValue
5.417

@<SCITEGIC>MOL_PROPERTY
Bond
SciTegic.value.DoubleValue
0.107

@<SCITEGIC>MOL_PROPERTY
Angle
SciTegic.value.DoubleValue
2.469

@<SCITEGIC>MOL_PROPERTY
Pdih
SciTegic.value.DoubleValue
4.157

@<SCITEGIC>MOL_PROPERTY
Idih
SciTegic.value.DoubleValue
0.001

@<SCITEGIC>MOL_PROPERTY
Tether
SciTegic.value.DoubleValue
0.000

@<TRIPOS>MOLECULE
guest-s18_confgen4.mol2 : confsearch ligand conformer 184
          16          15           1
SMALL
USER_CHARGES
 
@<TRIPOS>ATOM
       1    C1      20.638062   21.459647   21.055624 C.2        1 MOL1         0.6075
       2    O1      21.825282   21.502672   20.801429 O.co2      1 MOL1        -0.6830
       3    O2      19.947647   22.447685   21.207625 O.co2      1 MOL1        -0.6830
       4    C2      19.982950   20.091854   21.212283 C.3        1 MOL1        -0.2050
       5    H1      20.490656   19.398074   20.532562 H          1 MOL1         0.0710
       6    H2      18.941972   20.172476   20.876972 H          1 MOL1         0.0710
       7    C3      20.035464   19.563536   22.669375 C.3        1 MOL1        -0.1947
       8    H3      21.083103   19.446391   22.979275 H          1 MOL1         0.0712
       9    H4      19.597180   20.319787   23.335274 H          1 MOL1         0.0712
      10    C4      19.279907   18.229302   22.867772 C.3        1 MOL1        -0.1921
      11    H5      18.229360   18.349496   22.568966 H          1 MOL1         0.0712
      12    H6      19.272152   17.983683   23.938715 H          1 MOL1         0.0712
      13    C5      19.908941   17.052405   22.091782 C.3        1 MOL1        -0.2936
      14    H7      19.836265   17.202712   21.007389 H          1 MOL1         0.0724
      15    H8      19.392032   16.114369   22.332406 H          1 MOL1         0.0724
      16    H9      20.968315   16.931048   22.353030 H          1 MOL1         0.0724
@<TRIPOS>BOND
    1     1     2    1
    2     1     3    2
    3     1     4    1
    4     4     5    1
    5     4     6    1
    6     4     7    1
    7     7     8    1
    8     7     9    1
    9     7    10    1
   10    10    11    1
   11    10    12    1
   12    10    13    1
   13    13    14    1
   14    13    15    1
   15    13    16    1
@<TRIPOS>SUBSTRUCTURE
       1 MOL1            1 RESIDUE      1      MOL     
@<SCITEGIC>MOL_PROPERTY
VConf Rank
SciTegic.value.IntegerValue
184

@<SCITEGIC>MOL_PROPERTY
Conf_Id
SciTegic.value.IntegerValue
17

@<SCITEGIC>MOL_PROPERTY
Delta U+W
SciTegic.value.DoubleValue
-0.432

@<SCITEGIC>MOL_PROPERTY
U+W
SciTegic.value.DoubleValue
-57.336

@<SCITEGIC>MOL_PROPERTY
Grad RMS
SciTegic.value.DoubleValue
0.000000

@<SCITEGIC>MOL_PROPERTY
U
SciTegic.value.DoubleValue
7.263

@<SCITEGIC>MOL_PROPERTY
W
SciTegic.value.DoubleValue
-64.599

@<SCITEGIC>MOL_PROPERTY
W(PB)
SciTegic.value.DoubleValue
-66.503

@<SCITEGIC>MOL_PROPERTY
W(SA)
SciTegic.value.DoubleValue
1.904

@<SCITEGIC>MOL_PROPERTY
Valence
SciTegic.value.DoubleValue
6.734

@<SCITEGIC>MOL_PROPERTY
Coulomb
SciTegic.value.DoubleValue
-0.068

@<SCITEGIC>MOL_PROPERTY
VdW
SciTegic.value.DoubleValue
0.598

@<SCITEGIC>MOL_PROPERTY
VdW6
SciTegic.value.DoubleValue
-4.819

@<SCITEGIC>MOL_PROPERTY
VdW12
SciTegic.value.DoubleValue
5.417

@<SCITEGIC>MOL_PROPERTY
Bond
SciTegic.value.DoubleValue
0.107

@<SCITEGIC>MOL_PROPERTY
Angle
SciTegic.value.DoubleValue
2.469

@<SCITEGIC>MOL_PROPERTY
Pdih
SciTegic.value.DoubleValue
4.157

@<SCITEGIC>MOL_PROPERTY
Idih
SciTegic.value.DoubleValue
0.001

@<SCITEGIC>MOL_PROPERTY
Tether
SciTegic.value.DoubleValue
0.000

@<TRIPOS>MOLECULE
guest-s18_confgen4.mol2 : confsearch ligand conformer 185
          16          15           1
SMALL
USER_CHARGES
 
@<TRIPOS>ATOM
       1    C1      19.509025   18.663972   24.324686 C.2        1 MOL1         0.6075
       2    O1      20.201480   17.818711   24.856083 O.co2      1 MOL1        -0.6830
       3    O2      19.239888   19.731419   24.838870 O.co2      1 MOL1        -0.6830
       4    C2      18.927415   18.356373   22.947513 C.3        1 MOL1        -0.2050
       5    H1      18.078802   19.027577   22.767442 H          1 MOL1         0.0710
       6    H2      18.523871   17.337448   22.981800 H          1 MOL1         0.0710
       7    C3      19.952553   18.467732   21.789184 C.3        1 MOL1        -0.1947
       8    H3      20.809564   17.812027   21.997047 H          1 MOL1         0.0712
       9    H4      19.487967   18.097502   20.865253 H          1 MOL1         0.0712
      10    C4      20.443065   19.914925   21.567343 C.3        1 MOL1        -0.1921
      11    H5      20.928445   20.289061   22.479566 H          1 MOL1         0.0712
      12    H6      19.583989   20.571568   21.371933 H          1 MOL1         0.0712
      13    C5      21.434121   20.002715   20.389869 C.3        1 MOL1        -0.2936
      14    H7      22.318313   19.378351   20.573783 H          1 MOL1         0.0724
      15    H8      21.773331   21.036867   20.246397 H          1 MOL1         0.0724
      16    H9      20.965271   19.667035   19.455571 H          1 MOL1         0.0724
@<TRIPOS>BOND
    1     1     2    1
    2     1     3    2
    3     1     4    1
    4     4     5    1
    5     4     6    1
    6     4     7    1
    7     7     8    1
    8     7     9    1
    9     7    10    1
   10    10    11    1
   11    10    12    1
   12    10    13    1
   13    13    14    1
   14    13    15    1
   15    13    16    1
@<TRIPOS>SUBSTRUCTURE
       1 MOL1            1 RESIDUE      1      MOL     
@<SCITEGIC>MOL_PROPERTY
VConf Rank
SciTegic.value.IntegerValue
185

@<SCITEGIC>MOL_PROPERTY
Conf_Id
SciTegic.value.IntegerValue
19

@<SCITEGIC>MOL_PROPERTY
Delta U+W
SciTegic.value.DoubleValue
0.048

@<SCITEGIC>MOL_PROPERTY
U+W
SciTegic.value.DoubleValue
-56.856

@<SCITEGIC>MOL_PROPERTY
Grad RMS
SciTegic.value.DoubleValue
0.000000

@<SCITEGIC>MOL_PROPERTY
U
SciTegic.value.DoubleValue
8.276

@<SCITEGIC>MOL_PROPERTY
W
SciTegic.value.DoubleValue
-65.132

@<SCITEGIC>MOL_PROPERTY
W(PB)
SciTegic.value.DoubleValue
-67.031

@<SCITEGIC>MOL_PROPERTY
W(SA)
SciTegic.value.DoubleValue
1.899

@<SCITEGIC>MOL_PROPERTY
Valence
SciTegic.value.DoubleValue
6.513

@<SCITEGIC>MOL_PROPERTY
Coulomb
SciTegic.value.DoubleValue
1.428

@<SCITEGIC>MOL_PROPERTY
VdW
SciTegic.value.DoubleValue
0.335

@<SCITEGIC>MOL_PROPERTY
VdW6
SciTegic.value.DoubleValue
-5.021

@<SCITEGIC>MOL_PROPERTY
VdW12
SciTegic.value.DoubleValue
5.356

@<SCITEGIC>MOL_PROPERTY
Bond
SciTegic.value.DoubleValue
0.092

@<SCITEGIC>MOL_PROPERTY
Angle
SciTegic.value.DoubleValue
2.417

@<SCITEGIC>MOL_PROPERTY
Pdih
SciTegic.value.DoubleValue
4.003

@<SCITEGIC>MOL_PROPERTY
Idih
SciTegic.value.DoubleValue
0.001

@<SCITEGIC>MOL_PROPERTY
Tether
SciTegic.value.DoubleValue
0.000

@<TRIPOS>MOLECULE
guest-s18_confgen4.mol2 : confsearch ligand conformer 186
          16          15           1
SMALL
USER_CHARGES
 
@<TRIPOS>ATOM
       1    C1      18.881248   18.881972   24.225997 C.2        1 MOL1         0.6075
       2    O1      19.689780   18.687929   25.111979 O.co2      1 MOL1        -0.6830
       3    O2      17.889731   18.199378   24.061007 O.co2      1 MOL1        -0.6830
       4    C2      19.113345   20.061305   23.285357 C.3        1 MOL1        -0.2050
       5    H1      19.385566   20.925247   23.903205 H          1 MOL1         0.0710
       6    H2      18.164831   20.309476   22.793607 H          1 MOL1         0.0710
       7    C3      20.217611   19.815901   22.224501 C.3        1 MOL1        -0.1947
       8    H3      20.411988   20.754839   21.688616 H          1 MOL1         0.0712
       9    H4      21.153657   19.540682   22.730164 H          1 MOL1         0.0712
      10    C4      19.831048   18.720366   21.207366 C.3        1 MOL1        -0.1921
      11    H5      18.888562   18.990945   20.711499 H          1 MOL1         0.0712
      12    H6      19.653928   17.770294   21.730544 H          1 MOL1         0.0712
      13    C5      20.930396   18.520291   20.145407 C.3        1 MOL1        -0.2936
      14    H7      21.105521   19.445998   19.581659 H          1 MOL1         0.0724
      15    H8      20.640511   17.738363   19.431494 H          1 MOL1         0.0724
      16    H9      21.877076   18.218692   20.612618 H          1 MOL1         0.0724
@<TRIPOS>BOND
    1     1     2    1
    2     1     3    2
    3     1     4    1
    4     4     5    1
    5     4     6    1
    6     4     7    1
    7     7     8    1
    8     7     9    1
    9     7    10    1
   10    10    11    1
   11    10    12    1
   12    10    13    1
   13    13    14    1
   14    13    15    1
   15    13    16    1
@<TRIPOS>SUBSTRUCTURE
       1 MOL1            1 RESIDUE      1      MOL     
@<SCITEGIC>MOL_PROPERTY
VConf Rank
SciTegic.value.IntegerValue
186

@<SCITEGIC>MOL_PROPERTY
Conf_Id
SciTegic.value.IntegerValue
20

@<SCITEGIC>MOL_PROPERTY
Delta U+W
SciTegic.value.DoubleValue
-0.010

@<SCITEGIC>MOL_PROPERTY
U+W
SciTegic.value.DoubleValue
-56.914

@<SCITEGIC>MOL_PROPERTY
Grad RMS
SciTegic.value.DoubleValue
0.000000

@<SCITEGIC>MOL_PROPERTY
U
SciTegic.value.DoubleValue
8.277

@<SCITEGIC>MOL_PROPERTY
W
SciTegic.value.DoubleValue
-65.191

@<SCITEGIC>MOL_PROPERTY
W(PB)
SciTegic.value.DoubleValue
-67.081

@<SCITEGIC>MOL_PROPERTY
W(SA)
SciTegic.value.DoubleValue
1.890

@<SCITEGIC>MOL_PROPERTY
Valence
SciTegic.value.DoubleValue
6.513

@<SCITEGIC>MOL_PROPERTY
Coulomb
SciTegic.value.DoubleValue
1.429

@<SCITEGIC>MOL_PROPERTY
VdW
SciTegic.value.DoubleValue
0.335

@<SCITEGIC>MOL_PROPERTY
VdW6
SciTegic.value.DoubleValue
-5.021

@<SCITEGIC>MOL_PROPERTY
VdW12
SciTegic.value.DoubleValue
5.356

@<SCITEGIC>MOL_PROPERTY
Bond
SciTegic.value.DoubleValue
0.092

@<SCITEGIC>MOL_PROPERTY
Angle
SciTegic.value.DoubleValue
2.417

@<SCITEGIC>MOL_PROPERTY
Pdih
SciTegic.value.DoubleValue
4.002

@<SCITEGIC>MOL_PROPERTY
Idih
SciTegic.value.DoubleValue
0.001

@<SCITEGIC>MOL_PROPERTY
Tether
SciTegic.value.DoubleValue
0.000

@<TRIPOS>MOLECULE
guest-s18_confgen4.mol2 : confsearch ligand conformer 187
          16          15           1
SMALL
USER_CHARGES
 
@<TRIPOS>ATOM
       1    C1      18.775332   20.721019   21.171255 C.2        1 MOL1         0.6075
       2    O1      17.990042   20.509521   20.268275 O.co2      1 MOL1        -0.6830
       3    O2      19.621466   21.592180   21.133339 O.co2      1 MOL1        -0.6830
       4    C2      18.668558   19.867973   22.432468 C.3        1 MOL1        -0.2050
       5    H1      17.619036   19.884747   22.748858 H          1 MOL1         0.0710
       6    H2      19.241378   20.350035   23.232931 H          1 MOL1         0.0710
       7    C3      19.123665   18.394832   22.244283 C.3        1 MOL1        -0.1947
       8    H3      18.938009   17.839083   23.173285 H          1 MOL1         0.0712
       9    H4      18.494543   17.926870   21.474495 H          1 MOL1         0.0712
      10    C4      20.608968   18.232573   21.842367 C.3        1 MOL1        -0.1921
      11    H5      20.799857   18.755675   20.894990 H          1 MOL1         0.0712
      12    H6      20.808857   17.168803   21.653777 H          1 MOL1         0.0712
      13    C5      21.590182   18.740124   22.920353 C.3        1 MOL1        -0.2936
      14    H7      21.509084   19.826610   23.052488 H          1 MOL1         0.0724
      15    H8      22.625605   18.517648   22.631799 H          1 MOL1         0.0724
      16    H9      21.397019   18.258057   23.887496 H          1 MOL1         0.0724
@<TRIPOS>BOND
    1     1     2    1
    2     1     3    2
    3     1     4    1
    4     4     5    1
    5     4     6    1
    6     4     7    1
    7     7     8    1
    8     7     9    1
    9     7    10    1
   10    10    11    1
   11    10    12    1
   12    10    13    1
   13    13    14    1
   14    13    15    1
   15    13    16    1
@<TRIPOS>SUBSTRUCTURE
       1 MOL1            1 RESIDUE      1      MOL     
@<SCITEGIC>MOL_PROPERTY
VConf Rank
SciTegic.value.IntegerValue
187

@<SCITEGIC>MOL_PROPERTY
Conf_Id
SciTegic.value.IntegerValue
37

@<SCITEGIC>MOL_PROPERTY
Delta U+W
SciTegic.value.DoubleValue
1.063

@<SCITEGIC>MOL_PROPERTY
U+W
SciTegic.value.DoubleValue
-55.841

@<SCITEGIC>MOL_PROPERTY
Grad RMS
SciTegic.value.DoubleValue
0.000000

@<SCITEGIC>MOL_PROPERTY
U
SciTegic.value.DoubleValue
9.719

@<SCITEGIC>MOL_PROPERTY
W
SciTegic.value.DoubleValue
-65.560

@<SCITEGIC>MOL_PROPERTY
W(PB)
SciTegic.value.DoubleValue
-67.414

@<SCITEGIC>MOL_PROPERTY
W(SA)
SciTegic.value.DoubleValue
1.854

@<SCITEGIC>MOL_PROPERTY
Valence
SciTegic.value.DoubleValue
7.002

@<SCITEGIC>MOL_PROPERTY
Coulomb
SciTegic.value.DoubleValue
2.402

@<SCITEGIC>MOL_PROPERTY
VdW
SciTegic.value.DoubleValue
0.314

@<SCITEGIC>MOL_PROPERTY
VdW6
SciTegic.value.DoubleValue
-5.861

@<SCITEGIC>MOL_PROPERTY
VdW12
SciTegic.value.DoubleValue
6.175

@<SCITEGIC>MOL_PROPERTY
Bond
SciTegic.value.DoubleValue
0.134

@<SCITEGIC>MOL_PROPERTY
Angle
SciTegic.value.DoubleValue
2.733

@<SCITEGIC>MOL_PROPERTY
Pdih
SciTegic.value.DoubleValue
4.133

@<SCITEGIC>MOL_PROPERTY
Idih
SciTegic.value.DoubleValue
0.002

@<SCITEGIC>MOL_PROPERTY
Tether
SciTegic.value.DoubleValue
0.000

@<TRIPOS>MOLECULE
guest-s18_confgen4.mol2 : confsearch ligand conformer 188
          16          15           1
SMALL
USER_CHARGES
 
@<TRIPOS>ATOM
       1    C1      21.097589   20.946840   21.528213 C.2        1 MOL1         0.6075
       2    O1      22.304702   21.078128   21.478958 O.co2      1 MOL1        -0.6830
       3    O2      20.349236   21.288318   20.633975 O.co2      1 MOL1        -0.6830
       4    C2      20.489371   20.353134   22.796018 C.3        1 MOL1        -0.2050
       5    H1      19.411752   20.553098   22.796389 H          1 MOL1         0.0710
       6    H2      20.907317   20.904366   23.646516 H          1 MOL1         0.0710
       7    C3      20.764768   18.835982   22.983329 C.3        1 MOL1        -0.1947
       8    H3      21.851043   18.678113   23.032704 H          1 MOL1         0.0712
       9    H4      20.362488   18.514013   23.953317 H          1 MOL1         0.0712
      10    C4      20.179658   17.938941   21.866657 C.3        1 MOL1        -0.1921
      11    H5      20.497008   16.902275   22.044817 H          1 MOL1         0.0712
      12    H6      20.601450   18.228548   20.894126 H          1 MOL1         0.0712
      13    C5      18.638393   17.982664   21.795730 C.3        1 MOL1        -0.2936
      14    H7      18.191875   17.731276   22.766550 H          1 MOL1         0.0724
      15    H8      18.267901   17.261667   21.055623 H          1 MOL1         0.0724
      16    H9      18.281747   18.976786   21.497381 H          1 MOL1         0.0724
@<TRIPOS>BOND
    1     1     2    1
    2     1     3    2
    3     1     4    1
    4     4     5    1
    5     4     6    1
    6     4     7    1
    7     7     8    1
    8     7     9    1
    9     7    10    1
   10    10    11    1
   11    10    12    1
   12    10    13    1
   13    13    14    1
   14    13    15    1
   15    13    16    1
@<TRIPOS>SUBSTRUCTURE
       1 MOL1            1 RESIDUE      1      MOL     
@<SCITEGIC>MOL_PROPERTY
VConf Rank
SciTegic.value.IntegerValue
188

@<SCITEGIC>MOL_PROPERTY
Conf_Id
SciTegic.value.IntegerValue
39

@<SCITEGIC>MOL_PROPERTY
Delta U+W
SciTegic.value.DoubleValue
1.129

@<SCITEGIC>MOL_PROPERTY
U+W
SciTegic.value.DoubleValue
-55.775

@<SCITEGIC>MOL_PROPERTY
Grad RMS
SciTegic.value.DoubleValue
0.000000

@<SCITEGIC>MOL_PROPERTY
U
SciTegic.value.DoubleValue
9.718

@<SCITEGIC>MOL_PROPERTY
W
SciTegic.value.DoubleValue
-65.493

@<SCITEGIC>MOL_PROPERTY
W(PB)
SciTegic.value.DoubleValue
-67.361

@<SCITEGIC>MOL_PROPERTY
W(SA)
SciTegic.value.DoubleValue
1.869

@<SCITEGIC>MOL_PROPERTY
Valence
SciTegic.value.DoubleValue
7.002

@<SCITEGIC>MOL_PROPERTY
Coulomb
SciTegic.value.DoubleValue
2.402

@<SCITEGIC>MOL_PROPERTY
VdW
SciTegic.value.DoubleValue
0.314

@<SCITEGIC>MOL_PROPERTY
VdW6
SciTegic.value.DoubleValue
-5.861

@<SCITEGIC>MOL_PROPERTY
VdW12
SciTegic.value.DoubleValue
6.175

@<SCITEGIC>MOL_PROPERTY
Bond
SciTegic.value.DoubleValue
0.134

@<SCITEGIC>MOL_PROPERTY
Angle
SciTegic.value.DoubleValue
2.734

@<SCITEGIC>MOL_PROPERTY
Pdih
SciTegic.value.DoubleValue
4.133

@<SCITEGIC>MOL_PROPERTY
Idih
SciTegic.value.DoubleValue
0.002

@<SCITEGIC>MOL_PROPERTY
Tether
SciTegic.value.DoubleValue
0.000

@<TRIPOS>MOLECULE
guest-s18_confgen4.mol2 : confsearch ligand conformer 189
          16          15           1
SMALL
USER_CHARGES
 
@<TRIPOS>ATOM
       1    C1      21.527800   20.093710   22.817935 C.2        1 MOL1         0.6075
       2    O1      21.259193   20.945183   23.642352 O.co2      1 MOL1        -0.6830
       3    O2      22.202655   20.308648   21.830245 O.co2      1 MOL1        -0.6830
       4    C2      21.068687   18.661378   23.084950 C.3        1 MOL1        -0.2050
       5    H1      20.545710   18.628037   24.048465 H          1 MOL1         0.0710
       6    H2      21.979096   18.062014   23.201862 H          1 MOL1         0.0710
       7    C3      20.186907   18.027947   21.972200 C.3        1 MOL1        -0.1947
       8    H3      20.617344   18.244527   20.984598 H          1 MOL1         0.0712
       9    H4      20.227980   16.936398   22.087456 H          1 MOL1         0.0712
      10    C4      18.698338   18.450430   22.007290 C.3        1 MOL1        -0.1921
      11    H5      18.272336   18.234098   22.996711 H          1 MOL1         0.0712
      12    H6      18.144025   17.829136   21.290336 H          1 MOL1         0.0712
      13    C5      18.462267   19.933478   21.653556 C.3        1 MOL1        -0.2936
      14    H7      18.856897   20.597562   22.432183 H          1 MOL1         0.0724
      15    H8      17.388330   20.139105   21.557935 H          1 MOL1         0.0724
      16    H9      18.943725   20.193166   20.701669 H          1 MOL1         0.0724
@<TRIPOS>BOND
    1     1     2    1
    2     1     3    2
    3     1     4    1
    4     4     5    1
    5     4     6    1
    6     4     7    1
    7     7     8    1
    8     7     9    1
    9     7    10    1
   10    10    11    1
   11    10    12    1
   12    10    13    1
   13    13    14    1
   14    13    15    1
   15    13    16    1
@<TRIPOS>SUBSTRUCTURE
       1 MOL1            1 RESIDUE      1      MOL     
@<SCITEGIC>MOL_PROPERTY
VConf Rank
SciTegic.value.IntegerValue
189

@<SCITEGIC>MOL_PROPERTY
Conf_Id
SciTegic.value.IntegerValue
47

@<SCITEGIC>MOL_PROPERTY
Delta U+W
SciTegic.value.DoubleValue
2.301

@<SCITEGIC>MOL_PROPERTY
U+W
SciTegic.value.DoubleValue
-54.603

@<SCITEGIC>MOL_PROPERTY
Grad RMS
SciTegic.value.DoubleValue
0.000000

@<SCITEGIC>MOL_PROPERTY
U
SciTegic.value.DoubleValue
11.258

@<SCITEGIC>MOL_PROPERTY
W
SciTegic.value.DoubleValue
-65.861

@<SCITEGIC>MOL_PROPERTY
W(PB)
SciTegic.value.DoubleValue
-67.702

@<SCITEGIC>MOL_PROPERTY
W(SA)
SciTegic.value.DoubleValue
1.841

@<SCITEGIC>MOL_PROPERTY
Valence
SciTegic.value.DoubleValue
8.169

@<SCITEGIC>MOL_PROPERTY
Coulomb
SciTegic.value.DoubleValue
2.735

@<SCITEGIC>MOL_PROPERTY
VdW
SciTegic.value.DoubleValue
0.355

@<SCITEGIC>MOL_PROPERTY
VdW6
SciTegic.value.DoubleValue
-6.245

@<SCITEGIC>MOL_PROPERTY
VdW12
SciTegic.value.DoubleValue
6.600

@<SCITEGIC>MOL_PROPERTY
Bond
SciTegic.value.DoubleValue
0.149

@<SCITEGIC>MOL_PROPERTY
Angle
SciTegic.value.DoubleValue
3.168

@<SCITEGIC>MOL_PROPERTY
Pdih
SciTegic.value.DoubleValue
4.840

@<SCITEGIC>MOL_PROPERTY
Idih
SciTegic.value.DoubleValue
0.011

@<SCITEGIC>MOL_PROPERTY
Tether
SciTegic.value.DoubleValue
0.000

@<TRIPOS>MOLECULE
guest-s18_confgen4.mol2 : confsearch ligand conformer 190
          16          15           1
SMALL
USER_CHARGES
 
@<TRIPOS>ATOM
       1    C1      21.802279   19.257474   21.764751 C.2        1 MOL1         0.6075
       2    O1      22.071436   20.429821   21.590637 O.co2      1 MOL1        -0.6830
       3    O2      22.123416   18.375956   20.992342 O.co2      1 MOL1        -0.6830
       4    C2      21.103904   18.858981   23.063651 C.3        1 MOL1        -0.2050
       5    H1      21.782318   19.139712   23.877711 H          1 MOL1         0.0710
       6    H2      21.009150   17.766796   23.097312 H          1 MOL1         0.0710
       7    C3      19.720985   19.526531   23.306345 C.3        1 MOL1        -0.1947
       8    H3      19.498034   19.463709   24.380030 H          1 MOL1         0.0712
       9    H4      19.776071   20.598449   23.070765 H          1 MOL1         0.0712
      10    C4      18.544373   18.874126   22.541157 C.3        1 MOL1        -0.1921
      11    H5      17.606179   19.314964   22.905505 H          1 MOL1         0.0712
      12    H6      18.493883   17.802386   22.777917 H          1 MOL1         0.0712
      13    C5      18.612484   19.065130   21.011725 C.3        1 MOL1        -0.2936
      14    H7      17.689053   18.707071   20.538609 H          1 MOL1         0.0724
      15    H8      19.446205   18.501535   20.575525 H          1 MOL1         0.0724
      16    H9      18.738385   20.124376   20.751965 H          1 MOL1         0.0724
@<TRIPOS>BOND
    1     1     2    1
    2     1     3    2
    3     1     4    1
    4     4     5    1
    5     4     6    1
    6     4     7    1
    7     7     8    1
    8     7     9    1
    9     7    10    1
   10    10    11    1
   11    10    12    1
   12    10    13    1
   13    13    14    1
   14    13    15    1
   15    13    16    1
@<TRIPOS>SUBSTRUCTURE
       1 MOL1            1 RESIDUE      1      MOL     
@<SCITEGIC>MOL_PROPERTY
VConf Rank
SciTegic.value.IntegerValue
190

@<SCITEGIC>MOL_PROPERTY
Conf_Id
SciTegic.value.IntegerValue
45

@<SCITEGIC>MOL_PROPERTY
Delta U+W
SciTegic.value.DoubleValue
2.303

@<SCITEGIC>MOL_PROPERTY
U+W
SciTegic.value.DoubleValue
-54.601

@<SCITEGIC>MOL_PROPERTY
Grad RMS
SciTegic.value.DoubleValue
0.000000

@<SCITEGIC>MOL_PROPERTY
U
SciTegic.value.DoubleValue
11.258

@<SCITEGIC>MOL_PROPERTY
W
SciTegic.value.DoubleValue
-65.860

@<SCITEGIC>MOL_PROPERTY
W(PB)
SciTegic.value.DoubleValue
-67.709

@<SCITEGIC>MOL_PROPERTY
W(SA)
SciTegic.value.DoubleValue
1.849

@<SCITEGIC>MOL_PROPERTY
Valence
SciTegic.value.DoubleValue
8.169

@<SCITEGIC>MOL_PROPERTY
Coulomb
SciTegic.value.DoubleValue
2.735

@<SCITEGIC>MOL_PROPERTY
VdW
SciTegic.value.DoubleValue
0.355

@<SCITEGIC>MOL_PROPERTY
VdW6
SciTegic.value.DoubleValue
-6.245

@<SCITEGIC>MOL_PROPERTY
VdW12
SciTegic.value.DoubleValue
6.600

@<SCITEGIC>MOL_PROPERTY
Bond
SciTegic.value.DoubleValue
0.149

@<SCITEGIC>MOL_PROPERTY
Angle
SciTegic.value.DoubleValue
3.168

@<SCITEGIC>MOL_PROPERTY
Pdih
SciTegic.value.DoubleValue
4.840

@<SCITEGIC>MOL_PROPERTY
Idih
SciTegic.value.DoubleValue
0.011

@<SCITEGIC>MOL_PROPERTY
Tether
SciTegic.value.DoubleValue
0.000

@<TRIPOS>MOLECULE
guest-s18_confgen4.mol2 : confsearch ligand conformer 191
          16          15           1
SMALL
USER_CHARGES
 
@<TRIPOS>ATOM
       1    C1      18.406476   17.378183   20.499294 C.2        1 MOL1         0.6075
       2    O1      19.325760   16.921373   19.848128 O.co2      1 MOL1        -0.6830
       3    O2      17.255761   17.012332   20.367685 O.co2      1 MOL1        -0.6830
       4    C2      18.678823   18.465425   21.540268 C.3        1 MOL1        -0.2050
       5    H1      18.315294   18.092947   22.505290 H          1 MOL1         0.0710
       6    H2      18.060760   19.332135   21.277633 H          1 MOL1         0.0710
       7    C3      20.162414   18.901121   21.672452 C.3        1 MOL1        -0.1947
       8    H3      20.777384   18.027735   21.930285 H          1 MOL1         0.0712
       9    H4      20.522578   19.268211   20.701371 H          1 MOL1         0.0712
      10    C4      20.344798   19.998286   22.742135 C.3        1 MOL1        -0.1921
      11    H5      19.986599   19.631811   23.714189 H          1 MOL1         0.0712
      12    H6      19.731642   20.873037   22.484550 H          1 MOL1         0.0712
      13    C5      21.820108   20.426742   22.868738 C.3        1 MOL1        -0.2936
      14    H7      22.452594   19.576709   23.156620 H          1 MOL1         0.0724
      15    H8      21.932177   21.206841   23.632955 H          1 MOL1         0.0724
      16    H9      22.195761   20.827095   21.917912 H          1 MOL1         0.0724
@<TRIPOS>BOND
    1     1     2    1
    2     1     3    2
    3     1     4    1
    4     4     5    1
    5     4     6    1
    6     4     7    1
    7     7     8    1
    8     7     9    1
    9     7    10    1
   10    10    11    1
   11    10    12    1
   12    10    13    1
   13    13    14    1
   14    13    15    1
   15    13    16    1
@<TRIPOS>SUBSTRUCTURE
       1 MOL1            1 RESIDUE      1      MOL     
@<SCITEGIC>MOL_PROPERTY
VConf Rank
SciTegic.value.IntegerValue
191

@<SCITEGIC>MOL_PROPERTY
Conf_Id
SciTegic.value.IntegerValue
0

@<SCITEGIC>MOL_PROPERTY
Delta U+W
SciTegic.value.DoubleValue
0.000

@<SCITEGIC>MOL_PROPERTY
U+W
SciTegic.value.DoubleValue
-56.904

@<SCITEGIC>MOL_PROPERTY
Grad RMS
SciTegic.value.DoubleValue
0.000000

@<SCITEGIC>MOL_PROPERTY
U
SciTegic.value.DoubleValue
7.329

@<SCITEGIC>MOL_PROPERTY
W
SciTegic.value.DoubleValue
-64.233

@<SCITEGIC>MOL_PROPERTY
W(PB)
SciTegic.value.DoubleValue
-66.148

@<SCITEGIC>MOL_PROPERTY
W(SA)
SciTegic.value.DoubleValue
1.915

@<SCITEGIC>MOL_PROPERTY
Valence
SciTegic.value.DoubleValue
6.755

@<SCITEGIC>MOL_PROPERTY
Coulomb
SciTegic.value.DoubleValue
-0.421

@<SCITEGIC>MOL_PROPERTY
VdW
SciTegic.value.DoubleValue
0.995

@<SCITEGIC>MOL_PROPERTY
VdW6
SciTegic.value.DoubleValue
-4.495

@<SCITEGIC>MOL_PROPERTY
VdW12
SciTegic.value.DoubleValue
5.490

@<SCITEGIC>MOL_PROPERTY
Bond
SciTegic.value.DoubleValue
0.106

@<SCITEGIC>MOL_PROPERTY
Angle
SciTegic.value.DoubleValue
2.715

@<SCITEGIC>MOL_PROPERTY
Pdih
SciTegic.value.DoubleValue
3.934

@<SCITEGIC>MOL_PROPERTY
Idih
SciTegic.value.DoubleValue
0.000

@<SCITEGIC>MOL_PROPERTY
Tether
SciTegic.value.DoubleValue
0.000

@<TRIPOS>MOLECULE
guest-s18_confgen4.mol2 : confsearch ligand conformer 192
          16          15           1
SMALL
USER_CHARGES
 
@<TRIPOS>ATOM
       1    C1      20.179149   17.695609   19.615843 C.2        1 MOL1         0.6075
       2    O1      21.296410   17.590468   19.150531 O.co2      1 MOL1        -0.6830
       3    O2      19.313230   16.854246   19.481168 O.co2      1 MOL1        -0.6830
       4    C2      19.851458   18.943303   20.428530 C.3        1 MOL1        -0.2050
       5    H1      18.788933   19.174320   20.285273 H          1 MOL1         0.0710
       6    H2      20.424030   19.781252   20.012774 H          1 MOL1         0.0710
       7    C3      20.163531   18.779589   21.936465 C.3        1 MOL1        -0.1947
       8    H3      19.592560   17.929542   22.335165 H          1 MOL1         0.0712
       9    H4      21.227722   18.536432   22.062656 H          1 MOL1         0.0712
      10    C4      19.823201   20.055126   22.735053 C.3        1 MOL1        -0.1921
      11    H5      18.758911   20.298234   22.609665 H          1 MOL1         0.0712
      12    H6      20.394471   20.905296   22.337059 H          1 MOL1         0.0712
      13    C5      20.136325   19.884953   24.234752 C.3        1 MOL1        -0.2936
      14    H7      21.201846   19.671722   24.391813 H          1 MOL1         0.0724
      15    H8      19.554222   19.060159   24.666427 H          1 MOL1         0.0724
      16    H9      19.888743   20.800342   24.787849 H          1 MOL1         0.0724
@<TRIPOS>BOND
    1     1     2    1
    2     1     3    2
    3     1     4    1
    4     4     5    1
    5     4     6    1
    6     4     7    1
    7     7     8    1
    8     7     9    1
    9     7    10    1
   10    10    11    1
   11    10    12    1
   12    10    13    1
   13    13    14    1
   14    13    15    1
   15    13    16    1
@<TRIPOS>SUBSTRUCTURE
       1 MOL1            1 RESIDUE      1      MOL     
@<SCITEGIC>MOL_PROPERTY
VConf Rank
SciTegic.value.IntegerValue
192

@<SCITEGIC>MOL_PROPERTY
Conf_Id
SciTegic.value.IntegerValue
22

@<SCITEGIC>MOL_PROPERTY
Delta U+W
SciTegic.value.DoubleValue
-1.185

@<SCITEGIC>MOL_PROPERTY
U+W
SciTegic.value.DoubleValue
-58.089

@<SCITEGIC>MOL_PROPERTY
Grad RMS
SciTegic.value.DoubleValue
0.000000

@<SCITEGIC>MOL_PROPERTY
U
SciTegic.value.DoubleValue
6.298

@<SCITEGIC>MOL_PROPERTY
W
SciTegic.value.DoubleValue
-64.387

@<SCITEGIC>MOL_PROPERTY
W(PB)
SciTegic.value.DoubleValue
-66.329

@<SCITEGIC>MOL_PROPERTY
W(SA)
SciTegic.value.DoubleValue
1.942

@<SCITEGIC>MOL_PROPERTY
Valence
SciTegic.value.DoubleValue
6.246

@<SCITEGIC>MOL_PROPERTY
Coulomb
SciTegic.value.DoubleValue
-0.408

@<SCITEGIC>MOL_PROPERTY
VdW
SciTegic.value.DoubleValue
0.460

@<SCITEGIC>MOL_PROPERTY
VdW6
SciTegic.value.DoubleValue
-4.207

@<SCITEGIC>MOL_PROPERTY
VdW12
SciTegic.value.DoubleValue
4.667

@<SCITEGIC>MOL_PROPERTY
Bond
SciTegic.value.DoubleValue
0.072

@<SCITEGIC>MOL_PROPERTY
Angle
SciTegic.value.DoubleValue
2.246

@<SCITEGIC>MOL_PROPERTY
Pdih
SciTegic.value.DoubleValue
3.928

@<SCITEGIC>MOL_PROPERTY
Idih
SciTegic.value.DoubleValue
0.001

@<SCITEGIC>MOL_PROPERTY
Tether
SciTegic.value.DoubleValue
0.000

@<TRIPOS>MOLECULE
guest-s18_confgen4.mol2 : confsearch ligand conformer 193
          16          15           1
SMALL
USER_CHARGES
 
@<TRIPOS>ATOM
       1    C1      21.156587   16.999559   21.168814 C.2        1 MOL1         0.6075
       2    O1      22.322895   16.993162   20.828698 O.co2      1 MOL1        -0.6830
       3    O2      20.353646   16.153152   20.829936 O.co2      1 MOL1        -0.6830
       4    C2      20.670014   18.142881   22.052348 C.3        1 MOL1        -0.2050
       5    H1      21.500767   18.451305   22.698328 H          1 MOL1         0.0710
       6    H2      19.880647   17.749927   22.703197 H          1 MOL1         0.0710
       7    C3      20.150114   19.354356   21.235632 C.3        1 MOL1        -0.1947
       8    H3      20.933892   19.668893   20.532647 H          1 MOL1         0.0712
       9    H4      19.291454   19.043242   20.624715 H          1 MOL1         0.0712
      10    C4      19.755415   20.564422   22.113334 C.3        1 MOL1        -0.1921
      11    H5      19.505150   21.409736   21.457498 H          1 MOL1         0.0712
      12    H6      20.617379   20.883109   22.715695 H          1 MOL1         0.0712
      13    C5      18.552863   20.279018   23.038184 C.3        1 MOL1        -0.2936
      14    H7      18.796192   19.516234   23.788339 H          1 MOL1         0.0724
      15    H8      17.686804   19.930722   22.460359 H          1 MOL1         0.0724
      16    H9      18.256899   21.189854   23.574646 H          1 MOL1         0.0724
@<TRIPOS>BOND
    1     1     2    1
    2     1     3    2
    3     1     4    1
    4     4     5    1
    5     4     6    1
    6     4     7    1
    7     7     8    1
    8     7     9    1
    9     7    10    1
   10    10    11    1
   11    10    12    1
   12    10    13    1
   13    13    14    1
   14    13    15    1
   15    13    16    1
@<TRIPOS>SUBSTRUCTURE
       1 MOL1            1 RESIDUE      1      MOL     
@<SCITEGIC>MOL_PROPERTY
VConf Rank
SciTegic.value.IntegerValue
193

@<SCITEGIC>MOL_PROPERTY
Conf_Id
SciTegic.value.IntegerValue
36

@<SCITEGIC>MOL_PROPERTY
Delta U+W
SciTegic.value.DoubleValue
-0.427

@<SCITEGIC>MOL_PROPERTY
U+W
SciTegic.value.DoubleValue
-57.331

@<SCITEGIC>MOL_PROPERTY
Grad RMS
SciTegic.value.DoubleValue
0.000000

@<SCITEGIC>MOL_PROPERTY
U
SciTegic.value.DoubleValue
7.263

@<SCITEGIC>MOL_PROPERTY
W
SciTegic.value.DoubleValue
-64.594

@<SCITEGIC>MOL_PROPERTY
W(PB)
SciTegic.value.DoubleValue
-66.513

@<SCITEGIC>MOL_PROPERTY
W(SA)
SciTegic.value.DoubleValue
1.920

@<SCITEGIC>MOL_PROPERTY
Valence
SciTegic.value.DoubleValue
6.734

@<SCITEGIC>MOL_PROPERTY
Coulomb
SciTegic.value.DoubleValue
-0.068

@<SCITEGIC>MOL_PROPERTY
VdW
SciTegic.value.DoubleValue
0.598

@<SCITEGIC>MOL_PROPERTY
VdW6
SciTegic.value.DoubleValue
-4.819

@<SCITEGIC>MOL_PROPERTY
VdW12
SciTegic.value.DoubleValue
5.417

@<SCITEGIC>MOL_PROPERTY
Bond
SciTegic.value.DoubleValue
0.107

@<SCITEGIC>MOL_PROPERTY
Angle
SciTegic.value.DoubleValue
2.469

@<SCITEGIC>MOL_PROPERTY
Pdih
SciTegic.value.DoubleValue
4.157

@<SCITEGIC>MOL_PROPERTY
Idih
SciTegic.value.DoubleValue
0.001

@<SCITEGIC>MOL_PROPERTY
Tether
SciTegic.value.DoubleValue
0.000

@<TRIPOS>MOLECULE
guest-s18_confgen4.mol2 : confsearch ligand conformer 194
          16          15           1
SMALL
USER_CHARGES
 
@<TRIPOS>ATOM
       1    C1      19.067183   19.882767   19.677459 C.2        1 MOL1         0.6075
       2    O1      19.959779   19.930789   18.854706 O.co2      1 MOL1        -0.6830
       3    O2      18.000513   20.449004   19.544842 O.co2      1 MOL1        -0.6830
       4    C2      19.305647   19.085308   20.954865 C.3        1 MOL1        -0.2050
       5    H1      19.955790   18.239293   20.704483 H          1 MOL1         0.0710
       6    H2      18.344434   18.671184   21.282185 H          1 MOL1         0.0710
       7    C3      19.933364   19.938350   22.087687 C.3        1 MOL1        -0.1947
       8    H3      20.914570   20.312349   21.764160 H          1 MOL1         0.0712
       9    H4      19.303171   20.822963   22.254252 H          1 MOL1         0.0712
      10    C4      20.080322   19.174509   23.423860 C.3        1 MOL1        -0.1921
      11    H5      19.097371   18.810505   23.753540 H          1 MOL1         0.0712
      12    H6      20.426643   19.875968   24.195432 H          1 MOL1         0.0712
      13    C5      21.071194   17.993522   23.344027 C.3        1 MOL1        -0.2936
      14    H7      20.708132   17.210684   22.666433 H          1 MOL1         0.0724
      15    H8      21.206908   17.539108   24.334025 H          1 MOL1         0.0724
      16    H9      22.054268   18.328835   22.988525 H          1 MOL1         0.0724
@<TRIPOS>BOND
    1     1     2    1
    2     1     3    2
    3     1     4    1
    4     4     5    1
    5     4     6    1
    6     4     7    1
    7     7     8    1
    8     7     9    1
    9     7    10    1
   10    10    11    1
   11    10    12    1
   12    10    13    1
   13    13    14    1
   14    13    15    1
   15    13    16    1
@<TRIPOS>SUBSTRUCTURE
       1 MOL1            1 RESIDUE      1      MOL     
@<SCITEGIC>MOL_PROPERTY
VConf Rank
SciTegic.value.IntegerValue
194

@<SCITEGIC>MOL_PROPERTY
Conf_Id
SciTegic.value.IntegerValue
17

@<SCITEGIC>MOL_PROPERTY
Delta U+W
SciTegic.value.DoubleValue
-0.432

@<SCITEGIC>MOL_PROPERTY
U+W
SciTegic.value.DoubleValue
-57.336

@<SCITEGIC>MOL_PROPERTY
Grad RMS
SciTegic.value.DoubleValue
0.000000

@<SCITEGIC>MOL_PROPERTY
U
SciTegic.value.DoubleValue
7.263

@<SCITEGIC>MOL_PROPERTY
W
SciTegic.value.DoubleValue
-64.599

@<SCITEGIC>MOL_PROPERTY
W(PB)
SciTegic.value.DoubleValue
-66.503

@<SCITEGIC>MOL_PROPERTY
W(SA)
SciTegic.value.DoubleValue
1.904

@<SCITEGIC>MOL_PROPERTY
Valence
SciTegic.value.DoubleValue
6.734

@<SCITEGIC>MOL_PROPERTY
Coulomb
SciTegic.value.DoubleValue
-0.068

@<SCITEGIC>MOL_PROPERTY
VdW
SciTegic.value.DoubleValue
0.598

@<SCITEGIC>MOL_PROPERTY
VdW6
SciTegic.value.DoubleValue
-4.819

@<SCITEGIC>MOL_PROPERTY
VdW12
SciTegic.value.DoubleValue
5.417

@<SCITEGIC>MOL_PROPERTY
Bond
SciTegic.value.DoubleValue
0.107

@<SCITEGIC>MOL_PROPERTY
Angle
SciTegic.value.DoubleValue
2.469

@<SCITEGIC>MOL_PROPERTY
Pdih
SciTegic.value.DoubleValue
4.157

@<SCITEGIC>MOL_PROPERTY
Idih
SciTegic.value.DoubleValue
0.001

@<SCITEGIC>MOL_PROPERTY
Tether
SciTegic.value.DoubleValue
0.000

@<TRIPOS>MOLECULE
guest-s18_confgen4.mol2 : confsearch ligand conformer 195
          16          15           1
SMALL
USER_CHARGES
 
@<TRIPOS>ATOM
       1    C1      19.808653   18.618882   19.803464 C.2        1 MOL1         0.6075
       2    O1      18.639155   18.513883   19.491067 O.co2      1 MOL1        -0.6830
       3    O2      20.612011   19.285715   19.182004 O.co2      1 MOL1        -0.6830
       4    C2      20.297990   17.851845   21.028901 C.3        1 MOL1        -0.2050
       5    H1      21.389914   17.763531   20.974252 H          1 MOL1         0.0710
       6    H2      19.894027   16.834687   20.962299 H          1 MOL1         0.0710
       7    C3      19.879755   18.486748   22.380572 C.3        1 MOL1        -0.1947
       8    H3      18.786574   18.595186   22.409210 H          1 MOL1         0.0712
       9    H4      20.150967   17.801647   23.195213 H          1 MOL1         0.0712
      10    C4      20.547786   19.857232   22.624887 C.3        1 MOL1        -0.1921
      11    H5      20.266785   20.557741   21.826106 H          1 MOL1         0.0712
      12    H6      21.640520   19.749501   22.583618 H          1 MOL1         0.0712
      13    C5      20.141909   20.449940   23.988817 C.3        1 MOL1        -0.2936
      14    H7      19.055321   20.596934   24.045104 H          1 MOL1         0.0724
      15    H8      20.624249   21.423435   24.146210 H          1 MOL1         0.0724
      16    H9      20.441483   19.786374   24.810615 H          1 MOL1         0.0724
@<TRIPOS>BOND
    1     1     2    1
    2     1     3    2
    3     1     4    1
    4     4     5    1
    5     4     6    1
    6     4     7    1
    7     7     8    1
    8     7     9    1
    9     7    10    1
   10    10    11    1
   11    10    12    1
   12    10    13    1
   13    13    14    1
   14    13    15    1
   15    13    16    1
@<TRIPOS>SUBSTRUCTURE
       1 MOL1            1 RESIDUE      1      MOL     
@<SCITEGIC>MOL_PROPERTY
VConf Rank
SciTegic.value.IntegerValue
195

@<SCITEGIC>MOL_PROPERTY
Conf_Id
SciTegic.value.IntegerValue
19

@<SCITEGIC>MOL_PROPERTY
Delta U+W
SciTegic.value.DoubleValue
0.048

@<SCITEGIC>MOL_PROPERTY
U+W
SciTegic.value.DoubleValue
-56.856

@<SCITEGIC>MOL_PROPERTY
Grad RMS
SciTegic.value.DoubleValue
0.000000

@<SCITEGIC>MOL_PROPERTY
U
SciTegic.value.DoubleValue
8.276

@<SCITEGIC>MOL_PROPERTY
W
SciTegic.value.DoubleValue
-65.132

@<SCITEGIC>MOL_PROPERTY
W(PB)
SciTegic.value.DoubleValue
-67.031

@<SCITEGIC>MOL_PROPERTY
W(SA)
SciTegic.value.DoubleValue
1.899

@<SCITEGIC>MOL_PROPERTY
Valence
SciTegic.value.DoubleValue
6.513

@<SCITEGIC>MOL_PROPERTY
Coulomb
SciTegic.value.DoubleValue
1.428

@<SCITEGIC>MOL_PROPERTY
VdW
SciTegic.value.DoubleValue
0.335

@<SCITEGIC>MOL_PROPERTY
VdW6
SciTegic.value.DoubleValue
-5.021

@<SCITEGIC>MOL_PROPERTY
VdW12
SciTegic.value.DoubleValue
5.356

@<SCITEGIC>MOL_PROPERTY
Bond
SciTegic.value.DoubleValue
0.092

@<SCITEGIC>MOL_PROPERTY
Angle
SciTegic.value.DoubleValue
2.417

@<SCITEGIC>MOL_PROPERTY
Pdih
SciTegic.value.DoubleValue
4.003

@<SCITEGIC>MOL_PROPERTY
Idih
SciTegic.value.DoubleValue
0.001

@<SCITEGIC>MOL_PROPERTY
Tether
SciTegic.value.DoubleValue
0.000

@<TRIPOS>MOLECULE
guest-s18_confgen4.mol2 : confsearch ligand conformer 196
          16          15           1
SMALL
USER_CHARGES
 
@<TRIPOS>ATOM
       1    C1      21.057938   19.543766   24.099346 C.2        1 MOL1         0.6075
       2    O1      20.791344   18.751850   24.981468 O.co2      1 MOL1        -0.6830
       3    O2      21.079533   20.747616   24.262256 O.co2      1 MOL1        -0.6830
       4    C2      21.406994   18.993328   22.719246 C.3        1 MOL1        -0.2050
       5    H1      22.107307   18.162312   22.864877 H          1 MOL1         0.0710
       6    H2      21.945610   19.767372   22.159037 H          1 MOL1         0.0710
       7    C3      20.181436   18.500288   21.906864 C.3        1 MOL1        -0.1947
       8    H3      20.535904   17.998084   20.996534 H          1 MOL1         0.0712
       9    H4      19.636004   17.746708   22.491881 H          1 MOL1         0.0712
      10    C4      19.227299   19.649369   21.515168 C.3        1 MOL1        -0.1921
      11    H5      19.776913   20.408010   20.940916 H          1 MOL1         0.0712
      12    H6      18.849933   20.146618   22.419635 H          1 MOL1         0.0712
      13    C5      18.036698   19.137204   20.680596 C.3        1 MOL1        -0.2936
      14    H7      18.382094   18.664864   19.751612 H          1 MOL1         0.0724
      15    H8      17.368447   19.965559   20.411548 H          1 MOL1         0.0724
      16    H9      17.451343   18.398730   21.244036 H          1 MOL1         0.0724
@<TRIPOS>BOND
    1     1     2    1
    2     1     3    2
    3     1     4    1
    4     4     5    1
    5     4     6    1
    6     4     7    1
    7     7     8    1
    8     7     9    1
    9     7    10    1
   10    10    11    1
   11    10    12    1
   12    10    13    1
   13    13    14    1
   14    13    15    1
   15    13    16    1
@<TRIPOS>SUBSTRUCTURE
       1 MOL1            1 RESIDUE      1      MOL     
@<SCITEGIC>MOL_PROPERTY
VConf Rank
SciTegic.value.IntegerValue
196

@<SCITEGIC>MOL_PROPERTY
Conf_Id
SciTegic.value.IntegerValue
20

@<SCITEGIC>MOL_PROPERTY
Delta U+W
SciTegic.value.DoubleValue
-0.010

@<SCITEGIC>MOL_PROPERTY
U+W
SciTegic.value.DoubleValue
-56.914

@<SCITEGIC>MOL_PROPERTY
Grad RMS
SciTegic.value.DoubleValue
0.000000

@<SCITEGIC>MOL_PROPERTY
U
SciTegic.value.DoubleValue
8.277

@<SCITEGIC>MOL_PROPERTY
W
SciTegic.value.DoubleValue
-65.191

@<SCITEGIC>MOL_PROPERTY
W(PB)
SciTegic.value.DoubleValue
-67.081

@<SCITEGIC>MOL_PROPERTY
W(SA)
SciTegic.value.DoubleValue
1.890

@<SCITEGIC>MOL_PROPERTY
Valence
SciTegic.value.DoubleValue
6.513

@<SCITEGIC>MOL_PROPERTY
Coulomb
SciTegic.value.DoubleValue
1.429

@<SCITEGIC>MOL_PROPERTY
VdW
SciTegic.value.DoubleValue
0.335

@<SCITEGIC>MOL_PROPERTY
VdW6
SciTegic.value.DoubleValue
-5.021

@<SCITEGIC>MOL_PROPERTY
VdW12
SciTegic.value.DoubleValue
5.356

@<SCITEGIC>MOL_PROPERTY
Bond
SciTegic.value.DoubleValue
0.092

@<SCITEGIC>MOL_PROPERTY
Angle
SciTegic.value.DoubleValue
2.417

@<SCITEGIC>MOL_PROPERTY
Pdih
SciTegic.value.DoubleValue
4.002

@<SCITEGIC>MOL_PROPERTY
Idih
SciTegic.value.DoubleValue
0.001

@<SCITEGIC>MOL_PROPERTY
Tether
SciTegic.value.DoubleValue
0.000

@<TRIPOS>MOLECULE
guest-s18_confgen4.mol2 : confsearch ligand conformer 197
          16          15           1
SMALL
USER_CHARGES
 
@<TRIPOS>ATOM
       1    C1      20.048479   19.710683   20.103290 C.2        1 MOL1         0.6075
       2    O1      19.448710   20.643682   19.606728 O.co2      1 MOL1        -0.6830
       3    O2      20.124320   18.612610   19.588718 O.co2      1 MOL1        -0.6830
       4    C2      20.772437   19.943073   21.426779 C.3        1 MOL1        -0.2050
       5    H1      21.382556   20.846372   21.309793 H          1 MOL1         0.0710
       6    H2      21.471879   19.116241   21.595237 H          1 MOL1         0.0710
       7    C3      19.826990   20.117612   22.646756 C.3        1 MOL1        -0.1947
       8    H3      20.426176   20.358736   23.535128 H          1 MOL1         0.0712
       9    H4      19.177551   20.985807   22.468370 H          1 MOL1         0.0712
      10    C4      18.941817   18.885119   22.949115 C.3        1 MOL1        -0.1921
      11    H5      18.311286   18.654429   22.079166 H          1 MOL1         0.0712
      12    H6      18.256065   19.136540   23.769883 H          1 MOL1         0.0712
      13    C5      19.754813   17.634219   23.345006 C.3        1 MOL1        -0.2936
      14    H7      20.364854   17.274289   22.506682 H          1 MOL1         0.0724
      15    H8      19.083106   16.817967   23.640645 H          1 MOL1         0.0724
      16    H9      20.420562   17.848368   24.191165 H          1 MOL1         0.0724
@<TRIPOS>BOND
    1     1     2    1
    2     1     3    2
    3     1     4    1
    4     4     5    1
    5     4     6    1
    6     4     7    1
    7     7     8    1
    8     7     9    1
    9     7    10    1
   10    10    11    1
   11    10    12    1
   12    10    13    1
   13    13    14    1
   14    13    15    1
   15    13    16    1
@<TRIPOS>SUBSTRUCTURE
       1 MOL1            1 RESIDUE      1      MOL     
@<SCITEGIC>MOL_PROPERTY
VConf Rank
SciTegic.value.IntegerValue
197

@<SCITEGIC>MOL_PROPERTY
Conf_Id
SciTegic.value.IntegerValue
37

@<SCITEGIC>MOL_PROPERTY
Delta U+W
SciTegic.value.DoubleValue
1.063

@<SCITEGIC>MOL_PROPERTY
U+W
SciTegic.value.DoubleValue
-55.841

@<SCITEGIC>MOL_PROPERTY
Grad RMS
SciTegic.value.DoubleValue
0.000000

@<SCITEGIC>MOL_PROPERTY
U
SciTegic.value.DoubleValue
9.719

@<SCITEGIC>MOL_PROPERTY
W
SciTegic.value.DoubleValue
-65.560

@<SCITEGIC>MOL_PROPERTY
W(PB)
SciTegic.value.DoubleValue
-67.414

@<SCITEGIC>MOL_PROPERTY
W(SA)
SciTegic.value.DoubleValue
1.854

@<SCITEGIC>MOL_PROPERTY
Valence
SciTegic.value.DoubleValue
7.002

@<SCITEGIC>MOL_PROPERTY
Coulomb
SciTegic.value.DoubleValue
2.402

@<SCITEGIC>MOL_PROPERTY
VdW
SciTegic.value.DoubleValue
0.314

@<SCITEGIC>MOL_PROPERTY
VdW6
SciTegic.value.DoubleValue
-5.861

@<SCITEGIC>MOL_PROPERTY
VdW12
SciTegic.value.DoubleValue
6.175

@<SCITEGIC>MOL_PROPERTY
Bond
SciTegic.value.DoubleValue
0.134

@<SCITEGIC>MOL_PROPERTY
Angle
SciTegic.value.DoubleValue
2.733

@<SCITEGIC>MOL_PROPERTY
Pdih
SciTegic.value.DoubleValue
4.133

@<SCITEGIC>MOL_PROPERTY
Idih
SciTegic.value.DoubleValue
0.002

@<SCITEGIC>MOL_PROPERTY
Tether
SciTegic.value.DoubleValue
0.000

@<TRIPOS>MOLECULE
guest-s18_confgen4.mol2 : confsearch ligand conformer 198
          16          15           1
SMALL
USER_CHARGES
 
@<TRIPOS>ATOM
       1    C1      20.281881   19.187713   20.029755 C.2        1 MOL1         0.6075
       2    O1      20.521696   18.205473   19.355605 O.co2      1 MOL1        -0.6830
       3    O2      19.400658   19.981952   19.767211 O.co2      1 MOL1        -0.6830
       4    C2      21.158052   19.453898   21.250910 C.3        1 MOL1        -0.2050
       5    H1      20.999594   20.487519   21.579188 H          1 MOL1         0.0710
       6    H2      22.202084   19.389400   20.922705 H          1 MOL1         0.0710
       7    C3      20.928251   18.464801   22.426307 C.3        1 MOL1        -0.1947
       8    H3      21.147548   17.446000   22.078015 H          1 MOL1         0.0712
       9    H4      21.651571   18.679667   23.224437 H          1 MOL1         0.0712
      10    C4      19.497499   18.494705   23.014564 C.3        1 MOL1        -0.1921
      11    H5      19.413486   17.708270   23.777184 H          1 MOL1         0.0712
      12    H6      18.765968   18.246743   22.232915 H          1 MOL1         0.0712
      13    C5      19.130850   19.850440   23.654873 C.3        1 MOL1        -0.2936
      14    H7      19.867347   20.138819   24.416105 H          1 MOL1         0.0724
      15    H8      18.147739   19.792285   24.139611 H          1 MOL1         0.0724
      16    H9      19.082075   20.646463   22.900913 H          1 MOL1         0.0724
@<TRIPOS>BOND
    1     1     2    1
    2     1     3    2
    3     1     4    1
    4     4     5    1
    5     4     6    1
    6     4     7    1
    7     7     8    1
    8     7     9    1
    9     7    10    1
   10    10    11    1
   11    10    12    1
   12    10    13    1
   13    13    14    1
   14    13    15    1
   15    13    16    1
@<TRIPOS>SUBSTRUCTURE
       1 MOL1            1 RESIDUE      1      MOL     
@<SCITEGIC>MOL_PROPERTY
VConf Rank
SciTegic.value.IntegerValue
198

@<SCITEGIC>MOL_PROPERTY
Conf_Id
SciTegic.value.IntegerValue
39

@<SCITEGIC>MOL_PROPERTY
Delta U+W
SciTegic.value.DoubleValue
1.129

@<SCITEGIC>MOL_PROPERTY
U+W
SciTegic.value.DoubleValue
-55.775

@<SCITEGIC>MOL_PROPERTY
Grad RMS
SciTegic.value.DoubleValue
0.000000

@<SCITEGIC>MOL_PROPERTY
U
SciTegic.value.DoubleValue
9.718

@<SCITEGIC>MOL_PROPERTY
W
SciTegic.value.DoubleValue
-65.493

@<SCITEGIC>MOL_PROPERTY
W(PB)
SciTegic.value.DoubleValue
-67.361

@<SCITEGIC>MOL_PROPERTY
W(SA)
SciTegic.value.DoubleValue
1.869

@<SCITEGIC>MOL_PROPERTY
Valence
SciTegic.value.DoubleValue
7.002

@<SCITEGIC>MOL_PROPERTY
Coulomb
SciTegic.value.DoubleValue
2.402

@<SCITEGIC>MOL_PROPERTY
VdW
SciTegic.value.DoubleValue
0.314

@<SCITEGIC>MOL_PROPERTY
VdW6
SciTegic.value.DoubleValue
-5.861

@<SCITEGIC>MOL_PROPERTY
VdW12
SciTegic.value.DoubleValue
6.175

@<SCITEGIC>MOL_PROPERTY
Bond
SciTegic.value.DoubleValue
0.134

@<SCITEGIC>MOL_PROPERTY
Angle
SciTegic.value.DoubleValue
2.734

@<SCITEGIC>MOL_PROPERTY
Pdih
SciTegic.value.DoubleValue
4.133

@<SCITEGIC>MOL_PROPERTY
Idih
SciTegic.value.DoubleValue
0.002

@<SCITEGIC>MOL_PROPERTY
Tether
SciTegic.value.DoubleValue
0.000

@<TRIPOS>MOLECULE
guest-s18_confgen4.mol2 : confsearch ligand conformer 199
          16          15           1
SMALL
USER_CHARGES
 
@<TRIPOS>ATOM
       1    C1      19.766484   17.487825   21.074379 C.2        1 MOL1         0.6075
       2    O1      20.724196   16.752794   21.213439 O.co2      1 MOL1        -0.6830
       3    O2      19.352656   17.848934   19.990172 O.co2      1 MOL1        -0.6830
       4    C2      18.990566   17.904934   22.322429 C.3        1 MOL1        -0.2050
       5    H1      19.446662   17.432199   23.200766 H          1 MOL1         0.0710
       6    H2      17.987483   17.474578   22.220606 H          1 MOL1         0.0710
       7    C3      18.861752   19.438458   22.543095 C.3        1 MOL1        -0.1947
       8    H3      18.599786   19.932249   21.597005 H          1 MOL1         0.0712
       9    H4      18.014967   19.613488   23.220422 H          1 MOL1         0.0712
      10    C4      20.109997   20.109779   23.165006 C.3        1 MOL1        -0.1921
      11    H5      20.369722   19.612059   24.109489 H          1 MOL1         0.0712
      12    H6      19.854328   21.146768   23.423040 H          1 MOL1         0.0712
      13    C5      21.338903   20.127039   22.232387 C.3        1 MOL1        -0.2936
      14    H7      21.736115   19.116666   22.076285 H          1 MOL1         0.0724
      15    H8      22.143057   20.733849   22.668147 H          1 MOL1         0.0724
      16    H9      21.084615   20.553198   21.253073 H          1 MOL1         0.0724
@<TRIPOS>BOND
    1     1     2    1
    2     1     3    2
    3     1     4    1
    4     4     5    1
    5     4     6    1
    6     4     7    1
    7     7     8    1
    8     7     9    1
    9     7    10    1
   10    10    11    1
   11    10    12    1
   12    10    13    1
   13    13    14    1
   14    13    15    1
   15    13    16    1
@<TRIPOS>SUBSTRUCTURE
       1 MOL1            1 RESIDUE      1      MOL     
@<SCITEGIC>MOL_PROPERTY
VConf Rank
SciTegic.value.IntegerValue
199

@<SCITEGIC>MOL_PROPERTY
Conf_Id
SciTegic.value.IntegerValue
47

@<SCITEGIC>MOL_PROPERTY
Delta U+W
SciTegic.value.DoubleValue
2.301

@<SCITEGIC>MOL_PROPERTY
U+W
SciTegic.value.DoubleValue
-54.603

@<SCITEGIC>MOL_PROPERTY
Grad RMS
SciTegic.value.DoubleValue
0.000000

@<SCITEGIC>MOL_PROPERTY
U
SciTegic.value.DoubleValue
11.258

@<SCITEGIC>MOL_PROPERTY
W
SciTegic.value.DoubleValue
-65.861

@<SCITEGIC>MOL_PROPERTY
W(PB)
SciTegic.value.DoubleValue
-67.702

@<SCITEGIC>MOL_PROPERTY
W(SA)
SciTegic.value.DoubleValue
1.841

@<SCITEGIC>MOL_PROPERTY
Valence
SciTegic.value.DoubleValue
8.169

@<SCITEGIC>MOL_PROPERTY
Coulomb
SciTegic.value.DoubleValue
2.735

@<SCITEGIC>MOL_PROPERTY
VdW
SciTegic.value.DoubleValue
0.355

@<SCITEGIC>MOL_PROPERTY
VdW6
SciTegic.value.DoubleValue
-6.245

@<SCITEGIC>MOL_PROPERTY
VdW12
SciTegic.value.DoubleValue
6.600

@<SCITEGIC>MOL_PROPERTY
Bond
SciTegic.value.DoubleValue
0.149

@<SCITEGIC>MOL_PROPERTY
Angle
SciTegic.value.DoubleValue
3.168

@<SCITEGIC>MOL_PROPERTY
Pdih
SciTegic.value.DoubleValue
4.840

@<SCITEGIC>MOL_PROPERTY
Idih
SciTegic.value.DoubleValue
0.011

@<SCITEGIC>MOL_PROPERTY
Tether
SciTegic.value.DoubleValue
0.000

@<TRIPOS>MOLECULE
guest-s18_confgen4.mol2 : confsearch ligand conformer 200
          16          15           1
SMALL
USER_CHARGES
 
@<TRIPOS>ATOM
       1    C1      20.093379   17.937643   23.863192 C.2        1 MOL1         0.6075
       2    O1      21.069297   17.232584   23.696952 O.co2      1 MOL1        -0.6830
       3    O2      19.020800   17.514839   24.247416 O.co2      1 MOL1        -0.6830
       4    C2      20.245675   19.444853   23.666241 C.3        1 MOL1        -0.2050
       5    H1      20.990363   19.778255   24.398383 H          1 MOL1         0.0710
       6    H2      19.302238   19.936681   23.932717 H          1 MOL1         0.0710
       7    C3      20.700425   19.886862   22.246797 C.3        1 MOL1        -0.1947
       8    H3      21.117201   20.900122   22.324600 H          1 MOL1         0.0712
       9    H4      21.523805   19.246529   21.901023 H          1 MOL1         0.0712
      10    C4      19.572633   19.920623   21.187313 C.3        1 MOL1        -0.1921
      11    H5      19.965456   20.394125   20.276939 H          1 MOL1         0.0712
      12    H6      18.750753   20.560225   21.537533 H          1 MOL1         0.0712
      13    C5      19.023890   18.527401   20.815698 C.3        1 MOL1        -0.2936
      14    H7      18.332163   18.601171   19.966675 H          1 MOL1         0.0724
      15    H8      18.473090   18.079063   21.651529 H          1 MOL1         0.0724
      16    H9      19.836987   17.846041   20.532940 H          1 MOL1         0.0724
@<TRIPOS>BOND
    1     1     2    1
    2     1     3    2
    3     1     4    1
    4     4     5    1
    5     4     6    1
    6     4     7    1
    7     7     8    1
    8     7     9    1
    9     7    10    1
   10    10    11    1
   11    10    12    1
   12    10    13    1
   13    13    14    1
   14    13    15    1
   15    13    16    1
@<TRIPOS>SUBSTRUCTURE
       1 MOL1            1 RESIDUE      1      MOL     
@<SCITEGIC>MOL_PROPERTY
VConf Rank
SciTegic.value.IntegerValue
200

@<SCITEGIC>MOL_PROPERTY
Conf_Id
SciTegic.value.IntegerValue
45

@<SCITEGIC>MOL_PROPERTY
Delta U+W
SciTegic.value.DoubleValue
2.303

@<SCITEGIC>MOL_PROPERTY
U+W
SciTegic.value.DoubleValue
-54.601

@<SCITEGIC>MOL_PROPERTY
Grad RMS
SciTegic.value.DoubleValue
0.000000

@<SCITEGIC>MOL_PROPERTY
U
SciTegic.value.DoubleValue
11.258

@<SCITEGIC>MOL_PROPERTY
W
SciTegic.value.DoubleValue
-65.860

@<SCITEGIC>MOL_PROPERTY
W(PB)
SciTegic.value.DoubleValue
-67.709

@<SCITEGIC>MOL_PROPERTY
W(SA)
SciTegic.value.DoubleValue
1.849

@<SCITEGIC>MOL_PROPERTY
Valence
SciTegic.value.DoubleValue
8.169

@<SCITEGIC>MOL_PROPERTY
Coulomb
SciTegic.value.DoubleValue
2.735

@<SCITEGIC>MOL_PROPERTY
VdW
SciTegic.value.DoubleValue
0.355

@<SCITEGIC>MOL_PROPERTY
VdW6
SciTegic.value.DoubleValue
-6.245

@<SCITEGIC>MOL_PROPERTY
VdW12
SciTegic.value.DoubleValue
6.600

@<SCITEGIC>MOL_PROPERTY
Bond
SciTegic.value.DoubleValue
0.149

@<SCITEGIC>MOL_PROPERTY
Angle
SciTegic.value.DoubleValue
3.168

@<SCITEGIC>MOL_PROPERTY
Pdih
SciTegic.value.DoubleValue
4.840

@<SCITEGIC>MOL_PROPERTY
Idih
SciTegic.value.DoubleValue
0.011

@<SCITEGIC>MOL_PROPERTY
Tether
SciTegic.value.DoubleValue
0.000

@<TRIPOS>MOLECULE
guest-s18_confgen4.mol2 : confsearch ligand conformer 201
          16          15           1
SMALL
USER_CHARGES
 
@<TRIPOS>ATOM
       1    C1      20.381674   21.805620   21.417192 C.2        1 MOL1         0.6075
       2    O1      19.852358   21.771149   20.323385 O.co2      1 MOL1        -0.6830
       3    O2      20.847361   22.820189   21.895834 O.co2      1 MOL1        -0.6830
       4    C2      20.481793   20.528964   22.253864 C.3        1 MOL1        -0.2050
       5    H1      19.986280   20.725869   23.211913 H          1 MOL1         0.0710
       6    H2      21.543590   20.361999   22.470362 H          1 MOL1         0.0710
       7    C3      19.874377   19.258544   21.601618 C.3        1 MOL1        -0.1947
       8    H3      18.812030   19.433734   21.382079 H          1 MOL1         0.0712
       9    H4      20.370955   19.069483   20.639778 H          1 MOL1         0.0712
      10    C4      20.018944   18.021264   22.512385 C.3        1 MOL1        -0.1921
      11    H5      19.521216   18.208369   23.474028 H          1 MOL1         0.0712
      12    H6      21.081073   17.843891   22.731291 H          1 MOL1         0.0712
      13    C5      19.413904   16.762913   21.859222 C.3        1 MOL1        -0.2936
      14    H7      18.343512   16.901128   21.657663 H          1 MOL1         0.0724
      15    H8      19.524986   15.892910   22.519447 H          1 MOL1         0.0724
      16    H9      19.914874   16.533955   20.909445 H          1 MOL1         0.0724
@<TRIPOS>BOND
    1     1     2    1
    2     1     3    2
    3     1     4    1
    4     4     5    1
    5     4     6    1
    6     4     7    1
    7     7     8    1
    8     7     9    1
    9     7    10    1
   10    10    11    1
   11    10    12    1
   12    10    13    1
   13    13    14    1
   14    13    15    1
   15    13    16    1
@<TRIPOS>SUBSTRUCTURE
       1 MOL1            1 RESIDUE      1      MOL     
@<SCITEGIC>MOL_PROPERTY
VConf Rank
SciTegic.value.IntegerValue
201

@<SCITEGIC>MOL_PROPERTY
Conf_Id
SciTegic.value.IntegerValue
0

@<SCITEGIC>MOL_PROPERTY
Delta U+W
SciTegic.value.DoubleValue
0.000

@<SCITEGIC>MOL_PROPERTY
U+W
SciTegic.value.DoubleValue
-56.904

@<SCITEGIC>MOL_PROPERTY
Grad RMS
SciTegic.value.DoubleValue
0.000000

@<SCITEGIC>MOL_PROPERTY
U
SciTegic.value.DoubleValue
7.329

@<SCITEGIC>MOL_PROPERTY
W
SciTegic.value.DoubleValue
-64.233

@<SCITEGIC>MOL_PROPERTY
W(PB)
SciTegic.value.DoubleValue
-66.148

@<SCITEGIC>MOL_PROPERTY
W(SA)
SciTegic.value.DoubleValue
1.915

@<SCITEGIC>MOL_PROPERTY
Valence
SciTegic.value.DoubleValue
6.755

@<SCITEGIC>MOL_PROPERTY
Coulomb
SciTegic.value.DoubleValue
-0.421

@<SCITEGIC>MOL_PROPERTY
VdW
SciTegic.value.DoubleValue
0.995

@<SCITEGIC>MOL_PROPERTY
VdW6
SciTegic.value.DoubleValue
-4.495

@<SCITEGIC>MOL_PROPERTY
VdW12
SciTegic.value.DoubleValue
5.490

@<SCITEGIC>MOL_PROPERTY
Bond
SciTegic.value.DoubleValue
0.106

@<SCITEGIC>MOL_PROPERTY
Angle
SciTegic.value.DoubleValue
2.715

@<SCITEGIC>MOL_PROPERTY
Pdih
SciTegic.value.DoubleValue
3.934

@<SCITEGIC>MOL_PROPERTY
Idih
SciTegic.value.DoubleValue
0.000

@<SCITEGIC>MOL_PROPERTY
Tether
SciTegic.value.DoubleValue
0.000

@<TRIPOS>MOLECULE
guest-s18_confgen4.mol2 : confsearch ligand conformer 202
          16          15           1
SMALL
USER_CHARGES
 
@<TRIPOS>ATOM
       1    C1      18.272437   17.083694   21.499407 C.2        1 MOL1         0.6075
       2    O1      17.101578   17.397131   21.581190 O.co2      1 MOL1        -0.6830
       3    O2      18.683248   16.204558   20.768518 O.co2      1 MOL1        -0.6830
       4    C2      19.283822   17.847575   22.346856 C.3        1 MOL1        -0.2050
       5    H1      20.095820   17.159516   22.611589 H          1 MOL1         0.0710
       6    H2      18.791804   18.142828   23.281518 H          1 MOL1         0.0710
       7    C3      19.854070   19.094351   21.626837 C.3        1 MOL1        -0.1947
       8    H3      20.332323   18.784007   20.687416 H          1 MOL1         0.0712
       9    H4      19.028240   19.767339   21.357310 H          1 MOL1         0.0712
      10    C4      20.873954   19.848415   22.505351 C.3        1 MOL1        -0.1921
      11    H5      21.700305   19.175938   22.774529 H          1 MOL1         0.0712
      12    H6      20.395893   20.159494   23.444619 H          1 MOL1         0.0712
      13    C5      21.437191   21.087890   21.782465 C.3        1 MOL1        -0.2936
      14    H7      20.634813   21.793166   21.528997 H          1 MOL1         0.0724
      15    H8      21.948839   20.802346   20.853944 H          1 MOL1         0.0724
      16    H9      22.160407   21.612344   22.420476 H          1 MOL1         0.0724
@<TRIPOS>BOND
    1     1     2    1
    2     1     3    2
    3     1     4    1
    4     4     5    1
    5     4     6    1
    6     4     7    1
    7     7     8    1
    8     7     9    1
    9     7    10    1
   10    10    11    1
   11    10    12    1
   12    10    13    1
   13    13    14    1
   14    13    15    1
   15    13    16    1
@<TRIPOS>SUBSTRUCTURE
       1 MOL1            1 RESIDUE      1      MOL     
@<SCITEGIC>MOL_PROPERTY
VConf Rank
SciTegic.value.IntegerValue
202

@<SCITEGIC>MOL_PROPERTY
Conf_Id
SciTegic.value.IntegerValue
22

@<SCITEGIC>MOL_PROPERTY
Delta U+W
SciTegic.value.DoubleValue
-1.185

@<SCITEGIC>MOL_PROPERTY
U+W
SciTegic.value.DoubleValue
-58.089

@<SCITEGIC>MOL_PROPERTY
Grad RMS
SciTegic.value.DoubleValue
0.000000

@<SCITEGIC>MOL_PROPERTY
U
SciTegic.value.DoubleValue
6.298

@<SCITEGIC>MOL_PROPERTY
W
SciTegic.value.DoubleValue
-64.387

@<SCITEGIC>MOL_PROPERTY
W(PB)
SciTegic.value.DoubleValue
-66.329

@<SCITEGIC>MOL_PROPERTY
W(SA)
SciTegic.value.DoubleValue
1.942

@<SCITEGIC>MOL_PROPERTY
Valence
SciTegic.value.DoubleValue
6.246

@<SCITEGIC>MOL_PROPERTY
Coulomb
SciTegic.value.DoubleValue
-0.408

@<SCITEGIC>MOL_PROPERTY
VdW
SciTegic.value.DoubleValue
0.460

@<SCITEGIC>MOL_PROPERTY
VdW6
SciTegic.value.DoubleValue
-4.207

@<SCITEGIC>MOL_PROPERTY
VdW12
SciTegic.value.DoubleValue
4.667

@<SCITEGIC>MOL_PROPERTY
Bond
SciTegic.value.DoubleValue
0.072

@<SCITEGIC>MOL_PROPERTY
Angle
SciTegic.value.DoubleValue
2.246

@<SCITEGIC>MOL_PROPERTY
Pdih
SciTegic.value.DoubleValue
3.928

@<SCITEGIC>MOL_PROPERTY
Idih
SciTegic.value.DoubleValue
0.001

@<SCITEGIC>MOL_PROPERTY
Tether
SciTegic.value.DoubleValue
0.000

@<TRIPOS>MOLECULE
guest-s18_confgen4.mol2 : confsearch ligand conformer 203
          16          15           1
SMALL
USER_CHARGES
 
@<TRIPOS>ATOM
       1    C1      20.556183   18.994384   24.504099 C.2        1 MOL1         0.6075
       2    O1      19.861661   18.395086   25.300638 O.co2      1 MOL1        -0.6830
       3    O2      21.349588   19.857960   24.821437 O.co2      1 MOL1        -0.6830
       4    C2      20.409293   18.658253   23.024230 C.3        1 MOL1        -0.2050
       5    H1      20.154568   17.594945   22.940221 H          1 MOL1         0.0710
       6    H2      21.388180   18.796432   22.551152 H          1 MOL1         0.0710
       7    C3      19.334536   19.522697   22.315266 C.3        1 MOL1        -0.1947
       8    H3      18.387557   19.429620   22.864807 H          1 MOL1         0.0712
       9    H4      19.622087   20.581820   22.368938 H          1 MOL1         0.0712
      10    C4      19.095233   19.120610   20.841676 C.3        1 MOL1        -0.1921
      11    H5      18.249945   19.702860   20.449525 H          1 MOL1         0.0712
      12    H6      18.796227   18.064590   20.788781 H          1 MOL1         0.0712
      13    C5      20.324555   19.357923   19.938690 C.3        1 MOL1        -0.2936
      14    H7      21.162709   18.709993   20.224113 H          1 MOL1         0.0724
      15    H8      20.659730   20.401681   19.997659 H          1 MOL1         0.0724
      16    H9      20.078665   19.140718   18.891136 H          1 MOL1         0.0724
@<TRIPOS>BOND
    1     1     2    1
    2     1     3    2
    3     1     4    1
    4     4     5    1
    5     4     6    1
    6     4     7    1
    7     7     8    1
    8     7     9    1
    9     7    10    1
   10    10    11    1
   11    10    12    1
   12    10    13    1
   13    13    14    1
   14    13    15    1
   15    13    16    1
@<TRIPOS>SUBSTRUCTURE
       1 MOL1            1 RESIDUE      1      MOL     
@<SCITEGIC>MOL_PROPERTY
VConf Rank
SciTegic.value.IntegerValue
203

@<SCITEGIC>MOL_PROPERTY
Conf_Id
SciTegic.value.IntegerValue
36

@<SCITEGIC>MOL_PROPERTY
Delta U+W
SciTegic.value.DoubleValue
-0.427

@<SCITEGIC>MOL_PROPERTY
U+W
SciTegic.value.DoubleValue
-57.331

@<SCITEGIC>MOL_PROPERTY
Grad RMS
SciTegic.value.DoubleValue
0.000000

@<SCITEGIC>MOL_PROPERTY
U
SciTegic.value.DoubleValue
7.263

@<SCITEGIC>MOL_PROPERTY
W
SciTegic.value.DoubleValue
-64.594

@<SCITEGIC>MOL_PROPERTY
W(PB)
SciTegic.value.DoubleValue
-66.513

@<SCITEGIC>MOL_PROPERTY
W(SA)
SciTegic.value.DoubleValue
1.920

@<SCITEGIC>MOL_PROPERTY
Valence
SciTegic.value.DoubleValue
6.734

@<SCITEGIC>MOL_PROPERTY
Coulomb
SciTegic.value.DoubleValue
-0.068

@<SCITEGIC>MOL_PROPERTY
VdW
SciTegic.value.DoubleValue
0.598

@<SCITEGIC>MOL_PROPERTY
VdW6
SciTegic.value.DoubleValue
-4.819

@<SCITEGIC>MOL_PROPERTY
VdW12
SciTegic.value.DoubleValue
5.417

@<SCITEGIC>MOL_PROPERTY
Bond
SciTegic.value.DoubleValue
0.107

@<SCITEGIC>MOL_PROPERTY
Angle
SciTegic.value.DoubleValue
2.469

@<SCITEGIC>MOL_PROPERTY
Pdih
SciTegic.value.DoubleValue
4.157

@<SCITEGIC>MOL_PROPERTY
Idih
SciTegic.value.DoubleValue
0.001

@<SCITEGIC>MOL_PROPERTY
Tether
SciTegic.value.DoubleValue
0.000

@<TRIPOS>MOLECULE
guest-s18_confgen4.mol2 : confsearch ligand conformer 204
          16          15           1
SMALL
USER_CHARGES
 
@<TRIPOS>ATOM
       1    C1      22.436817   18.605409   21.442891 C.2        1 MOL1         0.6075
       2    O1      22.900307   17.812055   22.237702 O.co2      1 MOL1        -0.6830
       3    O2      23.116496   19.321706   20.735113 O.co2      1 MOL1        -0.6830
       4    C2      20.920053   18.723165   21.342231 C.3        1 MOL1        -0.2050
       5    H1      20.493868   17.733188   21.540797 H          1 MOL1         0.0710
       6    H2      20.666741   18.984885   20.307870 H          1 MOL1         0.0710
       7    C3      20.332683   19.775134   22.318630 C.3        1 MOL1        -0.1947
       8    H3      20.555949   19.479930   23.353191 H          1 MOL1         0.0712
       9    H4      20.842088   20.734466   22.152447 H          1 MOL1         0.0712
      10    C4      18.810044   19.986037   22.152805 C.3        1 MOL1        -0.1921
      11    H5      18.587808   20.292658   21.121314 H          1 MOL1         0.0712
      12    H6      18.496303   20.817792   22.798605 H          1 MOL1         0.0712
      13    C5      17.979591   18.735631   22.513032 C.3        1 MOL1        -0.2936
      14    H7      18.177644   17.909232   21.819042 H          1 MOL1         0.0724
      15    H8      16.906318   18.960713   22.463728 H          1 MOL1         0.0724
      16    H9      18.206576   18.393139   23.531083 H          1 MOL1         0.0724
@<TRIPOS>BOND
    1     1     2    1
    2     1     3    2
    3     1     4    1
    4     4     5    1
    5     4     6    1
    6     4     7    1
    7     7     8    1
    8     7     9    1
    9     7    10    1
   10    10    11    1
   11    10    12    1
   12    10    13    1
   13    13    14    1
   14    13    15    1
   15    13    16    1
@<TRIPOS>SUBSTRUCTURE
       1 MOL1            1 RESIDUE      1      MOL     
@<SCITEGIC>MOL_PROPERTY
VConf Rank
SciTegic.value.IntegerValue
204

@<SCITEGIC>MOL_PROPERTY
Conf_Id
SciTegic.value.IntegerValue
17

@<SCITEGIC>MOL_PROPERTY
Delta U+W
SciTegic.value.DoubleValue
-0.432

@<SCITEGIC>MOL_PROPERTY
U+W
SciTegic.value.DoubleValue
-57.336

@<SCITEGIC>MOL_PROPERTY
Grad RMS
SciTegic.value.DoubleValue
0.000000

@<SCITEGIC>MOL_PROPERTY
U
SciTegic.value.DoubleValue
7.263

@<SCITEGIC>MOL_PROPERTY
W
SciTegic.value.DoubleValue
-64.599

@<SCITEGIC>MOL_PROPERTY
W(PB)
SciTegic.value.DoubleValue
-66.503

@<SCITEGIC>MOL_PROPERTY
W(SA)
SciTegic.value.DoubleValue
1.904

@<SCITEGIC>MOL_PROPERTY
Valence
SciTegic.value.DoubleValue
6.734

@<SCITEGIC>MOL_PROPERTY
Coulomb
SciTegic.value.DoubleValue
-0.068

@<SCITEGIC>MOL_PROPERTY
VdW
SciTegic.value.DoubleValue
0.598

@<SCITEGIC>MOL_PROPERTY
VdW6
SciTegic.value.DoubleValue
-4.819

@<SCITEGIC>MOL_PROPERTY
VdW12
SciTegic.value.DoubleValue
5.417

@<SCITEGIC>MOL_PROPERTY
Bond
SciTegic.value.DoubleValue
0.107

@<SCITEGIC>MOL_PROPERTY
Angle
SciTegic.value.DoubleValue
2.469

@<SCITEGIC>MOL_PROPERTY
Pdih
SciTegic.value.DoubleValue
4.157

@<SCITEGIC>MOL_PROPERTY
Idih
SciTegic.value.DoubleValue
0.001

@<SCITEGIC>MOL_PROPERTY
Tether
SciTegic.value.DoubleValue
0.000

@<TRIPOS>MOLECULE
guest-s18_confgen4.mol2 : confsearch ligand conformer 205
          16          15           1
SMALL
USER_CHARGES
 
@<TRIPOS>ATOM
       1    C1      18.459286   17.477599   21.878923 C.2        1 MOL1         0.6075
       2    O1      17.375645   17.824326   22.305357 O.co2      1 MOL1        -0.6830
       3    O2      18.618785   16.964843   20.789013 O.co2      1 MOL1        -0.6830
       4    C2      19.681143   17.675824   22.771819 C.3        1 MOL1        -0.2050
       5    H1      20.485528   17.020606   22.415816 H          1 MOL1         0.0710
       6    H2      19.412485   17.330324   23.777148 H          1 MOL1         0.0710
       7    C3      20.179152   19.142672   22.845149 C.3        1 MOL1        -0.1947
       8    H3      19.355480   19.790822   23.175438 H          1 MOL1         0.0712
       9    H4      20.964315   19.214680   23.609932 H          1 MOL1         0.0712
      10    C4      20.734730   19.649321   21.496511 C.3        1 MOL1        -0.1921
      11    H5      19.951047   19.601092   20.727590 H          1 MOL1         0.0712
      12    H6      21.549892   18.993091   21.161473 H          1 MOL1         0.0712
      13    C5      21.253435   21.096862   21.605650 C.3        1 MOL1        -0.2936
      14    H7      20.449435   21.779932   21.909706 H          1 MOL1         0.0724
      15    H8      21.643666   21.441558   20.639202 H          1 MOL1         0.0724
      16    H9      22.063077   21.169729   22.343612 H          1 MOL1         0.0724
@<TRIPOS>BOND
    1     1     2    1
    2     1     3    2
    3     1     4    1
    4     4     5    1
    5     4     6    1
    6     4     7    1
    7     7     8    1
    8     7     9    1
    9     7    10    1
   10    10    11    1
   11    10    12    1
   12    10    13    1
   13    13    14    1
   14    13    15    1
   15    13    16    1
@<TRIPOS>SUBSTRUCTURE
       1 MOL1            1 RESIDUE      1      MOL     
@<SCITEGIC>MOL_PROPERTY
VConf Rank
SciTegic.value.IntegerValue
205

@<SCITEGIC>MOL_PROPERTY
Conf_Id
SciTegic.value.IntegerValue
19

@<SCITEGIC>MOL_PROPERTY
Delta U+W
SciTegic.value.DoubleValue
0.048

@<SCITEGIC>MOL_PROPERTY
U+W
SciTegic.value.DoubleValue
-56.856

@<SCITEGIC>MOL_PROPERTY
Grad RMS
SciTegic.value.DoubleValue
0.000000

@<SCITEGIC>MOL_PROPERTY
U
SciTegic.value.DoubleValue
8.276

@<SCITEGIC>MOL_PROPERTY
W
SciTegic.value.DoubleValue
-65.132

@<SCITEGIC>MOL_PROPERTY
W(PB)
SciTegic.value.DoubleValue
-67.031

@<SCITEGIC>MOL_PROPERTY
W(SA)
SciTegic.value.DoubleValue
1.899

@<SCITEGIC>MOL_PROPERTY
Valence
SciTegic.value.DoubleValue
6.513

@<SCITEGIC>MOL_PROPERTY
Coulomb
SciTegic.value.DoubleValue
1.428

@<SCITEGIC>MOL_PROPERTY
VdW
SciTegic.value.DoubleValue
0.335

@<SCITEGIC>MOL_PROPERTY
VdW6
SciTegic.value.DoubleValue
-5.021

@<SCITEGIC>MOL_PROPERTY
VdW12
SciTegic.value.DoubleValue
5.356

@<SCITEGIC>MOL_PROPERTY
Bond
SciTegic.value.DoubleValue
0.092

@<SCITEGIC>MOL_PROPERTY
Angle
SciTegic.value.DoubleValue
2.417

@<SCITEGIC>MOL_PROPERTY
Pdih
SciTegic.value.DoubleValue
4.003

@<SCITEGIC>MOL_PROPERTY
Idih
SciTegic.value.DoubleValue
0.001

@<SCITEGIC>MOL_PROPERTY
Tether
SciTegic.value.DoubleValue
0.000

@<TRIPOS>MOLECULE
guest-s18_confgen4.mol2 : confsearch ligand conformer 206
          16          15           1
SMALL
USER_CHARGES
 
@<TRIPOS>ATOM
       1    C1      17.828883   20.258028   21.581211 C.2        1 MOL1         0.6075
       2    O1      17.594585   21.207566   22.302198 O.co2      1 MOL1        -0.6830
       3    O2      17.019945   19.384871   21.337328 O.co2      1 MOL1        -0.6830
       4    C2      19.206233   20.171829   20.929309 C.3        1 MOL1        -0.2050
       5    H1      19.443088   21.165170   20.530050 H          1 MOL1         0.0710
       6    H2      19.145985   19.491328   20.071187 H          1 MOL1         0.0710
       7    C3      20.334273   19.719359   21.892553 C.3        1 MOL1        -0.1947
       8    H3      21.301215   19.819845   21.381197 H          1 MOL1         0.0712
       9    H4      20.363939   20.392791   22.760443 H          1 MOL1         0.0712
      10    C4      20.159562   18.260778   22.368167 C.3        1 MOL1        -0.1921
      11    H5      20.117649   17.589996   21.498874 H          1 MOL1         0.0712
      12    H6      19.203730   18.152872   22.899642 H          1 MOL1         0.0712
      13    C5      21.310922   17.826102   23.296487 C.3        1 MOL1        -0.2936
      14    H7      22.277776   17.890551   22.780295 H          1 MOL1         0.0724
      15    H8      21.171080   16.788294   23.625904 H          1 MOL1         0.0724
      16    H9      21.355933   18.462297   24.190176 H          1 MOL1         0.0724
@<TRIPOS>BOND
    1     1     2    1
    2     1     3    2
    3     1     4    1
    4     4     5    1
    5     4     6    1
    6     4     7    1
    7     7     8    1
    8     7     9    1
    9     7    10    1
   10    10    11    1
   11    10    12    1
   12    10    13    1
   13    13    14    1
   14    13    15    1
   15    13    16    1
@<TRIPOS>SUBSTRUCTURE
       1 MOL1            1 RESIDUE      1      MOL     
@<SCITEGIC>MOL_PROPERTY
VConf Rank
SciTegic.value.IntegerValue
206

@<SCITEGIC>MOL_PROPERTY
Conf_Id
SciTegic.value.IntegerValue
20

@<SCITEGIC>MOL_PROPERTY
Delta U+W
SciTegic.value.DoubleValue
-0.010

@<SCITEGIC>MOL_PROPERTY
U+W
SciTegic.value.DoubleValue
-56.914

@<SCITEGIC>MOL_PROPERTY
Grad RMS
SciTegic.value.DoubleValue
0.000000

@<SCITEGIC>MOL_PROPERTY
U
SciTegic.value.DoubleValue
8.277

@<SCITEGIC>MOL_PROPERTY
W
SciTegic.value.DoubleValue
-65.191

@<SCITEGIC>MOL_PROPERTY
W(PB)
SciTegic.value.DoubleValue
-67.081

@<SCITEGIC>MOL_PROPERTY
W(SA)
SciTegic.value.DoubleValue
1.890

@<SCITEGIC>MOL_PROPERTY
Valence
SciTegic.value.DoubleValue
6.513

@<SCITEGIC>MOL_PROPERTY
Coulomb
SciTegic.value.DoubleValue
1.429

@<SCITEGIC>MOL_PROPERTY
VdW
SciTegic.value.DoubleValue
0.335

@<SCITEGIC>MOL_PROPERTY
VdW6
SciTegic.value.DoubleValue
-5.021

@<SCITEGIC>MOL_PROPERTY
VdW12
SciTegic.value.DoubleValue
5.356

@<SCITEGIC>MOL_PROPERTY
Bond
SciTegic.value.DoubleValue
0.092

@<SCITEGIC>MOL_PROPERTY
Angle
SciTegic.value.DoubleValue
2.417

@<SCITEGIC>MOL_PROPERTY
Pdih
SciTegic.value.DoubleValue
4.002

@<SCITEGIC>MOL_PROPERTY
Idih
SciTegic.value.DoubleValue
0.001

@<SCITEGIC>MOL_PROPERTY
Tether
SciTegic.value.DoubleValue
0.000

@<TRIPOS>MOLECULE
guest-s18_confgen4.mol2 : confsearch ligand conformer 207
          16          15           1
SMALL
USER_CHARGES
 
@<TRIPOS>ATOM
       1    C1      17.740483   19.165430   21.837961 C.2        1 MOL1         0.6075
       2    O1      17.140164   20.121193   21.387493 O.co2      1 MOL1        -0.6830
       3    O2      17.362967   18.530966   22.802967 O.co2      1 MOL1        -0.6830
       4    C2      19.017991   18.719795   21.131472 C.3        1 MOL1        -0.2050
       5    H1      18.785209   18.630128   20.063926 H          1 MOL1         0.0710
       6    H2      19.278666   17.713048   21.477530 H          1 MOL1         0.0710
       7    C3      20.217491   19.689466   21.314814 C.3        1 MOL1        -0.1947
       8    H3      21.063413   19.334071   20.711090 H          1 MOL1         0.0712
       9    H4      19.941386   20.672718   20.909429 H          1 MOL1         0.0712
      10    C4      20.677329   19.864906   22.781702 C.3        1 MOL1        -0.1921
      11    H5      19.848751   20.253611   23.389950 H          1 MOL1         0.0712
      12    H6      21.468497   20.626560   22.814333 H          1 MOL1         0.0712
      13    C5      21.214268   18.561908   23.411252 C.3        1 MOL1        -0.2936
      14    H7      20.419717   17.811500   23.511574 H          1 MOL1         0.0724
      15    H8      21.614387   18.757208   24.414558 H          1 MOL1         0.0724
      16    H9      22.020881   18.133241   22.802411 H          1 MOL1         0.0724
@<TRIPOS>BOND
    1     1     2    1
    2     1     3    2
    3     1     4    1
    4     4     5    1
    5     4     6    1
    6     4     7    1
    7     7     8    1
    8     7     9    1
    9     7    10    1
   10    10    11    1
   11    10    12    1
   12    10    13    1
   13    13    14    1
   14    13    15    1
   15    13    16    1
@<TRIPOS>SUBSTRUCTURE
       1 MOL1            1 RESIDUE      1      MOL     
@<SCITEGIC>MOL_PROPERTY
VConf Rank
SciTegic.value.IntegerValue
207

@<SCITEGIC>MOL_PROPERTY
Conf_Id
SciTegic.value.IntegerValue
37

@<SCITEGIC>MOL_PROPERTY
Delta U+W
SciTegic.value.DoubleValue
1.063

@<SCITEGIC>MOL_PROPERTY
U+W
SciTegic.value.DoubleValue
-55.841

@<SCITEGIC>MOL_PROPERTY
Grad RMS
SciTegic.value.DoubleValue
0.000000

@<SCITEGIC>MOL_PROPERTY
U
SciTegic.value.DoubleValue
9.719

@<SCITEGIC>MOL_PROPERTY
W
SciTegic.value.DoubleValue
-65.560

@<SCITEGIC>MOL_PROPERTY
W(PB)
SciTegic.value.DoubleValue
-67.414

@<SCITEGIC>MOL_PROPERTY
W(SA)
SciTegic.value.DoubleValue
1.854

@<SCITEGIC>MOL_PROPERTY
Valence
SciTegic.value.DoubleValue
7.002

@<SCITEGIC>MOL_PROPERTY
Coulomb
SciTegic.value.DoubleValue
2.402

@<SCITEGIC>MOL_PROPERTY
VdW
SciTegic.value.DoubleValue
0.314

@<SCITEGIC>MOL_PROPERTY
VdW6
SciTegic.value.DoubleValue
-5.861

@<SCITEGIC>MOL_PROPERTY
VdW12
SciTegic.value.DoubleValue
6.175

@<SCITEGIC>MOL_PROPERTY
Bond
SciTegic.value.DoubleValue
0.134

@<SCITEGIC>MOL_PROPERTY
Angle
SciTegic.value.DoubleValue
2.733

@<SCITEGIC>MOL_PROPERTY
Pdih
SciTegic.value.DoubleValue
4.133

@<SCITEGIC>MOL_PROPERTY
Idih
SciTegic.value.DoubleValue
0.002

@<SCITEGIC>MOL_PROPERTY
Tether
SciTegic.value.DoubleValue
0.000

@<TRIPOS>MOLECULE
guest-s18_confgen4.mol2 : confsearch ligand conformer 208
          16          15           1
SMALL
USER_CHARGES
 
@<TRIPOS>ATOM
       1    C1      22.267056   18.873903   22.058753 C.2        1 MOL1         0.6075
       2    O1      23.009079   19.038617   23.006939 O.co2      1 MOL1        -0.6830
       3    O2      22.332928   17.915601   21.314698 O.co2      1 MOL1        -0.6830
       4    C2      21.220454   19.946503   21.769096 C.3        1 MOL1        -0.2050
       5    H1      20.831294   19.793981   20.755913 H          1 MOL1         0.0710
       6    H2      21.738440   20.912676   21.760118 H          1 MOL1         0.0710
       7    C3      20.059437   19.996958   22.799715 C.3        1 MOL1        -0.1947
       8    H3      20.478981   20.204564   23.793816 H          1 MOL1         0.0712
       9    H4      19.401813   20.843442   22.560205 H          1 MOL1         0.0712
      10    C4      19.215708   18.702114   22.873839 C.3        1 MOL1        -0.1921
      11    H5      18.479712   18.806873   23.682829 H          1 MOL1         0.0712
      12    H6      19.856825   17.852534   23.147297 H          1 MOL1         0.0712
      13    C5      18.469903   18.385539   21.560067 C.3        1 MOL1        -0.2936
      14    H7      17.848291   19.233883   21.245463 H          1 MOL1         0.0724
      15    H8      17.813920   17.515332   21.691541 H          1 MOL1         0.0724
      16    H9      19.172456   18.151629   20.750010 H          1 MOL1         0.0724
@<TRIPOS>BOND
    1     1     2    1
    2     1     3    2
    3     1     4    1
    4     4     5    1
    5     4     6    1
    6     4     7    1
    7     7     8    1
    8     7     9    1
    9     7    10    1
   10    10    11    1
   11    10    12    1
   12    10    13    1
   13    13    14    1
   14    13    15    1
   15    13    16    1
@<TRIPOS>SUBSTRUCTURE
       1 MOL1            1 RESIDUE      1      MOL     
@<SCITEGIC>MOL_PROPERTY
VConf Rank
SciTegic.value.IntegerValue
208

@<SCITEGIC>MOL_PROPERTY
Conf_Id
SciTegic.value.IntegerValue
39

@<SCITEGIC>MOL_PROPERTY
Delta U+W
SciTegic.value.DoubleValue
1.129

@<SCITEGIC>MOL_PROPERTY
U+W
SciTegic.value.DoubleValue
-55.775

@<SCITEGIC>MOL_PROPERTY
Grad RMS
SciTegic.value.DoubleValue
0.000000

@<SCITEGIC>MOL_PROPERTY
U
SciTegic.value.DoubleValue
9.718

@<SCITEGIC>MOL_PROPERTY
W
SciTegic.value.DoubleValue
-65.493

@<SCITEGIC>MOL_PROPERTY
W(PB)
SciTegic.value.DoubleValue
-67.361

@<SCITEGIC>MOL_PROPERTY
W(SA)
SciTegic.value.DoubleValue
1.869

@<SCITEGIC>MOL_PROPERTY
Valence
SciTegic.value.DoubleValue
7.002

@<SCITEGIC>MOL_PROPERTY
Coulomb
SciTegic.value.DoubleValue
2.402

@<SCITEGIC>MOL_PROPERTY
VdW
SciTegic.value.DoubleValue
0.314

@<SCITEGIC>MOL_PROPERTY
VdW6
SciTegic.value.DoubleValue
-5.861

@<SCITEGIC>MOL_PROPERTY
VdW12
SciTegic.value.DoubleValue
6.175

@<SCITEGIC>MOL_PROPERTY
Bond
SciTegic.value.DoubleValue
0.134

@<SCITEGIC>MOL_PROPERTY
Angle
SciTegic.value.DoubleValue
2.734

@<SCITEGIC>MOL_PROPERTY
Pdih
SciTegic.value.DoubleValue
4.133

@<SCITEGIC>MOL_PROPERTY
Idih
SciTegic.value.DoubleValue
0.002

@<SCITEGIC>MOL_PROPERTY
Tether
SciTegic.value.DoubleValue
0.000

@<TRIPOS>MOLECULE
guest-s18_confgen4.mol2 : confsearch ligand conformer 209
          16          15           1
SMALL
USER_CHARGES
 
@<TRIPOS>ATOM
       1    C1      21.785266   19.564181   21.834969 C.2        1 MOL1         0.6075
       2    O1      21.831891   20.466204   21.021949 O.co2      1 MOL1        -0.6830
       3    O2      22.436034   18.542299   21.737930 O.co2      1 MOL1        -0.6830
       4    C2      20.933697   19.765518   23.087147 C.3        1 MOL1        -0.2050
       5    H1      20.480645   20.763824   23.053871 H          1 MOL1         0.0710
       6    H2      21.627535   19.764611   23.935874 H          1 MOL1         0.0710
       7    C3      19.840567   18.686570   23.327811 C.3        1 MOL1        -0.1947
       8    H3      20.259084   17.684911   23.157331 H          1 MOL1         0.0712
       9    H4      19.558858   18.720272   24.388922 H          1 MOL1         0.0712
      10    C4      18.551790   18.873379   22.491318 C.3        1 MOL1        -0.1921
      11    H5      18.137675   19.876501   22.663035 H          1 MOL1         0.0712
      12    H6      17.796705   18.161935   22.853238 H          1 MOL1         0.0712
      13    C5      18.751634   18.646377   20.978434 C.3        1 MOL1        -0.2936
      14    H7      19.371012   19.435249   20.534529 H          1 MOL1         0.0724
      15    H8      17.785194   18.653885   20.458139 H          1 MOL1         0.0724
      16    H9      19.233702   17.679104   20.785243 H          1 MOL1         0.0724
@<TRIPOS>BOND
    1     1     2    1
    2     1     3    2
    3     1     4    1
    4     4     5    1
    5     4     6    1
    6     4     7    1
    7     7     8    1
    8     7     9    1
    9     7    10    1
   10    10    11    1
   11    10    12    1
   12    10    13    1
   13    13    14    1
   14    13    15    1
   15    13    16    1
@<TRIPOS>SUBSTRUCTURE
       1 MOL1            1 RESIDUE      1      MOL     
@<SCITEGIC>MOL_PROPERTY
VConf Rank
SciTegic.value.IntegerValue
209

@<SCITEGIC>MOL_PROPERTY
Conf_Id
SciTegic.value.IntegerValue
47

@<SCITEGIC>MOL_PROPERTY
Delta U+W
SciTegic.value.DoubleValue
2.301

@<SCITEGIC>MOL_PROPERTY
U+W
SciTegic.value.DoubleValue
-54.603

@<SCITEGIC>MOL_PROPERTY
Grad RMS
SciTegic.value.DoubleValue
0.000000

@<SCITEGIC>MOL_PROPERTY
U
SciTegic.value.DoubleValue
11.258

@<SCITEGIC>MOL_PROPERTY
W
SciTegic.value.DoubleValue
-65.861

@<SCITEGIC>MOL_PROPERTY
W(PB)
SciTegic.value.DoubleValue
-67.702

@<SCITEGIC>MOL_PROPERTY
W(SA)
SciTegic.value.DoubleValue
1.841

@<SCITEGIC>MOL_PROPERTY
Valence
SciTegic.value.DoubleValue
8.169

@<SCITEGIC>MOL_PROPERTY
Coulomb
SciTegic.value.DoubleValue
2.735

@<SCITEGIC>MOL_PROPERTY
VdW
SciTegic.value.DoubleValue
0.355

@<SCITEGIC>MOL_PROPERTY
VdW6
SciTegic.value.DoubleValue
-6.245

@<SCITEGIC>MOL_PROPERTY
VdW12
SciTegic.value.DoubleValue
6.600

@<SCITEGIC>MOL_PROPERTY
Bond
SciTegic.value.DoubleValue
0.149

@<SCITEGIC>MOL_PROPERTY
Angle
SciTegic.value.DoubleValue
3.168

@<SCITEGIC>MOL_PROPERTY
Pdih
SciTegic.value.DoubleValue
4.840

@<SCITEGIC>MOL_PROPERTY
Idih
SciTegic.value.DoubleValue
0.011

@<SCITEGIC>MOL_PROPERTY
Tether
SciTegic.value.DoubleValue
0.000

@<TRIPOS>MOLECULE
guest-s18_confgen4.mol2 : confsearch ligand conformer 210
          16          15           1
SMALL
USER_CHARGES
 
@<TRIPOS>ATOM
       1    C1      19.423776   20.777594   21.262458 C.2        1 MOL1         0.6075
       2    O1      18.347814   21.186124   21.653056 O.co2      1 MOL1        -0.6830
       3    O2      19.713193   20.675169   20.086632 O.co2      1 MOL1        -0.6830
       4    C2      20.499590   20.461740   22.300017 C.3        1 MOL1        -0.2050
       5    H1      20.703907   21.400200   22.828500 H          1 MOL1         0.0710
       6    H2      21.425811   20.186253   21.781172 H          1 MOL1         0.0710
       7    C3      20.120073   19.369591   23.339327 C.3        1 MOL1        -0.1947
       8    H3      20.778841   19.487054   24.210350 H          1 MOL1         0.0712
       9    H4      19.098767   19.541120   23.706820 H          1 MOL1         0.0712
      10    C4      20.264598   17.914774   22.831212 C.3        1 MOL1        -0.1921
      11    H5      20.128819   17.234280   23.683143 H          1 MOL1         0.0712
      12    H6      21.286292   17.747931   22.463059 H          1 MOL1         0.0712
      13    C5      19.248912   17.533278   21.734340 C.3        1 MOL1        -0.2936
      14    H7      19.306072   16.459331   21.514933 H          1 MOL1         0.0724
      15    H8      19.449045   18.071634   20.799931 H          1 MOL1         0.0724
      16    H9      18.222644   17.760943   22.050997 H          1 MOL1         0.0724
@<TRIPOS>BOND
    1     1     2    1
    2     1     3    2
    3     1     4    1
    4     4     5    1
    5     4     6    1
    6     4     7    1
    7     7     8    1
    8     7     9    1
    9     7    10    1
   10    10    11    1
   11    10    12    1
   12    10    13    1
   13    13    14    1
   14    13    15    1
   15    13    16    1
@<TRIPOS>SUBSTRUCTURE
       1 MOL1            1 RESIDUE      1      MOL     
@<SCITEGIC>MOL_PROPERTY
VConf Rank
SciTegic.value.IntegerValue
210

@<SCITEGIC>MOL_PROPERTY
Conf_Id
SciTegic.value.IntegerValue
45

@<SCITEGIC>MOL_PROPERTY
Delta U+W
SciTegic.value.DoubleValue
2.303

@<SCITEGIC>MOL_PROPERTY
U+W
SciTegic.value.DoubleValue
-54.601

@<SCITEGIC>MOL_PROPERTY
Grad RMS
SciTegic.value.DoubleValue
0.000000

@<SCITEGIC>MOL_PROPERTY
U
SciTegic.value.DoubleValue
11.258

@<SCITEGIC>MOL_PROPERTY
W
SciTegic.value.DoubleValue
-65.860

@<SCITEGIC>MOL_PROPERTY
W(PB)
SciTegic.value.DoubleValue
-67.709

@<SCITEGIC>MOL_PROPERTY
W(SA)
SciTegic.value.DoubleValue
1.849

@<SCITEGIC>MOL_PROPERTY
Valence
SciTegic.value.DoubleValue
8.169

@<SCITEGIC>MOL_PROPERTY
Coulomb
SciTegic.value.DoubleValue
2.735

@<SCITEGIC>MOL_PROPERTY
VdW
SciTegic.value.DoubleValue
0.355

@<SCITEGIC>MOL_PROPERTY
VdW6
SciTegic.value.DoubleValue
-6.245

@<SCITEGIC>MOL_PROPERTY
VdW12
SciTegic.value.DoubleValue
6.600

@<SCITEGIC>MOL_PROPERTY
Bond
SciTegic.value.DoubleValue
0.149

@<SCITEGIC>MOL_PROPERTY
Angle
SciTegic.value.DoubleValue
3.168

@<SCITEGIC>MOL_PROPERTY
Pdih
SciTegic.value.DoubleValue
4.840

@<SCITEGIC>MOL_PROPERTY
Idih
SciTegic.value.DoubleValue
0.011

@<SCITEGIC>MOL_PROPERTY
Tether
SciTegic.value.DoubleValue
0.000

@<TRIPOS>MOLECULE
guest-s18_confgen4.mol2 : confsearch ligand conformer 211
          16          15           1
SMALL
USER_CHARGES
 
@<TRIPOS>ATOM
       1    C1      17.987692   17.327843   22.526040 C.2        1 MOL1         0.6075
       2    O1      18.745281   16.399092   22.729164 O.co2      1 MOL1        -0.6830
       3    O2      16.780776   17.231250   22.622660 O.co2      1 MOL1        -0.6830
       4    C2      18.549280   18.694029   22.128487 C.3        1 MOL1        -0.2050
       5    H1      18.196109   19.421166   22.869231 H          1 MOL1         0.0710
       6    H2      18.095341   18.967757   21.168708 H          1 MOL1         0.0710
       7    C3      20.095315   18.769224   22.016819 C.3        1 MOL1        -0.1947
       8    H3      20.544542   18.488723   22.979620 H          1 MOL1         0.0712
       9    H4      20.443663   18.034861   21.277336 H          1 MOL1         0.0712
      10    C4      20.573179   20.179682   21.612453 C.3        1 MOL1        -0.1921
      11    H5      20.226948   20.914857   22.352143 H          1 MOL1         0.0712
      12    H6      20.126013   20.460735   20.648840 H          1 MOL1         0.0712
      13    C5      22.109259   20.248010   21.503214 C.3        1 MOL1        -0.2936
      14    H7      22.582550   20.001650   22.462782 H          1 MOL1         0.0724
      15    H8      22.432103   21.256921   21.215097 H          1 MOL1         0.0724
      16    H9      22.480876   19.544180   20.746912 H          1 MOL1         0.0724
@<TRIPOS>BOND
    1     1     2    1
    2     1     3    2
    3     1     4    1
    4     4     5    1
    5     4     6    1
    6     4     7    1
    7     7     8    1
    8     7     9    1
    9     7    10    1
   10    10    11    1
   11    10    12    1
   12    10    13    1
   13    13    14    1
   14    13    15    1
   15    13    16    1
@<TRIPOS>SUBSTRUCTURE
       1 MOL1            1 RESIDUE      1      MOL     
@<SCITEGIC>MOL_PROPERTY
VConf Rank
SciTegic.value.IntegerValue
211

@<SCITEGIC>MOL_PROPERTY
Conf_Id
SciTegic.value.IntegerValue
0

@<SCITEGIC>MOL_PROPERTY
Delta U+W
SciTegic.value.DoubleValue
0.000

@<SCITEGIC>MOL_PROPERTY
U+W
SciTegic.value.DoubleValue
-56.904

@<SCITEGIC>MOL_PROPERTY
Grad RMS
SciTegic.value.DoubleValue
0.000000

@<SCITEGIC>MOL_PROPERTY
U
SciTegic.value.DoubleValue
7.329

@<SCITEGIC>MOL_PROPERTY
W
SciTegic.value.DoubleValue
-64.233

@<SCITEGIC>MOL_PROPERTY
W(PB)
SciTegic.value.DoubleValue
-66.148

@<SCITEGIC>MOL_PROPERTY
W(SA)
SciTegic.value.DoubleValue
1.915

@<SCITEGIC>MOL_PROPERTY
Valence
SciTegic.value.DoubleValue
6.755

@<SCITEGIC>MOL_PROPERTY
Coulomb
SciTegic.value.DoubleValue
-0.421

@<SCITEGIC>MOL_PROPERTY
VdW
SciTegic.value.DoubleValue
0.995

@<SCITEGIC>MOL_PROPERTY
VdW6
SciTegic.value.DoubleValue
-4.495

@<SCITEGIC>MOL_PROPERTY
VdW12
SciTegic.value.DoubleValue
5.490

@<SCITEGIC>MOL_PROPERTY
Bond
SciTegic.value.DoubleValue
0.106

@<SCITEGIC>MOL_PROPERTY
Angle
SciTegic.value.DoubleValue
2.715

@<SCITEGIC>MOL_PROPERTY
Pdih
SciTegic.value.DoubleValue
3.934

@<SCITEGIC>MOL_PROPERTY
Idih
SciTegic.value.DoubleValue
0.000

@<SCITEGIC>MOL_PROPERTY
Tether
SciTegic.value.DoubleValue
0.000

@<TRIPOS>MOLECULE
guest-s18_confgen4.mol2 : confsearch ligand conformer 212
          16          15           1
SMALL
USER_CHARGES
 
@<TRIPOS>ATOM
       1    C1      19.446491   19.341007   19.282922 C.2        1 MOL1         0.6075
       2    O1      19.980731   20.274315   18.717796 O.co2      1 MOL1        -0.6830
       3    O2      19.170658   18.292438   18.734959 O.co2      1 MOL1        -0.6830
       4    C2      19.120872   19.486940   20.765237 C.3        1 MOL1        -0.2050
       5    H1      18.214607   18.905670   20.974184 H          1 MOL1         0.0710
       6    H2      18.882590   20.539611   20.960061 H          1 MOL1         0.0710
       7    C3      20.276910   19.022279   21.684871 C.3        1 MOL1        -0.1947
       8    H3      20.511990   17.970690   21.469349 H          1 MOL1         0.0712
       9    H4      21.180031   19.604659   21.455181 H          1 MOL1         0.0712
      10    C4      19.921829   19.180396   23.178015 C.3        1 MOL1        -0.1921
      11    H5      19.019126   18.597598   23.408259 H          1 MOL1         0.0712
      12    H6      19.687301   20.231989   23.394081 H          1 MOL1         0.0712
      13    C5      21.076791   18.716110   24.087192 C.3        1 MOL1        -0.2936
      14    H7      21.984873   19.304127   23.899855 H          1 MOL1         0.0724
      15    H8      21.311778   17.657668   23.914120 H          1 MOL1         0.0724
      16    H9      20.808164   18.835096   25.144940 H          1 MOL1         0.0724
@<TRIPOS>BOND
    1     1     2    1
    2     1     3    2
    3     1     4    1
    4     4     5    1
    5     4     6    1
    6     4     7    1
    7     7     8    1
    8     7     9    1
    9     7    10    1
   10    10    11    1
   11    10    12    1
   12    10    13    1
   13    13    14    1
   14    13    15    1
   15    13    16    1
@<TRIPOS>SUBSTRUCTURE
       1 MOL1            1 RESIDUE      1      MOL     
@<SCITEGIC>MOL_PROPERTY
VConf Rank
SciTegic.value.IntegerValue
212

@<SCITEGIC>MOL_PROPERTY
Conf_Id
SciTegic.value.IntegerValue
22

@<SCITEGIC>MOL_PROPERTY
Delta U+W
SciTegic.value.DoubleValue
-1.185

@<SCITEGIC>MOL_PROPERTY
U+W
SciTegic.value.DoubleValue
-58.089

@<SCITEGIC>MOL_PROPERTY
Grad RMS
SciTegic.value.DoubleValue
0.000000

@<SCITEGIC>MOL_PROPERTY
U
SciTegic.value.DoubleValue
6.298

@<SCITEGIC>MOL_PROPERTY
W
SciTegic.value.DoubleValue
-64.387

@<SCITEGIC>MOL_PROPERTY
W(PB)
SciTegic.value.DoubleValue
-66.329

@<SCITEGIC>MOL_PROPERTY
W(SA)
SciTegic.value.DoubleValue
1.942

@<SCITEGIC>MOL_PROPERTY
Valence
SciTegic.value.DoubleValue
6.246

@<SCITEGIC>MOL_PROPERTY
Coulomb
SciTegic.value.DoubleValue
-0.408

@<SCITEGIC>MOL_PROPERTY
VdW
SciTegic.value.DoubleValue
0.460

@<SCITEGIC>MOL_PROPERTY
VdW6
SciTegic.value.DoubleValue
-4.207

@<SCITEGIC>MOL_PROPERTY
VdW12
SciTegic.value.DoubleValue
4.667

@<SCITEGIC>MOL_PROPERTY
Bond
SciTegic.value.DoubleValue
0.072

@<SCITEGIC>MOL_PROPERTY
Angle
SciTegic.value.DoubleValue
2.246

@<SCITEGIC>MOL_PROPERTY
Pdih
SciTegic.value.DoubleValue
3.928

@<SCITEGIC>MOL_PROPERTY
Idih
SciTegic.value.DoubleValue
0.001

@<SCITEGIC>MOL_PROPERTY
Tether
SciTegic.value.DoubleValue
0.000

@<TRIPOS>MOLECULE
guest-s18_confgen4.mol2 : confsearch ligand conformer 213
          16          15           1
SMALL
USER_CHARGES
 
@<TRIPOS>ATOM
       1    C1      20.674279   21.585995   21.499156 C.2        1 MOL1         0.6075
       2    O1      20.871211   21.992023   20.371170 O.co2      1 MOL1        -0.6830
       3    O2      21.123219   22.120861   22.493304 O.co2      1 MOL1        -0.6830
       4    C2      19.834880   20.325393   21.674839 C.3        1 MOL1        -0.2050
       5    H1      19.087755   20.299243   20.872538 H          1 MOL1         0.0710
       6    H2      19.291453   20.414841   22.622364 H          1 MOL1         0.0710
       7    C3      20.685769   19.029019   21.654925 C.3        1 MOL1        -0.1947
       8    H3      21.283071   19.012738   20.732757 H          1 MOL1         0.0712
       9    H4      21.401511   19.047505   22.488399 H          1 MOL1         0.0712
      10    C4      19.839832   17.736599   21.721638 C.3        1 MOL1        -0.1921
      11    H5      20.505292   16.871868   21.592362 H          1 MOL1         0.0712
      12    H6      19.132043   17.712294   20.881504 H          1 MOL1         0.0712
      13    C5      19.072326   17.579503   23.051747 C.3        1 MOL1        -0.2936
      14    H7      18.312560   18.362003   23.171037 H          1 MOL1         0.0724
      15    H8      19.756807   17.629736   23.908609 H          1 MOL1         0.0724
      16    H9      18.558709   16.609951   23.086018 H          1 MOL1         0.0724
@<TRIPOS>BOND
    1     1     2    1
    2     1     3    2
    3     1     4    1
    4     4     5    1
    5     4     6    1
    6     4     7    1
    7     7     8    1
    8     7     9    1
    9     7    10    1
   10    10    11    1
   11    10    12    1
   12    10    13    1
   13    13    14    1
   14    13    15    1
   15    13    16    1
@<TRIPOS>SUBSTRUCTURE
       1 MOL1            1 RESIDUE      1      MOL     
@<SCITEGIC>MOL_PROPERTY
VConf Rank
SciTegic.value.IntegerValue
213

@<SCITEGIC>MOL_PROPERTY
Conf_Id
SciTegic.value.IntegerValue
36

@<SCITEGIC>MOL_PROPERTY
Delta U+W
SciTegic.value.DoubleValue
-0.427

@<SCITEGIC>MOL_PROPERTY
U+W
SciTegic.value.DoubleValue
-57.331

@<SCITEGIC>MOL_PROPERTY
Grad RMS
SciTegic.value.DoubleValue
0.000000

@<SCITEGIC>MOL_PROPERTY
U
SciTegic.value.DoubleValue
7.263

@<SCITEGIC>MOL_PROPERTY
W
SciTegic.value.DoubleValue
-64.594

@<SCITEGIC>MOL_PROPERTY
W(PB)
SciTegic.value.DoubleValue
-66.513

@<SCITEGIC>MOL_PROPERTY
W(SA)
SciTegic.value.DoubleValue
1.920

@<SCITEGIC>MOL_PROPERTY
Valence
SciTegic.value.DoubleValue
6.734

@<SCITEGIC>MOL_PROPERTY
Coulomb
SciTegic.value.DoubleValue
-0.068

@<SCITEGIC>MOL_PROPERTY
VdW
SciTegic.value.DoubleValue
0.598

@<SCITEGIC>MOL_PROPERTY
VdW6
SciTegic.value.DoubleValue
-4.819

@<SCITEGIC>MOL_PROPERTY
VdW12
SciTegic.value.DoubleValue
5.417

@<SCITEGIC>MOL_PROPERTY
Bond
SciTegic.value.DoubleValue
0.107

@<SCITEGIC>MOL_PROPERTY
Angle
SciTegic.value.DoubleValue
2.469

@<SCITEGIC>MOL_PROPERTY
Pdih
SciTegic.value.DoubleValue
4.157

@<SCITEGIC>MOL_PROPERTY
Idih
SciTegic.value.DoubleValue
0.001

@<SCITEGIC>MOL_PROPERTY
Tether
SciTegic.value.DoubleValue
0.000

@<TRIPOS>MOLECULE
guest-s18_confgen4.mol2 : confsearch ligand conformer 214
          16          15           1
SMALL
USER_CHARGES
 
@<TRIPOS>ATOM
       1    C1      18.321274   19.564286   23.944147 C.2        1 MOL1         0.6075
       2    O1      17.182151   19.690275   23.541057 O.co2      1 MOL1        -0.6830
       3    O2      18.693587   19.946916   25.035464 O.co2      1 MOL1        -0.6830
       4    C2      19.344100   18.908610   23.023014 C.3        1 MOL1        -0.2050
       5    H1      18.819376   18.157817   22.421273 H          1 MOL1         0.0710
       6    H2      20.071458   18.375234   23.646734 H          1 MOL1         0.0710
       7    C3      20.070836   19.928899   22.108760 C.3        1 MOL1        -0.1947
       8    H3      19.337481   20.426124   21.458939 H          1 MOL1         0.0712
       9    H4      20.512118   20.714716   22.737401 H          1 MOL1         0.0712
      10    C4      21.187921   19.296416   21.247079 C.3        1 MOL1        -0.1921
      11    H5      21.927610   18.809216   21.897368 H          1 MOL1         0.0712
      12    H6      21.720718   20.097398   20.716171 H          1 MOL1         0.0712
      13    C5      20.657370   18.280911   20.212575 C.3        1 MOL1        -0.2936
      14    H7      20.215329   17.403996   20.701863 H          1 MOL1         0.0724
      15    H8      21.473486   17.926337   19.569739 H          1 MOL1         0.0724
      16    H9      19.894473   18.737986   19.568897 H          1 MOL1         0.0724
@<TRIPOS>BOND
    1     1     2    1
    2     1     3    2
    3     1     4    1
    4     4     5    1
    5     4     6    1
    6     4     7    1
    7     7     8    1
    8     7     9    1
    9     7    10    1
   10    10    11    1
   11    10    12    1
   12    10    13    1
   13    13    14    1
   14    13    15    1
   15    13    16    1
@<TRIPOS>SUBSTRUCTURE
       1 MOL1            1 RESIDUE      1      MOL     
@<SCITEGIC>MOL_PROPERTY
VConf Rank
SciTegic.value.IntegerValue
214

@<SCITEGIC>MOL_PROPERTY
Conf_Id
SciTegic.value.IntegerValue
17

@<SCITEGIC>MOL_PROPERTY
Delta U+W
SciTegic.value.DoubleValue
-0.432

@<SCITEGIC>MOL_PROPERTY
U+W
SciTegic.value.DoubleValue
-57.336

@<SCITEGIC>MOL_PROPERTY
Grad RMS
SciTegic.value.DoubleValue
0.000000

@<SCITEGIC>MOL_PROPERTY
U
SciTegic.value.DoubleValue
7.263

@<SCITEGIC>MOL_PROPERTY
W
SciTegic.value.DoubleValue
-64.599

@<SCITEGIC>MOL_PROPERTY
W(PB)
SciTegic.value.DoubleValue
-66.503

@<SCITEGIC>MOL_PROPERTY
W(SA)
SciTegic.value.DoubleValue
1.904

@<SCITEGIC>MOL_PROPERTY
Valence
SciTegic.value.DoubleValue
6.734

@<SCITEGIC>MOL_PROPERTY
Coulomb
SciTegic.value.DoubleValue
-0.068

@<SCITEGIC>MOL_PROPERTY
VdW
SciTegic.value.DoubleValue
0.598

@<SCITEGIC>MOL_PROPERTY
VdW6
SciTegic.value.DoubleValue
-4.819

@<SCITEGIC>MOL_PROPERTY
VdW12
SciTegic.value.DoubleValue
5.417

@<SCITEGIC>MOL_PROPERTY
Bond
SciTegic.value.DoubleValue
0.107

@<SCITEGIC>MOL_PROPERTY
Angle
SciTegic.value.DoubleValue
2.469

@<SCITEGIC>MOL_PROPERTY
Pdih
SciTegic.value.DoubleValue
4.157

@<SCITEGIC>MOL_PROPERTY
Idih
SciTegic.value.DoubleValue
0.001

@<SCITEGIC>MOL_PROPERTY
Tether
SciTegic.value.DoubleValue
0.000

@<TRIPOS>MOLECULE
guest-s18_confgen4.mol2 : confsearch ligand conformer 215
          16          15           1
SMALL
USER_CHARGES
 
@<TRIPOS>ATOM
       1    C1      18.853125   19.251054   20.104068 C.2        1 MOL1         0.6075
       2    O1      19.191487   18.446084   19.259156 O.co2      1 MOL1        -0.6830
       3    O2      17.699986   19.417469   20.448794 O.co2      1 MOL1        -0.6830
       4    C2      19.933552   20.115344   20.748407 C.3        1 MOL1        -0.2050
       5    H1      19.456544   20.993036   21.201401 H          1 MOL1         0.0710
       6    H2      20.580362   20.485826   19.944284 H          1 MOL1         0.0710
       7    C3      20.793775   19.370619   21.802180 C.3        1 MOL1        -0.1947
       8    H3      21.241867   18.478886   21.342126 H          1 MOL1         0.0712
       9    H4      21.625069   20.020511   22.107385 H          1 MOL1         0.0712
      10    C4      19.981957   18.962970   23.050761 C.3        1 MOL1        -0.1921
      11    H5      19.158859   18.295415   22.759896 H          1 MOL1         0.0712
      12    H6      19.524367   19.854004   23.502476 H          1 MOL1         0.0712
      13    C5      20.867274   18.255324   24.095652 C.3        1 MOL1        -0.2936
      14    H7      21.313263   17.342803   23.678702 H          1 MOL1         0.0724
      15    H8      20.275230   17.971755   24.975532 H          1 MOL1         0.0724
      16    H9      21.680384   18.912180   24.431520 H          1 MOL1         0.0724
@<TRIPOS>BOND
    1     1     2    1
    2     1     3    2
    3     1     4    1
    4     4     5    1
    5     4     6    1
    6     4     7    1
    7     7     8    1
    8     7     9    1
    9     7    10    1
   10    10    11    1
   11    10    12    1
   12    10    13    1
   13    13    14    1
   14    13    15    1
   15    13    16    1
@<TRIPOS>SUBSTRUCTURE
       1 MOL1            1 RESIDUE      1      MOL     
@<SCITEGIC>MOL_PROPERTY
VConf Rank
SciTegic.value.IntegerValue
215

@<SCITEGIC>MOL_PROPERTY
Conf_Id
SciTegic.value.IntegerValue
19

@<SCITEGIC>MOL_PROPERTY
Delta U+W
SciTegic.value.DoubleValue
0.048

@<SCITEGIC>MOL_PROPERTY
U+W
SciTegic.value.DoubleValue
-56.856

@<SCITEGIC>MOL_PROPERTY
Grad RMS
SciTegic.value.DoubleValue
0.000000

@<SCITEGIC>MOL_PROPERTY
U
SciTegic.value.DoubleValue
8.276

@<SCITEGIC>MOL_PROPERTY
W
SciTegic.value.DoubleValue
-65.132

@<SCITEGIC>MOL_PROPERTY
W(PB)
SciTegic.value.DoubleValue
-67.031

@<SCITEGIC>MOL_PROPERTY
W(SA)
SciTegic.value.DoubleValue
1.899

@<SCITEGIC>MOL_PROPERTY
Valence
SciTegic.value.DoubleValue
6.513

@<SCITEGIC>MOL_PROPERTY
Coulomb
SciTegic.value.DoubleValue
1.428

@<SCITEGIC>MOL_PROPERTY
VdW
SciTegic.value.DoubleValue
0.335

@<SCITEGIC>MOL_PROPERTY
VdW6
SciTegic.value.DoubleValue
-5.021

@<SCITEGIC>MOL_PROPERTY
VdW12
SciTegic.value.DoubleValue
5.356

@<SCITEGIC>MOL_PROPERTY
Bond
SciTegic.value.DoubleValue
0.092

@<SCITEGIC>MOL_PROPERTY
Angle
SciTegic.value.DoubleValue
2.417

@<SCITEGIC>MOL_PROPERTY
Pdih
SciTegic.value.DoubleValue
4.003

@<SCITEGIC>MOL_PROPERTY
Idih
SciTegic.value.DoubleValue
0.001

@<SCITEGIC>MOL_PROPERTY
Tether
SciTegic.value.DoubleValue
0.000

@<TRIPOS>MOLECULE
guest-s18_confgen4.mol2 : confsearch ligand conformer 216
          16          15           1
SMALL
USER_CHARGES
 
@<TRIPOS>ATOM
       1    C1      18.313053   19.850050   23.740918 C.2        1 MOL1         0.6075
       2    O1      17.253466   20.230277   23.283703 O.co2      1 MOL1        -0.6830
       3    O2      18.947213   20.470766   24.570867 O.co2      1 MOL1        -0.6830
       4    C2      18.863547   18.509175   23.262892 C.3        1 MOL1        -0.2050
       5    H1      18.034843   17.791294   23.274410 H          1 MOL1         0.0710
       6    H2      19.601566   18.153162   23.992048 H          1 MOL1         0.0710
       7    C3      19.490364   18.552472   21.845052 C.3        1 MOL1        -0.1947
       8    H3      19.730350   17.527911   21.530028 H          1 MOL1         0.0712
       9    H4      18.749259   18.937591   21.130860 H          1 MOL1         0.0712
      10    C4      20.769662   19.415177   21.787375 C.3        1 MOL1        -0.1921
      11    H5      21.504982   19.036478   22.510749 H          1 MOL1         0.0712
      12    H6      20.537339   20.448343   22.081176 H          1 MOL1         0.0712
      13    C5      21.390470   19.413782   20.376366 C.3        1 MOL1        -0.2936
      14    H7      21.665328   18.396290   20.068830 H          1 MOL1         0.0724
      15    H8      22.297478   20.031749   20.352489 H          1 MOL1         0.0724
      16    H9      20.685878   19.817162   19.637255 H          1 MOL1         0.0724
@<TRIPOS>BOND
    1     1     2    1
    2     1     3    2
    3     1     4    1
    4     4     5    1
    5     4     6    1
    6     4     7    1
    7     7     8    1
    8     7     9    1
    9     7    10    1
   10    10    11    1
   11    10    12    1
   12    10    13    1
   13    13    14    1
   14    13    15    1
   15    13    16    1
@<TRIPOS>SUBSTRUCTURE
       1 MOL1            1 RESIDUE      1      MOL     
@<SCITEGIC>MOL_PROPERTY
VConf Rank
SciTegic.value.IntegerValue
216

@<SCITEGIC>MOL_PROPERTY
Conf_Id
SciTegic.value.IntegerValue
20

@<SCITEGIC>MOL_PROPERTY
Delta U+W
SciTegic.value.DoubleValue
-0.010

@<SCITEGIC>MOL_PROPERTY
U+W
SciTegic.value.DoubleValue
-56.914

@<SCITEGIC>MOL_PROPERTY
Grad RMS
SciTegic.value.DoubleValue
0.000000

@<SCITEGIC>MOL_PROPERTY
U
SciTegic.value.DoubleValue
8.277

@<SCITEGIC>MOL_PROPERTY
W
SciTegic.value.DoubleValue
-65.191

@<SCITEGIC>MOL_PROPERTY
W(PB)
SciTegic.value.DoubleValue
-67.081

@<SCITEGIC>MOL_PROPERTY
W(SA)
SciTegic.value.DoubleValue
1.890

@<SCITEGIC>MOL_PROPERTY
Valence
SciTegic.value.DoubleValue
6.513

@<SCITEGIC>MOL_PROPERTY
Coulomb
SciTegic.value.DoubleValue
1.429

@<SCITEGIC>MOL_PROPERTY
VdW
SciTegic.value.DoubleValue
0.335

@<SCITEGIC>MOL_PROPERTY
VdW6
SciTegic.value.DoubleValue
-5.021

@<SCITEGIC>MOL_PROPERTY
VdW12
SciTegic.value.DoubleValue
5.356

@<SCITEGIC>MOL_PROPERTY
Bond
SciTegic.value.DoubleValue
0.092

@<SCITEGIC>MOL_PROPERTY
Angle
SciTegic.value.DoubleValue
2.417

@<SCITEGIC>MOL_PROPERTY
Pdih
SciTegic.value.DoubleValue
4.002

@<SCITEGIC>MOL_PROPERTY
Idih
SciTegic.value.DoubleValue
0.001

@<SCITEGIC>MOL_PROPERTY
Tether
SciTegic.value.DoubleValue
0.000

@<TRIPOS>MOLECULE
guest-s18_confgen4.mol2 : confsearch ligand conformer 217
          16          15           1
SMALL
USER_CHARGES
 
@<TRIPOS>ATOM
       1    C1      19.804967   19.530353   20.056359 C.2        1 MOL1         0.6075
       2    O1      20.346065   20.484081   19.532526 O.co2      1 MOL1        -0.6830
       3    O2      18.669501   19.180756   19.801799 O.co2      1 MOL1        -0.6830
       4    C2      20.608406   18.709700   21.061724 C.3        1 MOL1        -0.2050
       5    H1      21.568352   18.467374   20.590913 H          1 MOL1         0.0710
       6    H2      20.094946   17.755723   21.227654 H          1 MOL1         0.0710
       7    C3      20.867718   19.433882   22.411167 C.3        1 MOL1        -0.1947
       8    H3      21.516127   18.806663   23.037692 H          1 MOL1         0.0712
       9    H4      21.429872   20.357111   22.213723 H          1 MOL1         0.0712
      10    C4      19.585576   19.788761   23.201207 C.3        1 MOL1        -0.1921
      11    H5      18.943507   20.445339   22.597676 H          1 MOL1         0.0712
      12    H6      19.868882   20.366891   24.091506 H          1 MOL1         0.0712
      13    C5      18.782802   18.548329   23.647665 C.3        1 MOL1        -0.2936
      14    H7      18.374173   18.006993   22.784840 H          1 MOL1         0.0724
      15    H8      17.938276   18.846109   24.282457 H          1 MOL1         0.0724
      16    H9      19.412430   17.857683   24.223550 H          1 MOL1         0.0724
@<TRIPOS>BOND
    1     1     2    1
    2     1     3    2
    3     1     4    1
    4     4     5    1
    5     4     6    1
    6     4     7    1
    7     7     8    1
    8     7     9    1
    9     7    10    1
   10    10    11    1
   11    10    12    1
   12    10    13    1
   13    13    14    1
   14    13    15    1
   15    13    16    1
@<TRIPOS>SUBSTRUCTURE
       1 MOL1            1 RESIDUE      1      MOL     
@<SCITEGIC>MOL_PROPERTY
VConf Rank
SciTegic.value.IntegerValue
217

@<SCITEGIC>MOL_PROPERTY
Conf_Id
SciTegic.value.IntegerValue
37

@<SCITEGIC>MOL_PROPERTY
Delta U+W
SciTegic.value.DoubleValue
1.063

@<SCITEGIC>MOL_PROPERTY
U+W
SciTegic.value.DoubleValue
-55.841

@<SCITEGIC>MOL_PROPERTY
Grad RMS
SciTegic.value.DoubleValue
0.000000

@<SCITEGIC>MOL_PROPERTY
U
SciTegic.value.DoubleValue
9.719

@<SCITEGIC>MOL_PROPERTY
W
SciTegic.value.DoubleValue
-65.560

@<SCITEGIC>MOL_PROPERTY
W(PB)
SciTegic.value.DoubleValue
-67.414

@<SCITEGIC>MOL_PROPERTY
W(SA)
SciTegic.value.DoubleValue
1.854

@<SCITEGIC>MOL_PROPERTY
Valence
SciTegic.value.DoubleValue
7.002

@<SCITEGIC>MOL_PROPERTY
Coulomb
SciTegic.value.DoubleValue
2.402

@<SCITEGIC>MOL_PROPERTY
VdW
SciTegic.value.DoubleValue
0.314

@<SCITEGIC>MOL_PROPERTY
VdW6
SciTegic.value.DoubleValue
-5.861

@<SCITEGIC>MOL_PROPERTY
VdW12
SciTegic.value.DoubleValue
6.175

@<SCITEGIC>MOL_PROPERTY
Bond
SciTegic.value.DoubleValue
0.134

@<SCITEGIC>MOL_PROPERTY
Angle
SciTegic.value.DoubleValue
2.733

@<SCITEGIC>MOL_PROPERTY
Pdih
SciTegic.value.DoubleValue
4.133

@<SCITEGIC>MOL_PROPERTY
Idih
SciTegic.value.DoubleValue
0.002

@<SCITEGIC>MOL_PROPERTY
Tether
SciTegic.value.DoubleValue
0.000

@<TRIPOS>MOLECULE
guest-s18_confgen4.mol2 : confsearch ligand conformer 218
          16          15           1
SMALL
USER_CHARGES
 
@<TRIPOS>ATOM
       1    C1      19.747370   19.810832   20.170611 C.2        1 MOL1         0.6075
       2    O1      19.738402   19.068332   19.208635 O.co2      1 MOL1        -0.6830
       3    O2      18.889896   20.645568   20.380978 O.co2      1 MOL1        -0.6830
       4    C2      20.917106   19.710829   21.146042 C.3        1 MOL1        -0.2050
       5    H1      20.922377   20.603492   21.781945 H          1 MOL1         0.0710
       6    H2      21.838874   19.746685   20.553641 H          1 MOL1         0.0710
       7    C3      20.914389   18.421528   22.012283 C.3        1 MOL1        -0.1947
       8    H3      20.963989   17.548984   21.346279 H          1 MOL1         0.0712
       9    H4      21.827442   18.395544   22.622226 H          1 MOL1         0.0712
      10    C4      19.681316   18.276061   22.935518 C.3        1 MOL1        -0.1921
      11    H5      19.731685   17.301251   23.439838 H          1 MOL1         0.0712
      12    H6      18.761983   18.265565   22.333594 H          1 MOL1         0.0712
      13    C5      19.587059   19.385464   24.004528 C.3        1 MOL1        -0.2936
      14    H7      20.509103   19.440583   24.597708 H          1 MOL1         0.0724
      15    H8      18.753987   19.186742   24.691085 H          1 MOL1         0.0724
      16    H9      19.411323   20.366686   23.545390 H          1 MOL1         0.0724
@<TRIPOS>BOND
    1     1     2    1
    2     1     3    2
    3     1     4    1
    4     4     5    1
    5     4     6    1
    6     4     7    1
    7     7     8    1
    8     7     9    1
    9     7    10    1
   10    10    11    1
   11    10    12    1
   12    10    13    1
   13    13    14    1
   14    13    15    1
   15    13    16    1
@<TRIPOS>SUBSTRUCTURE
       1 MOL1            1 RESIDUE      1      MOL     
@<SCITEGIC>MOL_PROPERTY
VConf Rank
SciTegic.value.IntegerValue
218

@<SCITEGIC>MOL_PROPERTY
Conf_Id
SciTegic.value.IntegerValue
39

@<SCITEGIC>MOL_PROPERTY
Delta U+W
SciTegic.value.DoubleValue
1.129

@<SCITEGIC>MOL_PROPERTY
U+W
SciTegic.value.DoubleValue
-55.775

@<SCITEGIC>MOL_PROPERTY
Grad RMS
SciTegic.value.DoubleValue
0.000000

@<SCITEGIC>MOL_PROPERTY
U
SciTegic.value.DoubleValue
9.718

@<SCITEGIC>MOL_PROPERTY
W
SciTegic.value.DoubleValue
-65.493

@<SCITEGIC>MOL_PROPERTY
W(PB)
SciTegic.value.DoubleValue
-67.361

@<SCITEGIC>MOL_PROPERTY
W(SA)
SciTegic.value.DoubleValue
1.869

@<SCITEGIC>MOL_PROPERTY
Valence
SciTegic.value.DoubleValue
7.002

@<SCITEGIC>MOL_PROPERTY
Coulomb
SciTegic.value.DoubleValue
2.402

@<SCITEGIC>MOL_PROPERTY
VdW
SciTegic.value.DoubleValue
0.314

@<SCITEGIC>MOL_PROPERTY
VdW6
SciTegic.value.DoubleValue
-5.861

@<SCITEGIC>MOL_PROPERTY
VdW12
SciTegic.value.DoubleValue
6.175

@<SCITEGIC>MOL_PROPERTY
Bond
SciTegic.value.DoubleValue
0.134

@<SCITEGIC>MOL_PROPERTY
Angle
SciTegic.value.DoubleValue
2.734

@<SCITEGIC>MOL_PROPERTY
Pdih
SciTegic.value.DoubleValue
4.133

@<SCITEGIC>MOL_PROPERTY
Idih
SciTegic.value.DoubleValue
0.002

@<SCITEGIC>MOL_PROPERTY
Tether
SciTegic.value.DoubleValue
0.000

@<TRIPOS>MOLECULE
guest-s18_confgen4.mol2 : confsearch ligand conformer 219
          16          15           1
SMALL
USER_CHARGES
 
@<TRIPOS>ATOM
       1    C1      19.680909   17.207310   21.616758 C.2        1 MOL1         0.6075
       2    O1      19.569332   16.428911   22.543292 O.co2      1 MOL1        -0.6830
       3    O2      20.438152   17.030728   20.682649 O.co2      1 MOL1        -0.6830
       4    C2      18.756818   18.423229   21.581382 C.3        1 MOL1        -0.2050
       5    H1      18.088466   18.388898   22.450351 H          1 MOL1         0.0710
       6    H2      18.123671   18.304193   20.694418 H          1 MOL1         0.0710
       7    C3      19.473796   19.800764   21.508426 C.3        1 MOL1        -0.1947
       8    H3      20.285628   19.761704   20.768869 H          1 MOL1         0.0712
       9    H4      18.753624   20.538016   21.128604 H          1 MOL1         0.0712
      10    C4      20.013022   20.322053   22.862330 C.3        1 MOL1        -0.1921
      11    H5      19.198912   20.357740   23.599339 H          1 MOL1         0.0712
      12    H6      20.350914   21.358604   22.725648 H          1 MOL1         0.0712
      13    C5      21.187512   19.495509   23.425966 C.3        1 MOL1        -0.2936
      14    H7      20.860086   18.495358   23.734980 H          1 MOL1         0.0724
      15    H8      21.616177   19.989221   24.307591 H          1 MOL1         0.0724
      16    H9      21.984270   19.382579   22.679137 H          1 MOL1         0.0724
@<TRIPOS>BOND
    1     1     2    1
    2     1     3    2
    3     1     4    1
    4     4     5    1
    5     4     6    1
    6     4     7    1
    7     7     8    1
    8     7     9    1
    9     7    10    1
   10    10    11    1
   11    10    12    1
   12    10    13    1
   13    13    14    1
   14    13    15    1
   15    13    16    1
@<TRIPOS>SUBSTRUCTURE
       1 MOL1            1 RESIDUE      1      MOL     
@<SCITEGIC>MOL_PROPERTY
VConf Rank
SciTegic.value.IntegerValue
219

@<SCITEGIC>MOL_PROPERTY
Conf_Id
SciTegic.value.IntegerValue
47

@<SCITEGIC>MOL_PROPERTY
Delta U+W
SciTegic.value.DoubleValue
2.301

@<SCITEGIC>MOL_PROPERTY
U+W
SciTegic.value.DoubleValue
-54.603

@<SCITEGIC>MOL_PROPERTY
Grad RMS
SciTegic.value.DoubleValue
0.000000

@<SCITEGIC>MOL_PROPERTY
U
SciTegic.value.DoubleValue
11.258

@<SCITEGIC>MOL_PROPERTY
W
SciTegic.value.DoubleValue
-65.861

@<SCITEGIC>MOL_PROPERTY
W(PB)
SciTegic.value.DoubleValue
-67.702

@<SCITEGIC>MOL_PROPERTY
W(SA)
SciTegic.value.DoubleValue
1.841

@<SCITEGIC>MOL_PROPERTY
Valence
SciTegic.value.DoubleValue
8.169

@<SCITEGIC>MOL_PROPERTY
Coulomb
SciTegic.value.DoubleValue
2.735

@<SCITEGIC>MOL_PROPERTY
VdW
SciTegic.value.DoubleValue
0.355

@<SCITEGIC>MOL_PROPERTY
VdW6
SciTegic.value.DoubleValue
-6.245

@<SCITEGIC>MOL_PROPERTY
VdW12
SciTegic.value.DoubleValue
6.600

@<SCITEGIC>MOL_PROPERTY
Bond
SciTegic.value.DoubleValue
0.149

@<SCITEGIC>MOL_PROPERTY
Angle
SciTegic.value.DoubleValue
3.168

@<SCITEGIC>MOL_PROPERTY
Pdih
SciTegic.value.DoubleValue
4.840

@<SCITEGIC>MOL_PROPERTY
Idih
SciTegic.value.DoubleValue
0.011

@<SCITEGIC>MOL_PROPERTY
Tether
SciTegic.value.DoubleValue
0.000

@<TRIPOS>MOLECULE
guest-s18_confgen4.mol2 : confsearch ligand conformer 220
          16          15           1
SMALL
USER_CHARGES
 
@<TRIPOS>ATOM
       1    C1      17.895132   18.888708   22.348393 C.2        1 MOL1         0.6075
       2    O1      17.517458   18.384117   21.309206 O.co2      1 MOL1        -0.6830
       3    O2      17.363427   19.858064   22.852830 O.co2      1 MOL1        -0.6830
       4    C2      19.039199   18.217787   23.106445 C.3        1 MOL1        -0.2050
       5    H1      18.689563   17.211736   23.365992 H          1 MOL1         0.0710
       6    H2      19.199200   18.747864   24.053227 H          1 MOL1         0.0710
       7    C3      20.376869   18.100660   22.322923 C.3        1 MOL1        -0.1947
       8    H3      20.978572   17.312538   22.795440 H          1 MOL1         0.0712
       9    H4      20.181326   17.758357   21.297188 H          1 MOL1         0.0712
      10    C4      21.227793   19.393291   22.298562 C.3        1 MOL1        -0.1921
      11    H5      22.208668   19.155222   21.864396 H          1 MOL1         0.0712
      12    H6      21.419483   19.733185   23.325674 H          1 MOL1         0.0712
      13    C5      20.597088   20.540045   21.481584 C.3        1 MOL1        -0.2936
      14    H7      21.302904   21.374899   21.383538 H          1 MOL1         0.0724
      15    H8      19.693884   20.927564   21.968463 H          1 MOL1         0.0724
      16    H9      20.327592   20.202980   20.472085 H          1 MOL1         0.0724
@<TRIPOS>BOND
    1     1     2    1
    2     1     3    2
    3     1     4    1
    4     4     5    1
    5     4     6    1
    6     4     7    1
    7     7     8    1
    8     7     9    1
    9     7    10    1
   10    10    11    1
   11    10    12    1
   12    10    13    1
   13    13    14    1
   14    13    15    1
   15    13    16    1
@<TRIPOS>SUBSTRUCTURE
       1 MOL1            1 RESIDUE      1      MOL     
@<SCITEGIC>MOL_PROPERTY
VConf Rank
SciTegic.value.IntegerValue
220

@<SCITEGIC>MOL_PROPERTY
Conf_Id
SciTegic.value.IntegerValue
45

@<SCITEGIC>MOL_PROPERTY
Delta U+W
SciTegic.value.DoubleValue
2.303

@<SCITEGIC>MOL_PROPERTY
U+W
SciTegic.value.DoubleValue
-54.601

@<SCITEGIC>MOL_PROPERTY
Grad RMS
SciTegic.value.DoubleValue
0.000000

@<SCITEGIC>MOL_PROPERTY
U
SciTegic.value.DoubleValue
11.258

@<SCITEGIC>MOL_PROPERTY
W
SciTegic.value.DoubleValue
-65.860

@<SCITEGIC>MOL_PROPERTY
W(PB)
SciTegic.value.DoubleValue
-67.709

@<SCITEGIC>MOL_PROPERTY
W(SA)
SciTegic.value.DoubleValue
1.849

@<SCITEGIC>MOL_PROPERTY
Valence
SciTegic.value.DoubleValue
8.169

@<SCITEGIC>MOL_PROPERTY
Coulomb
SciTegic.value.DoubleValue
2.735

@<SCITEGIC>MOL_PROPERTY
VdW
SciTegic.value.DoubleValue
0.355

@<SCITEGIC>MOL_PROPERTY
VdW6
SciTegic.value.DoubleValue
-6.245

@<SCITEGIC>MOL_PROPERTY
VdW12
SciTegic.value.DoubleValue
6.600

@<SCITEGIC>MOL_PROPERTY
Bond
SciTegic.value.DoubleValue
0.149

@<SCITEGIC>MOL_PROPERTY
Angle
SciTegic.value.DoubleValue
3.168

@<SCITEGIC>MOL_PROPERTY
Pdih
SciTegic.value.DoubleValue
4.840

@<SCITEGIC>MOL_PROPERTY
Idih
SciTegic.value.DoubleValue
0.011

@<SCITEGIC>MOL_PROPERTY
Tether
SciTegic.value.DoubleValue
0.000

@<TRIPOS>MOLECULE
guest-s18_confgen4.mol2 : confsearch ligand conformer 221
          16          15           1
SMALL
USER_CHARGES
 
@<TRIPOS>ATOM
       1    C1      21.209640   18.385168   19.561247 C.2        1 MOL1         0.6075
       2    O1      20.197305   17.917751   19.077019 O.co2      1 MOL1        -0.6830
       3    O2      22.276573   18.397871   18.980898 O.co2      1 MOL1        -0.6830
       4    C2      21.170809   18.992548   20.964627 C.3        1 MOL1        -0.2050
       5    H1      21.514033   20.030556   20.881575 H          1 MOL1         0.0710
       6    H2      21.909939   18.458113   21.573092 H          1 MOL1         0.0710
       7    C3      19.787493   18.953109   21.666930 C.3        1 MOL1        -0.1947
       8    H3      19.050077   19.485326   21.050138 H          1 MOL1         0.0712
       9    H4      19.446403   17.911267   21.742380 H          1 MOL1         0.0712
      10    C4      19.840307   19.585096   23.073721 C.3        1 MOL1        -0.1921
      11    H5      20.179611   20.627624   22.999504 H          1 MOL1         0.0712
      12    H6      20.576174   19.052630   23.692170 H          1 MOL1         0.0712
      13    C5      18.463687   19.542953   23.766023 C.3        1 MOL1        -0.2936
      14    H7      17.714315   20.095323   23.183960 H          1 MOL1         0.0724
      15    H8      18.518762   19.995934   24.764480 H          1 MOL1         0.0724
      16    H9      18.113800   18.508710   23.881740 H          1 MOL1         0.0724
@<TRIPOS>BOND
    1     1     2    1
    2     1     3    2
    3     1     4    1
    4     4     5    1
    5     4     6    1
    6     4     7    1
    7     7     8    1
    8     7     9    1
    9     7    10    1
   10    10    11    1
   11    10    12    1
   12    10    13    1
   13    13    14    1
   14    13    15    1
   15    13    16    1
@<TRIPOS>SUBSTRUCTURE
       1 MOL1            1 RESIDUE      1      MOL     
@<SCITEGIC>MOL_PROPERTY
VConf Rank
SciTegic.value.IntegerValue
221

@<SCITEGIC>MOL_PROPERTY
Conf_Id
SciTegic.value.IntegerValue
0

@<SCITEGIC>MOL_PROPERTY
Delta U+W
SciTegic.value.DoubleValue
0.000

@<SCITEGIC>MOL_PROPERTY
U+W
SciTegic.value.DoubleValue
-56.904

@<SCITEGIC>MOL_PROPERTY
Grad RMS
SciTegic.value.DoubleValue
0.000000

@<SCITEGIC>MOL_PROPERTY
U
SciTegic.value.DoubleValue
7.329

@<SCITEGIC>MOL_PROPERTY
W
SciTegic.value.DoubleValue
-64.233

@<SCITEGIC>MOL_PROPERTY
W(PB)
SciTegic.value.DoubleValue
-66.148

@<SCITEGIC>MOL_PROPERTY
W(SA)
SciTegic.value.DoubleValue
1.915

@<SCITEGIC>MOL_PROPERTY
Valence
SciTegic.value.DoubleValue
6.755

@<SCITEGIC>MOL_PROPERTY
Coulomb
SciTegic.value.DoubleValue
-0.421

@<SCITEGIC>MOL_PROPERTY
VdW
SciTegic.value.DoubleValue
0.995

@<SCITEGIC>MOL_PROPERTY
VdW6
SciTegic.value.DoubleValue
-4.495

@<SCITEGIC>MOL_PROPERTY
VdW12
SciTegic.value.DoubleValue
5.490

@<SCITEGIC>MOL_PROPERTY
Bond
SciTegic.value.DoubleValue
0.106

@<SCITEGIC>MOL_PROPERTY
Angle
SciTegic.value.DoubleValue
2.715

@<SCITEGIC>MOL_PROPERTY
Pdih
SciTegic.value.DoubleValue
3.934

@<SCITEGIC>MOL_PROPERTY
Idih
SciTegic.value.DoubleValue
0.000

@<SCITEGIC>MOL_PROPERTY
Tether
SciTegic.value.DoubleValue
0.000

@<TRIPOS>MOLECULE
guest-s18_confgen4.mol2 : confsearch ligand conformer 222
          16          15           1
SMALL
USER_CHARGES
 
@<TRIPOS>ATOM
       1    C1      21.157174   17.723204   19.879304 C.2        1 MOL1         0.6075
       2    O1      21.476913   18.397778   18.920889 O.co2      1 MOL1        -0.6830
       3    O2      21.735338   16.706742   20.208506 O.co2      1 MOL1        -0.6830
       4    C2      19.977124   18.187427   20.725804 C.3        1 MOL1        -0.2050
       5    H1      19.474952   17.298910   21.127313 H          1 MOL1         0.0710
       6    H2      19.261965   18.693171   20.065788 H          1 MOL1         0.0710
       7    C3      20.397335   19.130403   21.880048 C.3        1 MOL1        -0.1947
       8    H3      21.122417   18.614413   22.524688 H          1 MOL1         0.0712
       9    H4      20.909485   20.008713   21.463123 H          1 MOL1         0.0712
      10    C4      19.185666   19.584981   22.720154 C.3        1 MOL1        -0.1921
      11    H5      18.673637   18.706963   23.137826 H          1 MOL1         0.0712
      12    H6      18.460627   20.101594   22.075974 H          1 MOL1         0.0712
      13    C5      19.611329   20.523070   23.866846 C.3        1 MOL1        -0.2936
      14    H7      20.098847   21.425649   23.475504 H          1 MOL1         0.0724
      15    H8      20.313451   20.020724   24.545186 H          1 MOL1         0.0724
      16    H9      18.738484   20.836849   24.454071 H          1 MOL1         0.0724
@<TRIPOS>BOND
    1     1     2    1
    2     1     3    2
    3     1     4    1
    4     4     5    1
    5     4     6    1
    6     4     7    1
    7     7     8    1
    8     7     9    1
    9     7    10    1
   10    10    11    1
   11    10    12    1
   12    10    13    1
   13    13    14    1
   14    13    15    1
   15    13    16    1
@<TRIPOS>SUBSTRUCTURE
       1 MOL1            1 RESIDUE      1      MOL     
@<SCITEGIC>MOL_PROPERTY
VConf Rank
SciTegic.value.IntegerValue
222

@<SCITEGIC>MOL_PROPERTY
Conf_Id
SciTegic.value.IntegerValue
22

@<SCITEGIC>MOL_PROPERTY
Delta U+W
SciTegic.value.DoubleValue
-1.185

@<SCITEGIC>MOL_PROPERTY
U+W
SciTegic.value.DoubleValue
-58.089

@<SCITEGIC>MOL_PROPERTY
Grad RMS
SciTegic.value.DoubleValue
0.000000

@<SCITEGIC>MOL_PROPERTY
U
SciTegic.value.DoubleValue
6.298

@<SCITEGIC>MOL_PROPERTY
W
SciTegic.value.DoubleValue
-64.387

@<SCITEGIC>MOL_PROPERTY
W(PB)
SciTegic.value.DoubleValue
-66.329

@<SCITEGIC>MOL_PROPERTY
W(SA)
SciTegic.value.DoubleValue
1.942

@<SCITEGIC>MOL_PROPERTY
Valence
SciTegic.value.DoubleValue
6.246

@<SCITEGIC>MOL_PROPERTY
Coulomb
SciTegic.value.DoubleValue
-0.408

@<SCITEGIC>MOL_PROPERTY
VdW
SciTegic.value.DoubleValue
0.460

@<SCITEGIC>MOL_PROPERTY
VdW6
SciTegic.value.DoubleValue
-4.207

@<SCITEGIC>MOL_PROPERTY
VdW12
SciTegic.value.DoubleValue
4.667

@<SCITEGIC>MOL_PROPERTY
Bond
SciTegic.value.DoubleValue
0.072

@<SCITEGIC>MOL_PROPERTY
Angle
SciTegic.value.DoubleValue
2.246

@<SCITEGIC>MOL_PROPERTY
Pdih
SciTegic.value.DoubleValue
3.928

@<SCITEGIC>MOL_PROPERTY
Idih
SciTegic.value.DoubleValue
0.001

@<SCITEGIC>MOL_PROPERTY
Tether
SciTegic.value.DoubleValue
0.000

@<TRIPOS>MOLECULE
guest-s18_confgen4.mol2 : confsearch ligand conformer 223
          16          15           1
SMALL
USER_CHARGES
 
@<TRIPOS>ATOM
       1    C1      21.332881   20.681820   23.559446 C.2        1 MOL1         0.6075
       2    O1      22.088943   20.241948   24.402582 O.co2      1 MOL1        -0.6830
       3    O2      20.863428   21.801710   23.597090 O.co2      1 MOL1        -0.6830
       4    C2      20.936181   19.771813   22.402256 C.3        1 MOL1        -0.2050
       5    H1      21.782758   19.109819   22.183996 H          1 MOL1         0.0710
       6    H2      20.780335   20.402169   21.519374 H          1 MOL1         0.0710
       7    C3      19.666775   18.933793   22.704453 C.3        1 MOL1        -0.1947
       8    H3      19.823256   18.380948   23.641098 H          1 MOL1         0.0712
       9    H4      18.816192   19.606996   22.879426 H          1 MOL1         0.0712
      10    C4      19.313859   17.926284   21.586068 C.3        1 MOL1        -0.1921
      11    H5      18.475166   17.302335   21.924581 H          1 MOL1         0.0712
      12    H6      20.159998   17.245449   21.419061 H          1 MOL1         0.0712
      13    C5      18.923694   18.605499   20.255890 C.3        1 MOL1        -0.2936
      14    H7      19.770664   19.150235   19.820361 H          1 MOL1         0.0724
      15    H8      18.097565   19.313260   20.403661 H          1 MOL1         0.0724
      16    H9      18.599022   17.855495   19.523026 H          1 MOL1         0.0724
@<TRIPOS>BOND
    1     1     2    1
    2     1     3    2
    3     1     4    1
    4     4     5    1
    5     4     6    1
    6     4     7    1
    7     7     8    1
    8     7     9    1
    9     7    10    1
   10    10    11    1
   11    10    12    1
   12    10    13    1
   13    13    14    1
   14    13    15    1
   15    13    16    1
@<TRIPOS>SUBSTRUCTURE
       1 MOL1            1 RESIDUE      1      MOL     
@<SCITEGIC>MOL_PROPERTY
VConf Rank
SciTegic.value.IntegerValue
223

@<SCITEGIC>MOL_PROPERTY
Conf_Id
SciTegic.value.IntegerValue
36

@<SCITEGIC>MOL_PROPERTY
Delta U+W
SciTegic.value.DoubleValue
-0.427

@<SCITEGIC>MOL_PROPERTY
U+W
SciTegic.value.DoubleValue
-57.331

@<SCITEGIC>MOL_PROPERTY
Grad RMS
SciTegic.value.DoubleValue
0.000000

@<SCITEGIC>MOL_PROPERTY
U
SciTegic.value.DoubleValue
7.263

@<SCITEGIC>MOL_PROPERTY
W
SciTegic.value.DoubleValue
-64.594

@<SCITEGIC>MOL_PROPERTY
W(PB)
SciTegic.value.DoubleValue
-66.513

@<SCITEGIC>MOL_PROPERTY
W(SA)
SciTegic.value.DoubleValue
1.920

@<SCITEGIC>MOL_PROPERTY
Valence
SciTegic.value.DoubleValue
6.734

@<SCITEGIC>MOL_PROPERTY
Coulomb
SciTegic.value.DoubleValue
-0.068

@<SCITEGIC>MOL_PROPERTY
VdW
SciTegic.value.DoubleValue
0.598

@<SCITEGIC>MOL_PROPERTY
VdW6
SciTegic.value.DoubleValue
-4.819

@<SCITEGIC>MOL_PROPERTY
VdW12
SciTegic.value.DoubleValue
5.417

@<SCITEGIC>MOL_PROPERTY
Bond
SciTegic.value.DoubleValue
0.107

@<SCITEGIC>MOL_PROPERTY
Angle
SciTegic.value.DoubleValue
2.469

@<SCITEGIC>MOL_PROPERTY
Pdih
SciTegic.value.DoubleValue
4.157

@<SCITEGIC>MOL_PROPERTY
Idih
SciTegic.value.DoubleValue
0.001

@<SCITEGIC>MOL_PROPERTY
Tether
SciTegic.value.DoubleValue
0.000

@<TRIPOS>MOLECULE
guest-s18_confgen4.mol2 : confsearch ligand conformer 224
          16          15           1
SMALL
USER_CHARGES
 
@<TRIPOS>ATOM
       1    C1      18.296560   17.777710   23.423896 C.2        1 MOL1         0.6075
       2    O1      18.512586   17.927452   24.610011 O.co2      1 MOL1        -0.6830
       3    O2      17.653941   16.851953   22.970014 O.co2      1 MOL1        -0.6830
       4    C2      18.880282   18.795423   22.450191 C.3        1 MOL1        -0.2050
       5    H1      18.895402   19.769004   22.953212 H          1 MOL1         0.0710
       6    H2      18.197054   18.880815   21.596684 H          1 MOL1         0.0710
       7    C3      20.301233   18.412768   21.960835 C.3        1 MOL1        -0.1947
       8    H3      20.985946   18.372076   22.819219 H          1 MOL1         0.0712
       9    H4      20.268764   17.397861   21.540908 H          1 MOL1         0.0712
      10    C4      20.863270   19.375708   20.889730 C.3        1 MOL1        -0.1921
      11    H5      20.184532   19.407531   20.026200 H          1 MOL1         0.0712
      12    H6      21.817380   18.975022   20.520359 H          1 MOL1         0.0712
      13    C5      21.096287   20.806645   21.419873 C.3        1 MOL1        -0.2936
      14    H7      20.151197   21.290739   21.695990 H          1 MOL1         0.0724
      15    H8      21.575131   21.427184   20.651337 H          1 MOL1         0.0724
      16    H9      21.749722   20.797249   22.302021 H          1 MOL1         0.0724
@<TRIPOS>BOND
    1     1     2    1
    2     1     3    2
    3     1     4    1
    4     4     5    1
    5     4     6    1
    6     4     7    1
    7     7     8    1
    8     7     9    1
    9     7    10    1
   10    10    11    1
   11    10    12    1
   12    10    13    1
   13    13    14    1
   14    13    15    1
   15    13    16    1
@<TRIPOS>SUBSTRUCTURE
       1 MOL1            1 RESIDUE      1      MOL     
@<SCITEGIC>MOL_PROPERTY
VConf Rank
SciTegic.value.IntegerValue
224

@<SCITEGIC>MOL_PROPERTY
Conf_Id
SciTegic.value.IntegerValue
17

@<SCITEGIC>MOL_PROPERTY
Delta U+W
SciTegic.value.DoubleValue
-0.432

@<SCITEGIC>MOL_PROPERTY
U+W
SciTegic.value.DoubleValue
-57.336

@<SCITEGIC>MOL_PROPERTY
Grad RMS
SciTegic.value.DoubleValue
0.000000

@<SCITEGIC>MOL_PROPERTY
U
SciTegic.value.DoubleValue
7.263

@<SCITEGIC>MOL_PROPERTY
W
SciTegic.value.DoubleValue
-64.599

@<SCITEGIC>MOL_PROPERTY
W(PB)
SciTegic.value.DoubleValue
-66.503

@<SCITEGIC>MOL_PROPERTY
W(SA)
SciTegic.value.DoubleValue
1.904

@<SCITEGIC>MOL_PROPERTY
Valence
SciTegic.value.DoubleValue
6.734

@<SCITEGIC>MOL_PROPERTY
Coulomb
SciTegic.value.DoubleValue
-0.068

@<SCITEGIC>MOL_PROPERTY
VdW
SciTegic.value.DoubleValue
0.598

@<SCITEGIC>MOL_PROPERTY
VdW6
SciTegic.value.DoubleValue
-4.819

@<SCITEGIC>MOL_PROPERTY
VdW12
SciTegic.value.DoubleValue
5.417

@<SCITEGIC>MOL_PROPERTY
Bond
SciTegic.value.DoubleValue
0.107

@<SCITEGIC>MOL_PROPERTY
Angle
SciTegic.value.DoubleValue
2.469

@<SCITEGIC>MOL_PROPERTY
Pdih
SciTegic.value.DoubleValue
4.157

@<SCITEGIC>MOL_PROPERTY
Idih
SciTegic.value.DoubleValue
0.001

@<SCITEGIC>MOL_PROPERTY
Tether
SciTegic.value.DoubleValue
0.000

@<TRIPOS>MOLECULE
guest-s18_confgen4.mol2 : confsearch ligand conformer 225
          16          15           1
SMALL
USER_CHARGES
 
@<TRIPOS>ATOM
       1    C1      18.497453   19.308452   20.390374 C.2        1 MOL1         0.6075
       2    O1      18.432391   20.412797   19.887849 O.co2      1 MOL1        -0.6830
       3    O2      18.561510   18.280536   19.745745 O.co2      1 MOL1        -0.6830
       4    C2      18.473048   19.208009   21.913137 C.3        1 MOL1        -0.2050
       5    H1      18.189445   18.185966   22.192570 H          1 MOL1         0.0710
       6    H2      17.674751   19.867996   22.272822 H          1 MOL1         0.0710
       7    C3      19.811202   19.596746   22.593769 C.3        1 MOL1        -0.1947
       8    H3      20.096936   20.611155   22.282393 H          1 MOL1         0.0712
       9    H4      19.661289   19.630317   23.681407 H          1 MOL1         0.0712
      10    C4      20.952217   18.608800   22.267840 C.3        1 MOL1        -0.1921
      11    H5      21.125123   18.582221   21.182888 H          1 MOL1         0.0712
      12    H6      20.660109   17.593055   22.568361 H          1 MOL1         0.0712
      13    C5      22.260776   18.999048   22.983188 C.3        1 MOL1        -0.2936
      14    H7      22.592189   19.999856   22.676595 H          1 MOL1         0.0724
      15    H8      23.060991   18.287834   22.740398 H          1 MOL1         0.0724
      16    H9      22.127670   19.000493   24.073003 H          1 MOL1         0.0724
@<TRIPOS>BOND
    1     1     2    1
    2     1     3    2
    3     1     4    1
    4     4     5    1
    5     4     6    1
    6     4     7    1
    7     7     8    1
    8     7     9    1
    9     7    10    1
   10    10    11    1
   11    10    12    1
   12    10    13    1
   13    13    14    1
   14    13    15    1
   15    13    16    1
@<TRIPOS>SUBSTRUCTURE
       1 MOL1            1 RESIDUE      1      MOL     
@<SCITEGIC>MOL_PROPERTY
VConf Rank
SciTegic.value.IntegerValue
225

@<SCITEGIC>MOL_PROPERTY
Conf_Id
SciTegic.value.IntegerValue
19

@<SCITEGIC>MOL_PROPERTY
Delta U+W
SciTegic.value.DoubleValue
0.048

@<SCITEGIC>MOL_PROPERTY
U+W
SciTegic.value.DoubleValue
-56.856

@<SCITEGIC>MOL_PROPERTY
Grad RMS
SciTegic.value.DoubleValue
0.000000

@<SCITEGIC>MOL_PROPERTY
U
SciTegic.value.DoubleValue
8.276

@<SCITEGIC>MOL_PROPERTY
W
SciTegic.value.DoubleValue
-65.132

@<SCITEGIC>MOL_PROPERTY
W(PB)
SciTegic.value.DoubleValue
-67.031

@<SCITEGIC>MOL_PROPERTY
W(SA)
SciTegic.value.DoubleValue
1.899

@<SCITEGIC>MOL_PROPERTY
Valence
SciTegic.value.DoubleValue
6.513

@<SCITEGIC>MOL_PROPERTY
Coulomb
SciTegic.value.DoubleValue
1.428

@<SCITEGIC>MOL_PROPERTY
VdW
SciTegic.value.DoubleValue
0.335

@<SCITEGIC>MOL_PROPERTY
VdW6
SciTegic.value.DoubleValue
-5.021

@<SCITEGIC>MOL_PROPERTY
VdW12
SciTegic.value.DoubleValue
5.356

@<SCITEGIC>MOL_PROPERTY
Bond
SciTegic.value.DoubleValue
0.092

@<SCITEGIC>MOL_PROPERTY
Angle
SciTegic.value.DoubleValue
2.417

@<SCITEGIC>MOL_PROPERTY
Pdih
SciTegic.value.DoubleValue
4.003

@<SCITEGIC>MOL_PROPERTY
Idih
SciTegic.value.DoubleValue
0.001

@<SCITEGIC>MOL_PROPERTY
Tether
SciTegic.value.DoubleValue
0.000

@<TRIPOS>MOLECULE
guest-s18_confgen4.mol2 : confsearch ligand conformer 226
          16          15           1
SMALL
USER_CHARGES
 
@<TRIPOS>ATOM
       1    C1      20.217576   17.082481   23.167379 C.2        1 MOL1         0.6075
       2    O1      19.479892   16.200254   22.775154 O.co2      1 MOL1        -0.6830
       3    O2      20.400764   17.331121   24.342488 O.co2      1 MOL1        -0.6830
       4    C2      20.971574   17.905975   22.126782 C.3        1 MOL1        -0.2050
       5    H1      21.386423   17.205842   21.391968 H          1 MOL1         0.0710
       6    H2      21.823486   18.393870   22.615953 H          1 MOL1         0.0710
       7    C3      20.096644   18.960095   21.399890 C.3        1 MOL1        -0.1947
       8    H3      20.679339   19.403445   20.581070 H          1 MOL1         0.0712
       9    H4      19.232695   18.461097   20.939222 H          1 MOL1         0.0712
      10    C4      19.610874   20.081453   22.343698 C.3        1 MOL1        -0.1921
      11    H5      20.475297   20.571264   22.812990 H          1 MOL1         0.0712
      12    H6      19.008965   19.651388   23.156394 H          1 MOL1         0.0712
      13    C5      18.772508   21.132635   21.589703 C.3        1 MOL1        -0.2936
      14    H7      19.360059   21.605362   20.791751 H          1 MOL1         0.0724
      15    H8      18.434668   21.921299   22.274531 H          1 MOL1         0.0724
      16    H9      17.884032   20.674095   21.136048 H          1 MOL1         0.0724
@<TRIPOS>BOND
    1     1     2    1
    2     1     3    2
    3     1     4    1
    4     4     5    1
    5     4     6    1
    6     4     7    1
    7     7     8    1
    8     7     9    1
    9     7    10    1
   10    10    11    1
   11    10    12    1
   12    10    13    1
   13    13    14    1
   14    13    15    1
   15    13    16    1
@<TRIPOS>SUBSTRUCTURE
       1 MOL1            1 RESIDUE      1      MOL     
@<SCITEGIC>MOL_PROPERTY
VConf Rank
SciTegic.value.IntegerValue
226

@<SCITEGIC>MOL_PROPERTY
Conf_Id
SciTegic.value.IntegerValue
20

@<SCITEGIC>MOL_PROPERTY
Delta U+W
SciTegic.value.DoubleValue
-0.010

@<SCITEGIC>MOL_PROPERTY
U+W
SciTegic.value.DoubleValue
-56.914

@<SCITEGIC>MOL_PROPERTY
Grad RMS
SciTegic.value.DoubleValue
0.000000

@<SCITEGIC>MOL_PROPERTY
U
SciTegic.value.DoubleValue
8.277

@<SCITEGIC>MOL_PROPERTY
W
SciTegic.value.DoubleValue
-65.191

@<SCITEGIC>MOL_PROPERTY
W(PB)
SciTegic.value.DoubleValue
-67.081

@<SCITEGIC>MOL_PROPERTY
W(SA)
SciTegic.value.DoubleValue
1.890

@<SCITEGIC>MOL_PROPERTY
Valence
SciTegic.value.DoubleValue
6.513

@<SCITEGIC>MOL_PROPERTY
Coulomb
SciTegic.value.DoubleValue
1.429

@<SCITEGIC>MOL_PROPERTY
VdW
SciTegic.value.DoubleValue
0.335

@<SCITEGIC>MOL_PROPERTY
VdW6
SciTegic.value.DoubleValue
-5.021

@<SCITEGIC>MOL_PROPERTY
VdW12
SciTegic.value.DoubleValue
5.356

@<SCITEGIC>MOL_PROPERTY
Bond
SciTegic.value.DoubleValue
0.092

@<SCITEGIC>MOL_PROPERTY
Angle
SciTegic.value.DoubleValue
2.417

@<SCITEGIC>MOL_PROPERTY
Pdih
SciTegic.value.DoubleValue
4.002

@<SCITEGIC>MOL_PROPERTY
Idih
SciTegic.value.DoubleValue
0.001

@<SCITEGIC>MOL_PROPERTY
Tether
SciTegic.value.DoubleValue
0.000

@<TRIPOS>MOLECULE
guest-s18_confgen4.mol2 : confsearch ligand conformer 227
          16          15           1
SMALL
USER_CHARGES
 
@<TRIPOS>ATOM
       1    C1      21.989404   19.034395   21.887617 C.2        1 MOL1         0.6075
       2    O1      22.500048   18.503149   20.921280 O.co2      1 MOL1        -0.6830
       3    O2      22.354829   18.840641   23.030081 O.co2      1 MOL1        -0.6830
       4    C2      20.851376   20.022905   21.647860 C.3        1 MOL1        -0.2050
       5    H1      21.191732   20.732098   20.884261 H          1 MOL1         0.0710
       6    H2      20.692320   20.605103   22.562734 H          1 MOL1         0.0710
       7    C3      19.524626   19.364126   21.180502 C.3        1 MOL1        -0.1947
       8    H3      18.791467   20.150623   20.956286 H          1 MOL1         0.0712
       9    H4      19.707454   18.834933   20.235049 H          1 MOL1         0.0712
      10    C4      18.911996   18.372398   22.197925 C.3        1 MOL1        -0.1921
      11    H5      19.623299   17.560610   22.404434 H          1 MOL1         0.0712
      12    H6      18.029271   17.901746   21.743598 H          1 MOL1         0.0712
      13    C5      18.492291   19.042160   23.523711 C.3        1 MOL1        -0.2936
      14    H7      19.364577   19.419289   24.072690 H          1 MOL1         0.0724
      15    H8      17.979007   18.320538   24.172295 H          1 MOL1         0.0724
      16    H9      17.807902   19.881034   23.342137 H          1 MOL1         0.0724
@<TRIPOS>BOND
    1     1     2    1
    2     1     3    2
    3     1     4    1
    4     4     5    1
    5     4     6    1
    6     4     7    1
    7     7     8    1
    8     7     9    1
    9     7    10    1
   10    10    11    1
   11    10    12    1
   12    10    13    1
   13    13    14    1
   14    13    15    1
   15    13    16    1
@<TRIPOS>SUBSTRUCTURE
       1 MOL1            1 RESIDUE      1      MOL     
@<SCITEGIC>MOL_PROPERTY
VConf Rank
SciTegic.value.IntegerValue
227

@<SCITEGIC>MOL_PROPERTY
Conf_Id
SciTegic.value.IntegerValue
37

@<SCITEGIC>MOL_PROPERTY
Delta U+W
SciTegic.value.DoubleValue
1.063

@<SCITEGIC>MOL_PROPERTY
U+W
SciTegic.value.DoubleValue
-55.841

@<SCITEGIC>MOL_PROPERTY
Grad RMS
SciTegic.value.DoubleValue
0.000000

@<SCITEGIC>MOL_PROPERTY
U
SciTegic.value.DoubleValue
9.719

@<SCITEGIC>MOL_PROPERTY
W
SciTegic.value.DoubleValue
-65.560

@<SCITEGIC>MOL_PROPERTY
W(PB)
SciTegic.value.DoubleValue
-67.414

@<SCITEGIC>MOL_PROPERTY
W(SA)
SciTegic.value.DoubleValue
1.854

@<SCITEGIC>MOL_PROPERTY
Valence
SciTegic.value.DoubleValue
7.002

@<SCITEGIC>MOL_PROPERTY
Coulomb
SciTegic.value.DoubleValue
2.402

@<SCITEGIC>MOL_PROPERTY
VdW
SciTegic.value.DoubleValue
0.314

@<SCITEGIC>MOL_PROPERTY
VdW6
SciTegic.value.DoubleValue
-5.861

@<SCITEGIC>MOL_PROPERTY
VdW12
SciTegic.value.DoubleValue
6.175

@<SCITEGIC>MOL_PROPERTY
Bond
SciTegic.value.DoubleValue
0.134

@<SCITEGIC>MOL_PROPERTY
Angle
SciTegic.value.DoubleValue
2.733

@<SCITEGIC>MOL_PROPERTY
Pdih
SciTegic.value.DoubleValue
4.133

@<SCITEGIC>MOL_PROPERTY
Idih
SciTegic.value.DoubleValue
0.002

@<SCITEGIC>MOL_PROPERTY
Tether
SciTegic.value.DoubleValue
0.000

@<TRIPOS>MOLECULE
guest-s18_confgen4.mol2 : confsearch ligand conformer 228
          16          15           1
SMALL
USER_CHARGES
 
@<TRIPOS>ATOM
       1    C1      19.642974   20.801938   23.437125 C.2        1 MOL1         0.6075
       2    O1      19.435202   20.693224   24.629516 O.co2      1 MOL1        -0.6830
       3    O2      20.352321   21.663238   22.956200 O.co2      1 MOL1        -0.6830
       4    C2      18.947105   19.824829   22.493318 C.3        1 MOL1        -0.2050
       5    H1      19.012486   20.215580   21.471415 H          1 MOL1         0.0710
       6    H2      17.882779   19.820519   22.756136 H          1 MOL1         0.0710
       7    C3      19.497623   18.373956   22.560979 C.3        1 MOL1        -0.1947
       8    H3      19.367517   17.994650   23.583991 H          1 MOL1         0.0712
       9    H4      18.889941   17.727633   21.913399 H          1 MOL1         0.0712
      10    C4      20.986589   18.237577   22.163019 C.3        1 MOL1        -0.1921
      11    H5      21.300111   17.196715   22.322518 H          1 MOL1         0.0712
      12    H6      21.609514   18.853222   22.826753 H          1 MOL1         0.0712
      13    C5      21.261377   18.620734   20.693283 C.3        1 MOL1        -0.2936
      14    H7      20.624736   18.043849   20.009941 H          1 MOL1         0.0724
      15    H8      22.308328   18.417805   20.433331 H          1 MOL1         0.0724
      16    H9      21.077696   19.688678   20.519377 H          1 MOL1         0.0724
@<TRIPOS>BOND
    1     1     2    1
    2     1     3    2
    3     1     4    1
    4     4     5    1
    5     4     6    1
    6     4     7    1
    7     7     8    1
    8     7     9    1
    9     7    10    1
   10    10    11    1
   11    10    12    1
   12    10    13    1
   13    13    14    1
   14    13    15    1
   15    13    16    1
@<TRIPOS>SUBSTRUCTURE
       1 MOL1            1 RESIDUE      1      MOL     
@<SCITEGIC>MOL_PROPERTY
VConf Rank
SciTegic.value.IntegerValue
228

@<SCITEGIC>MOL_PROPERTY
Conf_Id
SciTegic.value.IntegerValue
39

@<SCITEGIC>MOL_PROPERTY
Delta U+W
SciTegic.value.DoubleValue
1.129

@<SCITEGIC>MOL_PROPERTY
U+W
SciTegic.value.DoubleValue
-55.775

@<SCITEGIC>MOL_PROPERTY
Grad RMS
SciTegic.value.DoubleValue
0.000000

@<SCITEGIC>MOL_PROPERTY
U
SciTegic.value.DoubleValue
9.718

@<SCITEGIC>MOL_PROPERTY
W
SciTegic.value.DoubleValue
-65.493

@<SCITEGIC>MOL_PROPERTY
W(PB)
SciTegic.value.DoubleValue
-67.361

@<SCITEGIC>MOL_PROPERTY
W(SA)
SciTegic.value.DoubleValue
1.869

@<SCITEGIC>MOL_PROPERTY
Valence
SciTegic.value.DoubleValue
7.002

@<SCITEGIC>MOL_PROPERTY
Coulomb
SciTegic.value.DoubleValue
2.402

@<SCITEGIC>MOL_PROPERTY
VdW
SciTegic.value.DoubleValue
0.314

@<SCITEGIC>MOL_PROPERTY
VdW6
SciTegic.value.DoubleValue
-5.861

@<SCITEGIC>MOL_PROPERTY
VdW12
SciTegic.value.DoubleValue
6.175

@<SCITEGIC>MOL_PROPERTY
Bond
SciTegic.value.DoubleValue
0.134

@<SCITEGIC>MOL_PROPERTY
Angle
SciTegic.value.DoubleValue
2.734

@<SCITEGIC>MOL_PROPERTY
Pdih
SciTegic.value.DoubleValue
4.133

@<SCITEGIC>MOL_PROPERTY
Idih
SciTegic.value.DoubleValue
0.002

@<SCITEGIC>MOL_PROPERTY
Tether
SciTegic.value.DoubleValue
0.000

@<TRIPOS>MOLECULE
guest-s18_confgen4.mol2 : confsearch ligand conformer 229
          16          15           1
SMALL
USER_CHARGES
 
@<TRIPOS>ATOM
       1    C1      19.843932   20.648502   23.501920 C.2        1 MOL1         0.6075
       2    O1      19.530680   20.312805   24.627087 O.co2      1 MOL1        -0.6830
       3    O2      19.334818   21.584558   22.917318 O.co2      1 MOL1        -0.6830
       4    C2      20.998384   19.911934   22.824892 C.3        1 MOL1        -0.2050
       5    H1      21.392709   19.155843   23.514684 H          1 MOL1         0.0710
       6    H2      21.794993   20.651363   22.682037 H          1 MOL1         0.0710
       7    C3      20.659518   19.263791   21.453009 C.3        1 MOL1        -0.1947
       8    H3      20.080251   19.967534   20.839220 H          1 MOL1         0.0712
       9    H4      21.602319   19.097626   20.914525 H          1 MOL1         0.0712
      10    C4      19.922135   17.905977   21.543397 C.3        1 MOL1        -0.1921
      11    H5      20.503428   17.206017   22.159339 H          1 MOL1         0.0712
      12    H6      19.877523   17.467359   20.536959 H          1 MOL1         0.0712
      13    C5      18.484970   18.012020   22.094395 C.3        1 MOL1        -0.2936
      14    H7      18.483461   18.289361   23.155563 H          1 MOL1         0.0724
      15    H8      17.967329   17.048295   22.004674 H          1 MOL1         0.0724
      16    H9      17.904837   18.761833   21.540720 H          1 MOL1         0.0724
@<TRIPOS>BOND
    1     1     2    1
    2     1     3    2
    3     1     4    1
    4     4     5    1
    5     4     6    1
    6     4     7    1
    7     7     8    1
    8     7     9    1
    9     7    10    1
   10    10    11    1
   11    10    12    1
   12    10    13    1
   13    13    14    1
   14    13    15    1
   15    13    16    1
@<TRIPOS>SUBSTRUCTURE
       1 MOL1            1 RESIDUE      1      MOL     
@<SCITEGIC>MOL_PROPERTY
VConf Rank
SciTegic.value.IntegerValue
229

@<SCITEGIC>MOL_PROPERTY
Conf_Id
SciTegic.value.IntegerValue
47

@<SCITEGIC>MOL_PROPERTY
Delta U+W
SciTegic.value.DoubleValue
2.301

@<SCITEGIC>MOL_PROPERTY
U+W
SciTegic.value.DoubleValue
-54.603

@<SCITEGIC>MOL_PROPERTY
Grad RMS
SciTegic.value.DoubleValue
0.000000

@<SCITEGIC>MOL_PROPERTY
U
SciTegic.value.DoubleValue
11.258

@<SCITEGIC>MOL_PROPERTY
W
SciTegic.value.DoubleValue
-65.861

@<SCITEGIC>MOL_PROPERTY
W(PB)
SciTegic.value.DoubleValue
-67.702

@<SCITEGIC>MOL_PROPERTY
W(SA)
SciTegic.value.DoubleValue
1.841

@<SCITEGIC>MOL_PROPERTY
Valence
SciTegic.value.DoubleValue
8.169

@<SCITEGIC>MOL_PROPERTY
Coulomb
SciTegic.value.DoubleValue
2.735

@<SCITEGIC>MOL_PROPERTY
VdW
SciTegic.value.DoubleValue
0.355

@<SCITEGIC>MOL_PROPERTY
VdW6
SciTegic.value.DoubleValue
-6.245

@<SCITEGIC>MOL_PROPERTY
VdW12
SciTegic.value.DoubleValue
6.600

@<SCITEGIC>MOL_PROPERTY
Bond
SciTegic.value.DoubleValue
0.149

@<SCITEGIC>MOL_PROPERTY
Angle
SciTegic.value.DoubleValue
3.168

@<SCITEGIC>MOL_PROPERTY
Pdih
SciTegic.value.DoubleValue
4.840

@<SCITEGIC>MOL_PROPERTY
Idih
SciTegic.value.DoubleValue
0.011

@<SCITEGIC>MOL_PROPERTY
Tether
SciTegic.value.DoubleValue
0.000

@<TRIPOS>MOLECULE
guest-s18_confgen4.mol2 : confsearch ligand conformer 230
          16          15           1
SMALL
USER_CHARGES
 
@<TRIPOS>ATOM
       1    C1      19.971715   18.874014   24.244089 C.2        1 MOL1         0.6075
       2    O1      20.860358   18.084558   24.497530 O.co2      1 MOL1        -0.6830
       3    O2      18.861277   18.810455   24.733689 O.co2      1 MOL1        -0.6830
       4    C2      20.291824   20.058548   23.334103 C.3        1 MOL1        -0.2050
       5    H1      21.075155   20.634291   23.840720 H          1 MOL1         0.0710
       6    H2      19.412142   20.710948   23.274840 H          1 MOL1         0.0710
       7    C3      20.782439   19.686240   21.906633 C.3        1 MOL1        -0.1947
       8    H3      21.311662   20.555183   21.492730 H          1 MOL1         0.0712
       9    H4      21.525430   18.878696   21.964757 H          1 MOL1         0.0712
      10    C4      19.657393   19.302799   20.915267 C.3        1 MOL1        -0.1921
      11    H5      20.094043   19.217360   19.910612 H          1 MOL1         0.0712
      12    H6      18.915846   20.111774   20.861434 H          1 MOL1         0.0712
      13    C5      18.951801   17.973788   21.256079 C.3        1 MOL1        -0.2936
      14    H7      18.266188   17.685142   20.448992 H          1 MOL1         0.0724
      15    H8      18.360449   18.059891   22.175801 H          1 MOL1         0.0724
      16    H9      19.680433   17.163329   21.388671 H          1 MOL1         0.0724
@<TRIPOS>BOND
    1     1     2    1
    2     1     3    2
    3     1     4    1
    4     4     5    1
    5     4     6    1
    6     4     7    1
    7     7     8    1
    8     7     9    1
    9     7    10    1
   10    10    11    1
   11    10    12    1
   12    10    13    1
   13    13    14    1
   14    13    15    1
   15    13    16    1
@<TRIPOS>SUBSTRUCTURE
       1 MOL1            1 RESIDUE      1      MOL     
@<SCITEGIC>MOL_PROPERTY
VConf Rank
SciTegic.value.IntegerValue
230

@<SCITEGIC>MOL_PROPERTY
Conf_Id
SciTegic.value.IntegerValue
45

@<SCITEGIC>MOL_PROPERTY
Delta U+W
SciTegic.value.DoubleValue
2.303

@<SCITEGIC>MOL_PROPERTY
U+W
SciTegic.value.DoubleValue
-54.601

@<SCITEGIC>MOL_PROPERTY
Grad RMS
SciTegic.value.DoubleValue
0.000000

@<SCITEGIC>MOL_PROPERTY
U
SciTegic.value.DoubleValue
11.258

@<SCITEGIC>MOL_PROPERTY
W
SciTegic.value.DoubleValue
-65.860

@<SCITEGIC>MOL_PROPERTY
W(PB)
SciTegic.value.DoubleValue
-67.709

@<SCITEGIC>MOL_PROPERTY
W(SA)
SciTegic.value.DoubleValue
1.849

@<SCITEGIC>MOL_PROPERTY
Valence
SciTegic.value.DoubleValue
8.169

@<SCITEGIC>MOL_PROPERTY
Coulomb
SciTegic.value.DoubleValue
2.735

@<SCITEGIC>MOL_PROPERTY
VdW
SciTegic.value.DoubleValue
0.355

@<SCITEGIC>MOL_PROPERTY
VdW6
SciTegic.value.DoubleValue
-6.245

@<SCITEGIC>MOL_PROPERTY
VdW12
SciTegic.value.DoubleValue
6.600

@<SCITEGIC>MOL_PROPERTY
Bond
SciTegic.value.DoubleValue
0.149

@<SCITEGIC>MOL_PROPERTY
Angle
SciTegic.value.DoubleValue
3.168

@<SCITEGIC>MOL_PROPERTY
Pdih
SciTegic.value.DoubleValue
4.840

@<SCITEGIC>MOL_PROPERTY
Idih
SciTegic.value.DoubleValue
0.011

@<SCITEGIC>MOL_PROPERTY
Tether
SciTegic.value.DoubleValue
0.000

@<TRIPOS>MOLECULE
guest-s18_confgen4.mol2 : confsearch ligand conformer 231
          16          15           1
SMALL
USER_CHARGES
 
@<TRIPOS>ATOM
       1    C1      17.961694   19.793521   23.665366 C.2        1 MOL1         0.6075
       2    O1      17.417749   20.551552   22.886079 O.co2      1 MOL1        -0.6830
       3    O2      17.540446   19.579622   24.784343 O.co2      1 MOL1        -0.6830
       4    C2      19.237473   19.060262   23.247496 C.3        1 MOL1        -0.2050
       5    H1      19.046567   17.985681   23.352335 H          1 MOL1         0.0710
       6    H2      20.016893   19.319831   23.973644 H          1 MOL1         0.0710
       7    C3      19.738055   19.365354   21.810595 C.3        1 MOL1        -0.1947
       8    H3      18.951061   19.108431   21.088030 H          1 MOL1         0.0712
       9    H4      19.922400   20.443948   21.709987 H          1 MOL1         0.0712
      10    C4      21.026203   18.585078   21.474287 C.3        1 MOL1        -0.1921
      11    H5      20.842711   17.506133   21.572814 H          1 MOL1         0.0712
      12    H6      21.814641   18.842441   22.195141 H          1 MOL1         0.0712
      13    C5      21.518342   18.892225   20.046141 C.3        1 MOL1        -0.2936
      14    H7      20.760610   18.614987   19.301526 H          1 MOL1         0.0724
      15    H8      22.434370   18.329758   19.823284 H          1 MOL1         0.0724
      16    H9      21.739713   19.961154   19.928438 H          1 MOL1         0.0724
@<TRIPOS>BOND
    1     1     2    1
    2     1     3    2
    3     1     4    1
    4     4     5    1
    5     4     6    1
    6     4     7    1
    7     7     8    1
    8     7     9    1
    9     7    10    1
   10    10    11    1
   11    10    12    1
   12    10    13    1
   13    13    14    1
   14    13    15    1
   15    13    16    1
@<TRIPOS>SUBSTRUCTURE
       1 MOL1            1 RESIDUE      1      MOL     
@<SCITEGIC>MOL_PROPERTY
VConf Rank
SciTegic.value.IntegerValue
231

@<SCITEGIC>MOL_PROPERTY
Conf_Id
SciTegic.value.IntegerValue
0

@<SCITEGIC>MOL_PROPERTY
Delta U+W
SciTegic.value.DoubleValue
0.000

@<SCITEGIC>MOL_PROPERTY
U+W
SciTegic.value.DoubleValue
-56.904

@<SCITEGIC>MOL_PROPERTY
Grad RMS
SciTegic.value.DoubleValue
0.000000

@<SCITEGIC>MOL_PROPERTY
U
SciTegic.value.DoubleValue
7.329

@<SCITEGIC>MOL_PROPERTY
W
SciTegic.value.DoubleValue
-64.233

@<SCITEGIC>MOL_PROPERTY
W(PB)
SciTegic.value.DoubleValue
-66.148

@<SCITEGIC>MOL_PROPERTY
W(SA)
SciTegic.value.DoubleValue
1.915

@<SCITEGIC>MOL_PROPERTY
Valence
SciTegic.value.DoubleValue
6.755

@<SCITEGIC>MOL_PROPERTY
Coulomb
SciTegic.value.DoubleValue
-0.421

@<SCITEGIC>MOL_PROPERTY
VdW
SciTegic.value.DoubleValue
0.995

@<SCITEGIC>MOL_PROPERTY
VdW6
SciTegic.value.DoubleValue
-4.495

@<SCITEGIC>MOL_PROPERTY
VdW12
SciTegic.value.DoubleValue
5.490

@<SCITEGIC>MOL_PROPERTY
Bond
SciTegic.value.DoubleValue
0.106

@<SCITEGIC>MOL_PROPERTY
Angle
SciTegic.value.DoubleValue
2.715

@<SCITEGIC>MOL_PROPERTY
Pdih
SciTegic.value.DoubleValue
3.934

@<SCITEGIC>MOL_PROPERTY
Idih
SciTegic.value.DoubleValue
0.000

@<SCITEGIC>MOL_PROPERTY
Tether
SciTegic.value.DoubleValue
0.000

@<TRIPOS>MOLECULE
guest-s18_confgen4.mol2 : confsearch ligand conformer 232
          16          15           1
SMALL
USER_CHARGES
 
@<TRIPOS>ATOM
       1    C1      21.453191   20.892609   20.415919 C.2        1 MOL1         0.6075
       2    O1      21.798892   21.902291   20.996328 O.co2      1 MOL1        -0.6830
       3    O2      22.084152   20.390351   19.507365 O.co2      1 MOL1        -0.6830
       4    C2      20.166606   20.208321   20.864283 C.3        1 MOL1        -0.2050
       5    H1      19.708137   19.735719   19.987184 H          1 MOL1         0.0710
       6    H2      19.473014   20.982193   21.214858 H          1 MOL1         0.0710
       7    C3      20.399444   19.156541   21.976761 C.3        1 MOL1        -0.1947
       8    H3      21.105137   18.395764   21.615145 H          1 MOL1         0.0712
       9    H4      20.870069   19.642279   22.842857 H          1 MOL1         0.0712
      10    C4      19.082880   18.479799   22.411782 C.3        1 MOL1        -0.1921
      11    H5      18.612283   17.993352   21.546076 H          1 MOL1         0.0712
      12    H6      18.377135   19.240199   22.774072 H          1 MOL1         0.0712
      13    C5      19.322224   17.434426   23.519035 C.3        1 MOL1        -0.2936
      14    H7      19.764039   17.899944   24.409857 H          1 MOL1         0.0724
      15    H8      20.000944   16.643900   23.172797 H          1 MOL1         0.0724
      16    H9      18.376597   16.962904   23.816704 H          1 MOL1         0.0724
@<TRIPOS>BOND
    1     1     2    1
    2     1     3    2
    3     1     4    1
    4     4     5    1
    5     4     6    1
    6     4     7    1
    7     7     8    1
    8     7     9    1
    9     7    10    1
   10    10    11    1
   11    10    12    1
   12    10    13    1
   13    13    14    1
   14    13    15    1
   15    13    16    1
@<TRIPOS>SUBSTRUCTURE
       1 MOL1            1 RESIDUE      1      MOL     
@<SCITEGIC>MOL_PROPERTY
VConf Rank
SciTegic.value.IntegerValue
232

@<SCITEGIC>MOL_PROPERTY
Conf_Id
SciTegic.value.IntegerValue
22

@<SCITEGIC>MOL_PROPERTY
Delta U+W
SciTegic.value.DoubleValue
-1.185

@<SCITEGIC>MOL_PROPERTY
U+W
SciTegic.value.DoubleValue
-58.089

@<SCITEGIC>MOL_PROPERTY
Grad RMS
SciTegic.value.DoubleValue
0.000000

@<SCITEGIC>MOL_PROPERTY
U
SciTegic.value.DoubleValue
6.298

@<SCITEGIC>MOL_PROPERTY
W
SciTegic.value.DoubleValue
-64.387

@<SCITEGIC>MOL_PROPERTY
W(PB)
SciTegic.value.DoubleValue
-66.329

@<SCITEGIC>MOL_PROPERTY
W(SA)
SciTegic.value.DoubleValue
1.942

@<SCITEGIC>MOL_PROPERTY
Valence
SciTegic.value.DoubleValue
6.246

@<SCITEGIC>MOL_PROPERTY
Coulomb
SciTegic.value.DoubleValue
-0.408

@<SCITEGIC>MOL_PROPERTY
VdW
SciTegic.value.DoubleValue
0.460

@<SCITEGIC>MOL_PROPERTY
VdW6
SciTegic.value.DoubleValue
-4.207

@<SCITEGIC>MOL_PROPERTY
VdW12
SciTegic.value.DoubleValue
4.667

@<SCITEGIC>MOL_PROPERTY
Bond
SciTegic.value.DoubleValue
0.072

@<SCITEGIC>MOL_PROPERTY
Angle
SciTegic.value.DoubleValue
2.246

@<SCITEGIC>MOL_PROPERTY
Pdih
SciTegic.value.DoubleValue
3.928

@<SCITEGIC>MOL_PROPERTY
Idih
SciTegic.value.DoubleValue
0.001

@<SCITEGIC>MOL_PROPERTY
Tether
SciTegic.value.DoubleValue
0.000

@<TRIPOS>MOLECULE
guest-s18_confgen4.mol2 : confsearch ligand conformer 233
          16          15           1
SMALL
USER_CHARGES
 
@<TRIPOS>ATOM
       1    C1      18.805107   20.401403   23.932666 C.2        1 MOL1         0.6075
       2    O1      17.621885   20.676489   23.915126 O.co2      1 MOL1        -0.6830
       3    O2      19.617072   20.972893   24.632715 O.co2      1 MOL1        -0.6830
       4    C2      19.300691   19.292344   23.011278 C.3        1 MOL1        -0.2050
       5    H1      18.498535   18.551808   22.907751 H          1 MOL1         0.0710
       6    H2      20.140594   18.794417   23.509021 H          1 MOL1         0.0710
       7    C3      19.727453   19.816313   21.615454 C.3        1 MOL1        -0.1947
       8    H3      18.892924   20.383980   21.181006 H          1 MOL1         0.0712
       9    H4      20.559601   20.524858   21.728599 H          1 MOL1         0.0712
      10    C4      20.128612   18.692367   20.632487 C.3        1 MOL1        -0.1921
      11    H5      20.309122   19.135879   19.643537 H          1 MOL1         0.0712
      12    H6      19.292392   17.990127   20.510115 H          1 MOL1         0.0712
      13    C5      21.392855   17.922776   21.071068 C.3        1 MOL1        -0.2936
      14    H7      21.221787   17.368251   22.002206 H          1 MOL1         0.0724
      15    H8      22.235676   18.608584   21.227818 H          1 MOL1         0.0724
      16    H9      21.686410   17.197083   20.301521 H          1 MOL1         0.0724
@<TRIPOS>BOND
    1     1     2    1
    2     1     3    2
    3     1     4    1
    4     4     5    1
    5     4     6    1
    6     4     7    1
    7     7     8    1
    8     7     9    1
    9     7    10    1
   10    10    11    1
   11    10    12    1
   12    10    13    1
   13    13    14    1
   14    13    15    1
   15    13    16    1
@<TRIPOS>SUBSTRUCTURE
       1 MOL1            1 RESIDUE      1      MOL     
@<SCITEGIC>MOL_PROPERTY
VConf Rank
SciTegic.value.IntegerValue
233

@<SCITEGIC>MOL_PROPERTY
Conf_Id
SciTegic.value.IntegerValue
36

@<SCITEGIC>MOL_PROPERTY
Delta U+W
SciTegic.value.DoubleValue
-0.427

@<SCITEGIC>MOL_PROPERTY
U+W
SciTegic.value.DoubleValue
-57.331

@<SCITEGIC>MOL_PROPERTY
Grad RMS
SciTegic.value.DoubleValue
0.000000

@<SCITEGIC>MOL_PROPERTY
U
SciTegic.value.DoubleValue
7.263

@<SCITEGIC>MOL_PROPERTY
W
SciTegic.value.DoubleValue
-64.594

@<SCITEGIC>MOL_PROPERTY
W(PB)
SciTegic.value.DoubleValue
-66.513

@<SCITEGIC>MOL_PROPERTY
W(SA)
SciTegic.value.DoubleValue
1.920

@<SCITEGIC>MOL_PROPERTY
Valence
SciTegic.value.DoubleValue
6.734

@<SCITEGIC>MOL_PROPERTY
Coulomb
SciTegic.value.DoubleValue
-0.068

@<SCITEGIC>MOL_PROPERTY
VdW
SciTegic.value.DoubleValue
0.598

@<SCITEGIC>MOL_PROPERTY
VdW6
SciTegic.value.DoubleValue
-4.819

@<SCITEGIC>MOL_PROPERTY
VdW12
SciTegic.value.DoubleValue
5.417

@<SCITEGIC>MOL_PROPERTY
Bond
SciTegic.value.DoubleValue
0.107

@<SCITEGIC>MOL_PROPERTY
Angle
SciTegic.value.DoubleValue
2.469

@<SCITEGIC>MOL_PROPERTY
Pdih
SciTegic.value.DoubleValue
4.157

@<SCITEGIC>MOL_PROPERTY
Idih
SciTegic.value.DoubleValue
0.001

@<SCITEGIC>MOL_PROPERTY
Tether
SciTegic.value.DoubleValue
0.000

@<TRIPOS>MOLECULE
guest-s18_confgen4.mol2 : confsearch ligand conformer 234
          16          15           1
SMALL
USER_CHARGES
 
@<TRIPOS>ATOM
       1    C1      19.735926   17.491532   23.970451 C.2        1 MOL1         0.6075
       2    O1      19.872858   16.341814   23.602543 O.co2      1 MOL1        -0.6830
       3    O2      19.205189   17.802651   25.018076 O.co2      1 MOL1        -0.6830
       4    C2      20.239226   18.605405   23.059107 C.3        1 MOL1        -0.2050
       5    H1      21.123446   18.231236   22.530647 H          1 MOL1         0.0710
       6    H2      20.566585   19.440138   23.690474 H          1 MOL1         0.0710
       7    C3      19.165003   19.088043   22.050098 C.3        1 MOL1        -0.1947
       8    H3      18.876118   18.254218   21.395429 H          1 MOL1         0.0712
       9    H4      18.261381   19.374013   22.606082 H          1 MOL1         0.0712
      10    C4      19.622180   20.290790   21.192895 C.3        1 MOL1        -0.1921
      11    H5      19.899962   21.128781   21.847103 H          1 MOL1         0.0712
      12    H6      18.772425   20.636988   20.588435 H          1 MOL1         0.0712
      13    C5      20.798603   19.955074   20.251485 C.3        1 MOL1        -0.2936
      14    H7      21.707341   19.712237   20.816294 H          1 MOL1         0.0724
      15    H8      21.028622   20.811561   19.604547 H          1 MOL1         0.0724
      16    H9      20.554424   19.100658   19.606815 H          1 MOL1         0.0724
@<TRIPOS>BOND
    1     1     2    1
    2     1     3    2
    3     1     4    1
    4     4     5    1
    5     4     6    1
    6     4     7    1
    7     7     8    1
    8     7     9    1
    9     7    10    1
   10    10    11    1
   11    10    12    1
   12    10    13    1
   13    13    14    1
   14    13    15    1
   15    13    16    1
@<TRIPOS>SUBSTRUCTURE
       1 MOL1            1 RESIDUE      1      MOL     
@<SCITEGIC>MOL_PROPERTY
VConf Rank
SciTegic.value.IntegerValue
234

@<SCITEGIC>MOL_PROPERTY
Conf_Id
SciTegic.value.IntegerValue
17

@<SCITEGIC>MOL_PROPERTY
Delta U+W
SciTegic.value.DoubleValue
-0.432

@<SCITEGIC>MOL_PROPERTY
U+W
SciTegic.value.DoubleValue
-57.336

@<SCITEGIC>MOL_PROPERTY
Grad RMS
SciTegic.value.DoubleValue
0.000000

@<SCITEGIC>MOL_PROPERTY
U
SciTegic.value.DoubleValue
7.263

@<SCITEGIC>MOL_PROPERTY
W
SciTegic.value.DoubleValue
-64.599

@<SCITEGIC>MOL_PROPERTY
W(PB)
SciTegic.value.DoubleValue
-66.503

@<SCITEGIC>MOL_PROPERTY
W(SA)
SciTegic.value.DoubleValue
1.904

@<SCITEGIC>MOL_PROPERTY
Valence
SciTegic.value.DoubleValue
6.734

@<SCITEGIC>MOL_PROPERTY
Coulomb
SciTegic.value.DoubleValue
-0.068

@<SCITEGIC>MOL_PROPERTY
VdW
SciTegic.value.DoubleValue
0.598

@<SCITEGIC>MOL_PROPERTY
VdW6
SciTegic.value.DoubleValue
-4.819

@<SCITEGIC>MOL_PROPERTY
VdW12
SciTegic.value.DoubleValue
5.417

@<SCITEGIC>MOL_PROPERTY
Bond
SciTegic.value.DoubleValue
0.107

@<SCITEGIC>MOL_PROPERTY
Angle
SciTegic.value.DoubleValue
2.469

@<SCITEGIC>MOL_PROPERTY
Pdih
SciTegic.value.DoubleValue
4.157

@<SCITEGIC>MOL_PROPERTY
Idih
SciTegic.value.DoubleValue
0.001

@<SCITEGIC>MOL_PROPERTY
Tether
SciTegic.value.DoubleValue
0.000

@<TRIPOS>MOLECULE
guest-s18_confgen4.mol2 : confsearch ligand conformer 235
          16          15           1
SMALL
USER_CHARGES
 
@<TRIPOS>ATOM
       1    C1      19.177213   18.305721   20.091340 C.2        1 MOL1         0.6075
       2    O1      17.977146   18.481212   20.017958 O.co2      1 MOL1        -0.6830
       3    O2      19.951946   18.583459   19.197521 O.co2      1 MOL1        -0.6830
       4    C2      19.736577   17.680482   21.366361 C.3        1 MOL1        -0.2050
       5    H1      20.732692   17.275301   21.150336 H          1 MOL1         0.0710
       6    H2      19.096262   16.827929   21.622064 H          1 MOL1         0.0710
       7    C3      19.805272   18.655026   22.570761 C.3        1 MOL1        -0.1947
       8    H3      18.806816   19.074480   22.757224 H          1 MOL1         0.0712
       9    H4      20.084086   18.090315   23.470718 H          1 MOL1         0.0712
      10    C4      20.820273   19.798005   22.352689 C.3        1 MOL1        -0.1921
      11    H5      20.539570   20.383018   21.465734 H          1 MOL1         0.0712
      12    H6      21.815572   19.376924   22.154076 H          1 MOL1         0.0712
      13    C5      20.893322   20.731748   23.577080 C.3        1 MOL1        -0.2936
      14    H7      19.916691   21.190820   23.779304 H          1 MOL1         0.0724
      15    H8      21.617966   21.538312   23.405436 H          1 MOL1         0.0724
      16    H9      21.205696   20.180530   24.473738 H          1 MOL1         0.0724
@<TRIPOS>BOND
    1     1     2    1
    2     1     3    2
    3     1     4    1
    4     4     5    1
    5     4     6    1
    6     4     7    1
    7     7     8    1
    8     7     9    1
    9     7    10    1
   10    10    11    1
   11    10    12    1
   12    10    13    1
   13    13    14    1
   14    13    15    1
   15    13    16    1
@<TRIPOS>SUBSTRUCTURE
       1 MOL1            1 RESIDUE      1      MOL     
@<SCITEGIC>MOL_PROPERTY
VConf Rank
SciTegic.value.IntegerValue
235

@<SCITEGIC>MOL_PROPERTY
Conf_Id
SciTegic.value.IntegerValue
19

@<SCITEGIC>MOL_PROPERTY
Delta U+W
SciTegic.value.DoubleValue
0.048

@<SCITEGIC>MOL_PROPERTY
U+W
SciTegic.value.DoubleValue
-56.856

@<SCITEGIC>MOL_PROPERTY
Grad RMS
SciTegic.value.DoubleValue
0.000000

@<SCITEGIC>MOL_PROPERTY
U
SciTegic.value.DoubleValue
8.276

@<SCITEGIC>MOL_PROPERTY
W
SciTegic.value.DoubleValue
-65.132

@<SCITEGIC>MOL_PROPERTY
W(PB)
SciTegic.value.DoubleValue
-67.031

@<SCITEGIC>MOL_PROPERTY
W(SA)
SciTegic.value.DoubleValue
1.899

@<SCITEGIC>MOL_PROPERTY
Valence
SciTegic.value.DoubleValue
6.513

@<SCITEGIC>MOL_PROPERTY
Coulomb
SciTegic.value.DoubleValue
1.428

@<SCITEGIC>MOL_PROPERTY
VdW
SciTegic.value.DoubleValue
0.335

@<SCITEGIC>MOL_PROPERTY
VdW6
SciTegic.value.DoubleValue
-5.021

@<SCITEGIC>MOL_PROPERTY
VdW12
SciTegic.value.DoubleValue
5.356

@<SCITEGIC>MOL_PROPERTY
Bond
SciTegic.value.DoubleValue
0.092

@<SCITEGIC>MOL_PROPERTY
Angle
SciTegic.value.DoubleValue
2.417

@<SCITEGIC>MOL_PROPERTY
Pdih
SciTegic.value.DoubleValue
4.003

@<SCITEGIC>MOL_PROPERTY
Idih
SciTegic.value.DoubleValue
0.001

@<SCITEGIC>MOL_PROPERTY
Tether
SciTegic.value.DoubleValue
0.000

@<TRIPOS>MOLECULE
guest-s18_confgen4.mol2 : confsearch ligand conformer 236
          16          15           1
SMALL
USER_CHARGES
 
@<TRIPOS>ATOM
       1    C1      21.233852   18.026571   23.653625 C.2        1 MOL1         0.6075
       2    O1      20.991152   16.839198   23.740714 O.co2      1 MOL1        -0.6830
       3    O2      21.340023   18.762098   24.614869 O.co2      1 MOL1        -0.6830
       4    C2      21.439153   18.619108   22.262134 C.3        1 MOL1        -0.2050
       5    H1      22.097988   17.938719   21.709646 H          1 MOL1         0.0710
       6    H2      21.976947   19.569861   22.361795 H          1 MOL1         0.0710
       7    C3      20.125938   18.828543   21.464232 C.3        1 MOL1        -0.1947
       8    H3      20.376676   19.122826   20.436085 H          1 MOL1         0.0712
       9    H4      19.584547   17.874599   21.397090 H          1 MOL1         0.0712
      10    C4      19.214024   19.904217   22.093143 C.3        1 MOL1        -0.1921
      11    H5      19.760731   20.854178   22.171002 H          1 MOL1         0.0712
      12    H6      18.939742   19.610263   23.115925 H          1 MOL1         0.0712
      13    C5      17.932698   20.116330   21.262743 C.3        1 MOL1        -0.2936
      14    H7      18.174712   20.444783   20.243449 H          1 MOL1         0.0724
      15    H8      17.295842   20.882614   21.723548 H          1 MOL1         0.0724
      16    H9      17.350772   19.187768   21.195020 H          1 MOL1         0.0724
@<TRIPOS>BOND
    1     1     2    1
    2     1     3    2
    3     1     4    1
    4     4     5    1
    5     4     6    1
    6     4     7    1
    7     7     8    1
    8     7     9    1
    9     7    10    1
   10    10    11    1
   11    10    12    1
   12    10    13    1
   13    13    14    1
   14    13    15    1
   15    13    16    1
@<TRIPOS>SUBSTRUCTURE
       1 MOL1            1 RESIDUE      1      MOL     
@<SCITEGIC>MOL_PROPERTY
VConf Rank
SciTegic.value.IntegerValue
236

@<SCITEGIC>MOL_PROPERTY
Conf_Id
SciTegic.value.IntegerValue
20

@<SCITEGIC>MOL_PROPERTY
Delta U+W
SciTegic.value.DoubleValue
-0.010

@<SCITEGIC>MOL_PROPERTY
U+W
SciTegic.value.DoubleValue
-56.914

@<SCITEGIC>MOL_PROPERTY
Grad RMS
SciTegic.value.DoubleValue
0.000000

@<SCITEGIC>MOL_PROPERTY
U
SciTegic.value.DoubleValue
8.277

@<SCITEGIC>MOL_PROPERTY
W
SciTegic.value.DoubleValue
-65.191

@<SCITEGIC>MOL_PROPERTY
W(PB)
SciTegic.value.DoubleValue
-67.081

@<SCITEGIC>MOL_PROPERTY
W(SA)
SciTegic.value.DoubleValue
1.890

@<SCITEGIC>MOL_PROPERTY
Valence
SciTegic.value.DoubleValue
6.513

@<SCITEGIC>MOL_PROPERTY
Coulomb
SciTegic.value.DoubleValue
1.429

@<SCITEGIC>MOL_PROPERTY
VdW
SciTegic.value.DoubleValue
0.335

@<SCITEGIC>MOL_PROPERTY
VdW6
SciTegic.value.DoubleValue
-5.021

@<SCITEGIC>MOL_PROPERTY
VdW12
SciTegic.value.DoubleValue
5.356

@<SCITEGIC>MOL_PROPERTY
Bond
SciTegic.value.DoubleValue
0.092

@<SCITEGIC>MOL_PROPERTY
Angle
SciTegic.value.DoubleValue
2.417

@<SCITEGIC>MOL_PROPERTY
Pdih
SciTegic.value.DoubleValue
4.002

@<SCITEGIC>MOL_PROPERTY
Idih
SciTegic.value.DoubleValue
0.001

@<SCITEGIC>MOL_PROPERTY
Tether
SciTegic.value.DoubleValue
0.000

@<TRIPOS>MOLECULE
guest-s18_confgen4.mol2 : confsearch ligand conformer 237
          16          15           1
SMALL
USER_CHARGES
 
@<TRIPOS>ATOM
       1    C1      20.176269   18.840494   20.070998 C.2        1 MOL1         0.6075
       2    O1      19.273846   18.838216   19.257111 O.co2      1 MOL1        -0.6830
       3    O2      21.051559   17.998409   20.103567 O.co2      1 MOL1        -0.6830
       4    C2      20.229637   19.981689   21.083208 C.3        1 MOL1        -0.2050
       5    H1      20.140834   20.919132   20.521784 H          1 MOL1         0.0710
       6    H2      21.221439   19.992399   21.549534 H          1 MOL1         0.0710
       7    C3      19.116533   19.924774   22.165076 C.3        1 MOL1        -0.1947
       8    H3      19.182236   20.820819   22.796865 H          1 MOL1         0.0712
       9    H4      18.138058   19.970065   21.667190 H          1 MOL1         0.0712
      10    C4      19.162923   18.665012   23.062204 C.3        1 MOL1        -0.1921
      11    H5      19.062948   17.761581   22.444617 H          1 MOL1         0.0712
      12    H6      18.293315   18.678238   23.733572 H          1 MOL1         0.0712
      13    C5      20.447375   18.570545   23.912911 C.3        1 MOL1        -0.2936
      14    H7      21.333836   18.430962   23.281096 H          1 MOL1         0.0724
      15    H8      20.391132   17.715374   24.598754 H          1 MOL1         0.0724
      16    H9      20.589661   19.478039   24.513974 H          1 MOL1         0.0724
@<TRIPOS>BOND
    1     1     2    1
    2     1     3    2
    3     1     4    1
    4     4     5    1
    5     4     6    1
    6     4     7    1
    7     7     8    1
    8     7     9    1
    9     7    10    1
   10    10    11    1
   11    10    12    1
   12    10    13    1
   13    13    14    1
   14    13    15    1
   15    13    16    1
@<TRIPOS>SUBSTRUCTURE
       1 MOL1            1 RESIDUE      1      MOL     
@<SCITEGIC>MOL_PROPERTY
VConf Rank
SciTegic.value.IntegerValue
237

@<SCITEGIC>MOL_PROPERTY
Conf_Id
SciTegic.value.IntegerValue
37

@<SCITEGIC>MOL_PROPERTY
Delta U+W
SciTegic.value.DoubleValue
1.063

@<SCITEGIC>MOL_PROPERTY
U+W
SciTegic.value.DoubleValue
-55.841

@<SCITEGIC>MOL_PROPERTY
Grad RMS
SciTegic.value.DoubleValue
0.000000

@<SCITEGIC>MOL_PROPERTY
U
SciTegic.value.DoubleValue
9.719

@<SCITEGIC>MOL_PROPERTY
W
SciTegic.value.DoubleValue
-65.560

@<SCITEGIC>MOL_PROPERTY
W(PB)
SciTegic.value.DoubleValue
-67.414

@<SCITEGIC>MOL_PROPERTY
W(SA)
SciTegic.value.DoubleValue
1.854

@<SCITEGIC>MOL_PROPERTY
Valence
SciTegic.value.DoubleValue
7.002

@<SCITEGIC>MOL_PROPERTY
Coulomb
SciTegic.value.DoubleValue
2.402

@<SCITEGIC>MOL_PROPERTY
VdW
SciTegic.value.DoubleValue
0.314

@<SCITEGIC>MOL_PROPERTY
VdW6
SciTegic.value.DoubleValue
-5.861

@<SCITEGIC>MOL_PROPERTY
VdW12
SciTegic.value.DoubleValue
6.175

@<SCITEGIC>MOL_PROPERTY
Bond
SciTegic.value.DoubleValue
0.134

@<SCITEGIC>MOL_PROPERTY
Angle
SciTegic.value.DoubleValue
2.733

@<SCITEGIC>MOL_PROPERTY
Pdih
SciTegic.value.DoubleValue
4.133

@<SCITEGIC>MOL_PROPERTY
Idih
SciTegic.value.DoubleValue
0.002

@<SCITEGIC>MOL_PROPERTY
Tether
SciTegic.value.DoubleValue
0.000

@<TRIPOS>MOLECULE
guest-s18_confgen4.mol2 : confsearch ligand conformer 238
          16          15           1
SMALL
USER_CHARGES
 
@<TRIPOS>ATOM
       1    C1      21.748812   18.646299   23.507664 C.2        1 MOL1         0.6075
       2    O1      22.885300   18.439817   23.130111 O.co2      1 MOL1        -0.6830
       3    O2      21.475891   19.356657   24.454873 O.co2      1 MOL1        -0.6830
       4    C2      20.608131   17.947417   22.772711 C.3        1 MOL1        -0.2050
       5    H1      19.702212   18.012251   23.386188 H          1 MOL1         0.0710
       6    H2      20.864788   16.883415   22.710196 H          1 MOL1         0.0710
       7    C3      20.342109   18.495297   21.343816 C.3        1 MOL1        -0.1947
       8    H3      21.251825   18.365761   20.741328 H          1 MOL1         0.0712
       9    H4      19.565160   17.885593   20.863209 H          1 MOL1         0.0712
      10    C4      19.921079   19.983505   21.299528 C.3        1 MOL1        -0.1921
      11    H5      19.838400   20.295273   20.249245 H          1 MOL1         0.0712
      12    H6      20.706732   20.608415   21.746557 H          1 MOL1         0.0712
      13    C5      18.577060   20.257170   22.007455 C.3        1 MOL1        -0.2936
      14    H7      17.781180   19.618592   21.602658 H          1 MOL1         0.0724
      15    H8      18.275944   21.303412   21.867569 H          1 MOL1         0.0724
      16    H9      18.651675   20.075275   23.087193 H          1 MOL1         0.0724
@<TRIPOS>BOND
    1     1     2    1
    2     1     3    2
    3     1     4    1
    4     4     5    1
    5     4     6    1
    6     4     7    1
    7     7     8    1
    8     7     9    1
    9     7    10    1
   10    10    11    1
   11    10    12    1
   12    10    13    1
   13    13    14    1
   14    13    15    1
   15    13    16    1
@<TRIPOS>SUBSTRUCTURE
       1 MOL1            1 RESIDUE      1      MOL     
@<SCITEGIC>MOL_PROPERTY
VConf Rank
SciTegic.value.IntegerValue
238

@<SCITEGIC>MOL_PROPERTY
Conf_Id
SciTegic.value.IntegerValue
39

@<SCITEGIC>MOL_PROPERTY
Delta U+W
SciTegic.value.DoubleValue
1.129

@<SCITEGIC>MOL_PROPERTY
U+W
SciTegic.value.DoubleValue
-55.775

@<SCITEGIC>MOL_PROPERTY
Grad RMS
SciTegic.value.DoubleValue
0.000000

@<SCITEGIC>MOL_PROPERTY
U
SciTegic.value.DoubleValue
9.718

@<SCITEGIC>MOL_PROPERTY
W
SciTegic.value.DoubleValue
-65.493

@<SCITEGIC>MOL_PROPERTY
W(PB)
SciTegic.value.DoubleValue
-67.361

@<SCITEGIC>MOL_PROPERTY
W(SA)
SciTegic.value.DoubleValue
1.869

@<SCITEGIC>MOL_PROPERTY
Valence
SciTegic.value.DoubleValue
7.002

@<SCITEGIC>MOL_PROPERTY
Coulomb
SciTegic.value.DoubleValue
2.402

@<SCITEGIC>MOL_PROPERTY
VdW
SciTegic.value.DoubleValue
0.314

@<SCITEGIC>MOL_PROPERTY
VdW6
SciTegic.value.DoubleValue
-5.861

@<SCITEGIC>MOL_PROPERTY
VdW12
SciTegic.value.DoubleValue
6.175

@<SCITEGIC>MOL_PROPERTY
Bond
SciTegic.value.DoubleValue
0.134

@<SCITEGIC>MOL_PROPERTY
Angle
SciTegic.value.DoubleValue
2.734

@<SCITEGIC>MOL_PROPERTY
Pdih
SciTegic.value.DoubleValue
4.133

@<SCITEGIC>MOL_PROPERTY
Idih
SciTegic.value.DoubleValue
0.002

@<SCITEGIC>MOL_PROPERTY
Tether
SciTegic.value.DoubleValue
0.000

@<TRIPOS>MOLECULE
guest-s18_confgen4.mol2 : confsearch ligand conformer 239
          16          15           1
SMALL
USER_CHARGES
 
@<TRIPOS>ATOM
       1    C1      17.903630   19.054887   22.270874 C.2        1 MOL1         0.6075
       2    O1      17.451874   19.948329   21.582036 O.co2      1 MOL1        -0.6830
       3    O2      17.518871   18.821336   23.399844 O.co2      1 MOL1        -0.6830
       4    C2      18.943969   18.123083   21.651929 C.3        1 MOL1        -0.2050
       5    H1      19.118348   18.423740   20.611652 H          1 MOL1         0.0710
       6    H2      18.485607   17.127854   21.617650 H          1 MOL1         0.0710
       7    C3      20.293328   18.031089   22.418576 C.3        1 MOL1        -0.1947
       8    H3      20.105500   17.933152   23.496848 H          1 MOL1         0.0712
       9    H4      20.794125   17.102483   22.113053 H          1 MOL1         0.0712
      10    C4      21.269299   19.202745   22.153498 C.3        1 MOL1        -0.1921
      11    H5      21.452907   19.298529   21.074450 H          1 MOL1         0.0712
      12    H6      22.238024   18.957972   22.610610 H          1 MOL1         0.0712
      13    C5      20.789227   20.554974   22.720326 C.3        1 MOL1        -0.2936
      14    H7      19.910514   20.925799   22.178707 H          1 MOL1         0.0724
      15    H8      21.578167   21.312324   22.626719 H          1 MOL1         0.0724
      16    H9      20.527896   20.466522   23.782970 H          1 MOL1         0.0724
@<TRIPOS>BOND
    1     1     2    1
    2     1     3    2
    3     1     4    1
    4     4     5    1
    5     4     6    1
    6     4     7    1
    7     7     8    1
    8     7     9    1
    9     7    10    1
   10    10    11    1
   11    10    12    1
   12    10    13    1
   13    13    14    1
   14    13    15    1
   15    13    16    1
@<TRIPOS>SUBSTRUCTURE
       1 MOL1            1 RESIDUE      1      MOL     
@<SCITEGIC>MOL_PROPERTY
VConf Rank
SciTegic.value.IntegerValue
239

@<SCITEGIC>MOL_PROPERTY
Conf_Id
SciTegic.value.IntegerValue
47

@<SCITEGIC>MOL_PROPERTY
Delta U+W
SciTegic.value.DoubleValue
2.301

@<SCITEGIC>MOL_PROPERTY
U+W
SciTegic.value.DoubleValue
-54.603

@<SCITEGIC>MOL_PROPERTY
Grad RMS
SciTegic.value.DoubleValue
0.000000

@<SCITEGIC>MOL_PROPERTY
U
SciTegic.value.DoubleValue
11.258

@<SCITEGIC>MOL_PROPERTY
W
SciTegic.value.DoubleValue
-65.861

@<SCITEGIC>MOL_PROPERTY
W(PB)
SciTegic.value.DoubleValue
-67.702

@<SCITEGIC>MOL_PROPERTY
W(SA)
SciTegic.value.DoubleValue
1.841

@<SCITEGIC>MOL_PROPERTY
Valence
SciTegic.value.DoubleValue
8.169

@<SCITEGIC>MOL_PROPERTY
Coulomb
SciTegic.value.DoubleValue
2.735

@<SCITEGIC>MOL_PROPERTY
VdW
SciTegic.value.DoubleValue
0.355

@<SCITEGIC>MOL_PROPERTY
VdW6
SciTegic.value.DoubleValue
-6.245

@<SCITEGIC>MOL_PROPERTY
VdW12
SciTegic.value.DoubleValue
6.600

@<SCITEGIC>MOL_PROPERTY
Bond
SciTegic.value.DoubleValue
0.149

@<SCITEGIC>MOL_PROPERTY
Angle
SciTegic.value.DoubleValue
3.168

@<SCITEGIC>MOL_PROPERTY
Pdih
SciTegic.value.DoubleValue
4.840

@<SCITEGIC>MOL_PROPERTY
Idih
SciTegic.value.DoubleValue
0.011

@<SCITEGIC>MOL_PROPERTY
Tether
SciTegic.value.DoubleValue
0.000

@<TRIPOS>MOLECULE
guest-s18_confgen4.mol2 : confsearch ligand conformer 240
          16          15           1
SMALL
USER_CHARGES
 
@<TRIPOS>ATOM
       1    C1      19.864420   19.206730   24.258512 C.2        1 MOL1         0.6075
       2    O1      19.275935   18.234639   24.689653 O.co2      1 MOL1        -0.6830
       3    O2      19.655761   20.340037   24.644381 O.co2      1 MOL1        -0.6830
       4    C2      20.986153   18.984966   23.245496 C.3        1 MOL1        -0.2050
       5    H1      21.741231   18.371157   23.750318 H          1 MOL1         0.0710
       6    H2      21.462233   19.947857   23.023759 H          1 MOL1         0.0710
       7    C3      20.560954   18.279007   21.927234 C.3        1 MOL1        -0.1947
       8    H3      21.462407   17.857059   21.462696 H          1 MOL1         0.0712
       9    H4      19.908651   17.424182   22.153762 H          1 MOL1         0.0712
      10    C4      19.883127   19.203766   20.887555 C.3        1 MOL1        -0.1921
      11    H5      19.772913   18.646675   19.946918 H          1 MOL1         0.0712
      12    H6      20.537532   20.057908   20.665229 H          1 MOL1         0.0712
      13    C5      18.492538   19.713893   21.319199 C.3        1 MOL1        -0.2936
      14    H7      18.004627   20.245066   20.491812 H          1 MOL1         0.0724
      15    H8      18.567121   20.412882   22.161133 H          1 MOL1         0.0724
      16    H9      17.842552   18.881191   21.618290 H          1 MOL1         0.0724
@<TRIPOS>BOND
    1     1     2    1
    2     1     3    2
    3     1     4    1
    4     4     5    1
    5     4     6    1
    6     4     7    1
    7     7     8    1
    8     7     9    1
    9     7    10    1
   10    10    11    1
   11    10    12    1
   12    10    13    1
   13    13    14    1
   14    13    15    1
   15    13    16    1
@<TRIPOS>SUBSTRUCTURE
       1 MOL1            1 RESIDUE      1      MOL     
@<SCITEGIC>MOL_PROPERTY
VConf Rank
SciTegic.value.IntegerValue
240

@<SCITEGIC>MOL_PROPERTY
Conf_Id
SciTegic.value.IntegerValue
45

@<SCITEGIC>MOL_PROPERTY
Delta U+W
SciTegic.value.DoubleValue
2.303

@<SCITEGIC>MOL_PROPERTY
U+W
SciTegic.value.DoubleValue
-54.601

@<SCITEGIC>MOL_PROPERTY
Grad RMS
SciTegic.value.DoubleValue
0.000000

@<SCITEGIC>MOL_PROPERTY
U
SciTegic.value.DoubleValue
11.258

@<SCITEGIC>MOL_PROPERTY
W
SciTegic.value.DoubleValue
-65.860

@<SCITEGIC>MOL_PROPERTY
W(PB)
SciTegic.value.DoubleValue
-67.709

@<SCITEGIC>MOL_PROPERTY
W(SA)
SciTegic.value.DoubleValue
1.849

@<SCITEGIC>MOL_PROPERTY
Valence
SciTegic.value.DoubleValue
8.169

@<SCITEGIC>MOL_PROPERTY
Coulomb
SciTegic.value.DoubleValue
2.735

@<SCITEGIC>MOL_PROPERTY
VdW
SciTegic.value.DoubleValue
0.355

@<SCITEGIC>MOL_PROPERTY
VdW6
SciTegic.value.DoubleValue
-6.245

@<SCITEGIC>MOL_PROPERTY
VdW12
SciTegic.value.DoubleValue
6.600

@<SCITEGIC>MOL_PROPERTY
Bond
SciTegic.value.DoubleValue
0.149

@<SCITEGIC>MOL_PROPERTY
Angle
SciTegic.value.DoubleValue
3.168

@<SCITEGIC>MOL_PROPERTY
Pdih
SciTegic.value.DoubleValue
4.840

@<SCITEGIC>MOL_PROPERTY
Idih
SciTegic.value.DoubleValue
0.011

@<SCITEGIC>MOL_PROPERTY
Tether
SciTegic.value.DoubleValue
0.000

@<TRIPOS>MOLECULE
guest-s18_confgen4.mol2 : confsearch ligand conformer 241
          16          15           1
SMALL
USER_CHARGES
 
@<TRIPOS>ATOM
       1    C1      21.011348   18.276019   19.505189 C.2        1 MOL1         0.6075
       2    O1      20.580377   17.144257   19.610809 O.co2      1 MOL1        -0.6830
       3    O2      21.650015   18.654386   18.543807 O.co2      1 MOL1        -0.6830
       4    C2      20.754613   19.294149   20.617570 C.3        1 MOL1        -0.2050
       5    H1      20.237631   20.149024   20.165820 H          1 MOL1         0.0710
       6    H2      21.730760   19.655352   20.962290 H          1 MOL1         0.0710
       7    C3      19.935686   18.765541   21.825163 C.3        1 MOL1        -0.1947
       8    H3      18.961091   18.400098   21.472906 H          1 MOL1         0.0712
       9    H4      20.455767   17.905933   22.270202 H          1 MOL1         0.0712
      10    C4      19.724745   19.855995   22.896457 C.3        1 MOL1        -0.1921
      11    H5      19.203129   20.715558   22.453098 H          1 MOL1         0.0712
      12    H6      20.698695   20.221107   23.250879 H          1 MOL1         0.0712
      13    C5      18.910892   19.325023   24.093058 C.3        1 MOL1        -0.2936
      14    H7      17.918750   18.981642   23.771792 H          1 MOL1         0.0724
      15    H8      18.770080   20.112356   24.845002 H          1 MOL1         0.0724
      16    H9      19.425347   18.483542   24.575464 H          1 MOL1         0.0724
@<TRIPOS>BOND
    1     1     2    1
    2     1     3    2
    3     1     4    1
    4     4     5    1
    5     4     6    1
    6     4     7    1
    7     7     8    1
    8     7     9    1
    9     7    10    1
   10    10    11    1
   11    10    12    1
   12    10    13    1
   13    13    14    1
   14    13    15    1
   15    13    16    1
@<TRIPOS>SUBSTRUCTURE
       1 MOL1            1 RESIDUE      1      MOL     
@<SCITEGIC>MOL_PROPERTY
VConf Rank
SciTegic.value.IntegerValue
241

@<SCITEGIC>MOL_PROPERTY
Conf_Id
SciTegic.value.IntegerValue
0

@<SCITEGIC>MOL_PROPERTY
Delta U+W
SciTegic.value.DoubleValue
0.000

@<SCITEGIC>MOL_PROPERTY
U+W
SciTegic.value.DoubleValue
-56.904

@<SCITEGIC>MOL_PROPERTY
Grad RMS
SciTegic.value.DoubleValue
0.000000

@<SCITEGIC>MOL_PROPERTY
U
SciTegic.value.DoubleValue
7.329

@<SCITEGIC>MOL_PROPERTY
W
SciTegic.value.DoubleValue
-64.233

@<SCITEGIC>MOL_PROPERTY
W(PB)
SciTegic.value.DoubleValue
-66.148

@<SCITEGIC>MOL_PROPERTY
W(SA)
SciTegic.value.DoubleValue
1.915

@<SCITEGIC>MOL_PROPERTY
Valence
SciTegic.value.DoubleValue
6.755

@<SCITEGIC>MOL_PROPERTY
Coulomb
SciTegic.value.DoubleValue
-0.421

@<SCITEGIC>MOL_PROPERTY
VdW
SciTegic.value.DoubleValue
0.995

@<SCITEGIC>MOL_PROPERTY
VdW6
SciTegic.value.DoubleValue
-4.495

@<SCITEGIC>MOL_PROPERTY
VdW12
SciTegic.value.DoubleValue
5.490

@<SCITEGIC>MOL_PROPERTY
Bond
SciTegic.value.DoubleValue
0.106

@<SCITEGIC>MOL_PROPERTY
Angle
SciTegic.value.DoubleValue
2.715

@<SCITEGIC>MOL_PROPERTY
Pdih
SciTegic.value.DoubleValue
3.934

@<SCITEGIC>MOL_PROPERTY
Idih
SciTegic.value.DoubleValue
0.000

@<SCITEGIC>MOL_PROPERTY
Tether
SciTegic.value.DoubleValue
0.000

@<TRIPOS>MOLECULE
guest-s18_confgen4.mol2 : confsearch ligand conformer 242
          16          15           1
SMALL
USER_CHARGES
 
@<TRIPOS>ATOM
       1    C1      20.536118   21.779850   22.337842 C.2        1 MOL1         0.6075
       2    O1      19.685213   22.528304   21.900099 O.co2      1 MOL1        -0.6830
       3    O2      21.213485   22.030554   23.314657 O.co2      1 MOL1        -0.6830
       4    C2      20.753227   20.445118   21.633615 C.3        1 MOL1        -0.2050
       5    H1      21.812067   20.176376   21.731009 H          1 MOL1         0.0710
       6    H2      20.551980   20.586703   20.564829 H          1 MOL1         0.0710
       7    C3      19.860939   19.312968   22.199404 C.3        1 MOL1        -0.1947
       8    H3      20.065033   19.191742   23.272344 H          1 MOL1         0.0712
       9    H4      18.804883   19.602114   22.106176 H          1 MOL1         0.0712
      10    C4      20.100097   17.974562   21.469996 C.3        1 MOL1        -0.1921
      11    H5      21.155926   17.684724   21.563580 H          1 MOL1         0.0712
      12    H6      19.895485   18.095212   20.397096 H          1 MOL1         0.0712
      13    C5      19.208818   16.852591   22.038241 C.3        1 MOL1        -0.2936
      14    H7      18.145288   17.102497   21.929055 H          1 MOL1         0.0724
      15    H8      19.415022   16.688994   23.104162 H          1 MOL1         0.0724
      16    H9      19.391163   15.908283   21.508918 H          1 MOL1         0.0724
@<TRIPOS>BOND
    1     1     2    1
    2     1     3    2
    3     1     4    1
    4     4     5    1
    5     4     6    1
    6     4     7    1
    7     7     8    1
    8     7     9    1
    9     7    10    1
   10    10    11    1
   11    10    12    1
   12    10    13    1
   13    13    14    1
   14    13    15    1
   15    13    16    1
@<TRIPOS>SUBSTRUCTURE
       1 MOL1            1 RESIDUE      1      MOL     
@<SCITEGIC>MOL_PROPERTY
VConf Rank
SciTegic.value.IntegerValue
242

@<SCITEGIC>MOL_PROPERTY
Conf_Id
SciTegic.value.IntegerValue
22

@<SCITEGIC>MOL_PROPERTY
Delta U+W
SciTegic.value.DoubleValue
-1.185

@<SCITEGIC>MOL_PROPERTY
U+W
SciTegic.value.DoubleValue
-58.089

@<SCITEGIC>MOL_PROPERTY
Grad RMS
SciTegic.value.DoubleValue
0.000000

@<SCITEGIC>MOL_PROPERTY
U
SciTegic.value.DoubleValue
6.298

@<SCITEGIC>MOL_PROPERTY
W
SciTegic.value.DoubleValue
-64.387

@<SCITEGIC>MOL_PROPERTY
W(PB)
SciTegic.value.DoubleValue
-66.329

@<SCITEGIC>MOL_PROPERTY
W(SA)
SciTegic.value.DoubleValue
1.942

@<SCITEGIC>MOL_PROPERTY
Valence
SciTegic.value.DoubleValue
6.246

@<SCITEGIC>MOL_PROPERTY
Coulomb
SciTegic.value.DoubleValue
-0.408

@<SCITEGIC>MOL_PROPERTY
VdW
SciTegic.value.DoubleValue
0.460

@<SCITEGIC>MOL_PROPERTY
VdW6
SciTegic.value.DoubleValue
-4.207

@<SCITEGIC>MOL_PROPERTY
VdW12
SciTegic.value.DoubleValue
4.667

@<SCITEGIC>MOL_PROPERTY
Bond
SciTegic.value.DoubleValue
0.072

@<SCITEGIC>MOL_PROPERTY
Angle
SciTegic.value.DoubleValue
2.246

@<SCITEGIC>MOL_PROPERTY
Pdih
SciTegic.value.DoubleValue
3.928

@<SCITEGIC>MOL_PROPERTY
Idih
SciTegic.value.DoubleValue
0.001

@<SCITEGIC>MOL_PROPERTY
Tether
SciTegic.value.DoubleValue
0.000

@<TRIPOS>MOLECULE
guest-s18_confgen4.mol2 : confsearch ligand conformer 243
          16          15           1
SMALL
USER_CHARGES
 
@<TRIPOS>ATOM
       1    C1      22.484979   18.628406   22.269217 C.2        1 MOL1         0.6075
       2    O1      22.903377   17.498804   22.427133 O.co2      1 MOL1        -0.6830
       3    O2      23.105504   19.624410   22.583669 O.co2      1 MOL1        -0.6830
       4    C2      21.097607   18.804524   21.661965 C.3        1 MOL1        -0.2050
       5    H1      20.927205   17.981443   20.957645 H          1 MOL1         0.0710
       6    H2      21.102354   19.733826   21.081024 H          1 MOL1         0.0710
       7    C3      19.973494   18.835196   22.729871 C.3        1 MOL1        -0.1947
       8    H3      20.050700   17.931354   23.349981 H          1 MOL1         0.0712
       9    H4      20.131208   19.688668   23.403681 H          1 MOL1         0.0712
      10    C4      18.552088   18.902853   22.125358 C.3        1 MOL1        -0.1921
      11    H5      17.818043   18.810248   22.937707 H          1 MOL1         0.0712
      12    H6      18.389969   18.043074   21.460618 H          1 MOL1         0.0712
      13    C5      18.279816   20.212859   21.355497 C.3        1 MOL1        -0.2936
      14    H7      18.916003   20.294366   20.465326 H          1 MOL1         0.0724
      15    H8      18.463531   21.088161   21.992164 H          1 MOL1         0.0724
      16    H9      17.234838   20.251379   21.021511 H          1 MOL1         0.0724
@<TRIPOS>BOND
    1     1     2    1
    2     1     3    2
    3     1     4    1
    4     4     5    1
    5     4     6    1
    6     4     7    1
    7     7     8    1
    8     7     9    1
    9     7    10    1
   10    10    11    1
   11    10    12    1
   12    10    13    1
   13    13    14    1
   14    13    15    1
   15    13    16    1
@<TRIPOS>SUBSTRUCTURE
       1 MOL1            1 RESIDUE      1      MOL     
@<SCITEGIC>MOL_PROPERTY
VConf Rank
SciTegic.value.IntegerValue
243

@<SCITEGIC>MOL_PROPERTY
Conf_Id
SciTegic.value.IntegerValue
36

@<SCITEGIC>MOL_PROPERTY
Delta U+W
SciTegic.value.DoubleValue
-0.427

@<SCITEGIC>MOL_PROPERTY
U+W
SciTegic.value.DoubleValue
-57.331

@<SCITEGIC>MOL_PROPERTY
Grad RMS
SciTegic.value.DoubleValue
0.000000

@<SCITEGIC>MOL_PROPERTY
U
SciTegic.value.DoubleValue
7.263

@<SCITEGIC>MOL_PROPERTY
W
SciTegic.value.DoubleValue
-64.594

@<SCITEGIC>MOL_PROPERTY
W(PB)
SciTegic.value.DoubleValue
-66.513

@<SCITEGIC>MOL_PROPERTY
W(SA)
SciTegic.value.DoubleValue
1.920

@<SCITEGIC>MOL_PROPERTY
Valence
SciTegic.value.DoubleValue
6.734

@<SCITEGIC>MOL_PROPERTY
Coulomb
SciTegic.value.DoubleValue
-0.068

@<SCITEGIC>MOL_PROPERTY
VdW
SciTegic.value.DoubleValue
0.598

@<SCITEGIC>MOL_PROPERTY
VdW6
SciTegic.value.DoubleValue
-4.819

@<SCITEGIC>MOL_PROPERTY
VdW12
SciTegic.value.DoubleValue
5.417

@<SCITEGIC>MOL_PROPERTY
Bond
SciTegic.value.DoubleValue
0.107

@<SCITEGIC>MOL_PROPERTY
Angle
SciTegic.value.DoubleValue
2.469

@<SCITEGIC>MOL_PROPERTY
Pdih
SciTegic.value.DoubleValue
4.157

@<SCITEGIC>MOL_PROPERTY
Idih
SciTegic.value.DoubleValue
0.001

@<SCITEGIC>MOL_PROPERTY
Tether
SciTegic.value.DoubleValue
0.000

@<TRIPOS>MOLECULE
guest-s18_confgen4.mol2 : confsearch ligand conformer 244
          16          15           1
SMALL
USER_CHARGES
 
@<TRIPOS>ATOM
       1    C1      21.491356   17.500029   23.282800 C.2        1 MOL1         0.6075
       2    O1      22.539291   17.319347   22.695309 O.co2      1 MOL1        -0.6830
       3    O2      21.063908   16.751691   24.139114 O.co2      1 MOL1        -0.6830
       4    C2      20.657396   18.721179   22.911487 C.3        1 MOL1        -0.2050
       5    H1      21.347582   19.523424   22.626592 H          1 MOL1         0.0710
       6    H2      20.123651   19.054847   23.809456 H          1 MOL1         0.0710
       7    C3      19.650820   18.436177   21.766683 C.3        1 MOL1        -0.1947
       8    H3      20.199364   18.144195   20.860507 H          1 MOL1         0.0712
       9    H4      19.032164   17.572470   22.047224 H          1 MOL1         0.0712
      10    C4      18.721806   19.631397   21.452375 C.3        1 MOL1        -0.1921
      11    H5      18.164451   19.916017   22.355551 H          1 MOL1         0.0712
      12    H6      17.973854   19.312539   20.713317 H          1 MOL1         0.0712
      13    C5      19.475986   20.859466   20.899212 C.3        1 MOL1        -0.2936
      14    H7      20.156072   21.283308   21.648628 H          1 MOL1         0.0724
      15    H8      18.767496   21.646750   20.610712 H          1 MOL1         0.0724
      16    H9      20.064091   20.592302   20.011515 H          1 MOL1         0.0724
@<TRIPOS>BOND
    1     1     2    1
    2     1     3    2
    3     1     4    1
    4     4     5    1
    5     4     6    1
    6     4     7    1
    7     7     8    1
    8     7     9    1
    9     7    10    1
   10    10    11    1
   11    10    12    1
   12    10    13    1
   13    13    14    1
   14    13    15    1
   15    13    16    1
@<TRIPOS>SUBSTRUCTURE
       1 MOL1            1 RESIDUE      1      MOL     
@<SCITEGIC>MOL_PROPERTY
VConf Rank
SciTegic.value.IntegerValue
244

@<SCITEGIC>MOL_PROPERTY
Conf_Id
SciTegic.value.IntegerValue
17

@<SCITEGIC>MOL_PROPERTY
Delta U+W
SciTegic.value.DoubleValue
-0.432

@<SCITEGIC>MOL_PROPERTY
U+W
SciTegic.value.DoubleValue
-57.336

@<SCITEGIC>MOL_PROPERTY
Grad RMS
SciTegic.value.DoubleValue
0.000000

@<SCITEGIC>MOL_PROPERTY
U
SciTegic.value.DoubleValue
7.263

@<SCITEGIC>MOL_PROPERTY
W
SciTegic.value.DoubleValue
-64.599

@<SCITEGIC>MOL_PROPERTY
W(PB)
SciTegic.value.DoubleValue
-66.503

@<SCITEGIC>MOL_PROPERTY
W(SA)
SciTegic.value.DoubleValue
1.904

@<SCITEGIC>MOL_PROPERTY
Valence
SciTegic.value.DoubleValue
6.734

@<SCITEGIC>MOL_PROPERTY
Coulomb
SciTegic.value.DoubleValue
-0.068

@<SCITEGIC>MOL_PROPERTY
VdW
SciTegic.value.DoubleValue
0.598

@<SCITEGIC>MOL_PROPERTY
VdW6
SciTegic.value.DoubleValue
-4.819

@<SCITEGIC>MOL_PROPERTY
VdW12
SciTegic.value.DoubleValue
5.417

@<SCITEGIC>MOL_PROPERTY
Bond
SciTegic.value.DoubleValue
0.107

@<SCITEGIC>MOL_PROPERTY
Angle
SciTegic.value.DoubleValue
2.469

@<SCITEGIC>MOL_PROPERTY
Pdih
SciTegic.value.DoubleValue
4.157

@<SCITEGIC>MOL_PROPERTY
Idih
SciTegic.value.DoubleValue
0.001

@<SCITEGIC>MOL_PROPERTY
Tether
SciTegic.value.DoubleValue
0.000

@<TRIPOS>MOLECULE
guest-s18_confgen4.mol2 : confsearch ligand conformer 245
          16          15           1
SMALL
USER_CHARGES
 
@<TRIPOS>ATOM
       1    C1      21.541012   19.852431   20.324751 C.2        1 MOL1         0.6075
       2    O1      22.695594   19.493692   20.445538 O.co2      1 MOL1        -0.6830
       3    O2      20.900679   19.719729   19.300727 O.co2      1 MOL1        -0.6830
       4    C2      20.868555   20.527490   21.517055 C.3        1 MOL1        -0.2050
       5    H1      19.997148   21.087957   21.157043 H          1 MOL1         0.0710
       6    H2      21.574943   21.263590   21.918808 H          1 MOL1         0.0710
       7    C3      20.446588   19.547894   22.642831 C.3        1 MOL1        -0.1947
       8    H3      21.323276   18.973653   22.973422 H          1 MOL1         0.0712
       9    H4      20.103322   20.128135   23.510037 H          1 MOL1         0.0712
      10    C4      19.325503   18.582557   22.200703 C.3        1 MOL1        -0.1921
      11    H5      19.665312   17.981672   21.345607 H          1 MOL1         0.0712
      12    H6      18.454244   19.158196   21.858762 H          1 MOL1         0.0712
      13    C5      18.901930   17.643468   23.347456 C.3        1 MOL1        -0.2936
      14    H7      19.748707   17.033142   23.687928 H          1 MOL1         0.0724
      15    H8      18.105735   16.963981   23.016569 H          1 MOL1         0.0724
      16    H9      18.524551   18.215695   24.205103 H          1 MOL1         0.0724
@<TRIPOS>BOND
    1     1     2    1
    2     1     3    2
    3     1     4    1
    4     4     5    1
    5     4     6    1
    6     4     7    1
    7     7     8    1
    8     7     9    1
    9     7    10    1
   10    10    11    1
   11    10    12    1
   12    10    13    1
   13    13    14    1
   14    13    15    1
   15    13    16    1
@<TRIPOS>SUBSTRUCTURE
       1 MOL1            1 RESIDUE      1      MOL     
@<SCITEGIC>MOL_PROPERTY
VConf Rank
SciTegic.value.IntegerValue
245

@<SCITEGIC>MOL_PROPERTY
Conf_Id
SciTegic.value.IntegerValue
19

@<SCITEGIC>MOL_PROPERTY
Delta U+W
SciTegic.value.DoubleValue
0.048

@<SCITEGIC>MOL_PROPERTY
U+W
SciTegic.value.DoubleValue
-56.856

@<SCITEGIC>MOL_PROPERTY
Grad RMS
SciTegic.value.DoubleValue
0.000000

@<SCITEGIC>MOL_PROPERTY
U
SciTegic.value.DoubleValue
8.276

@<SCITEGIC>MOL_PROPERTY
W
SciTegic.value.DoubleValue
-65.132

@<SCITEGIC>MOL_PROPERTY
W(PB)
SciTegic.value.DoubleValue
-67.031

@<SCITEGIC>MOL_PROPERTY
W(SA)
SciTegic.value.DoubleValue
1.899

@<SCITEGIC>MOL_PROPERTY
Valence
SciTegic.value.DoubleValue
6.513

@<SCITEGIC>MOL_PROPERTY
Coulomb
SciTegic.value.DoubleValue
1.428

@<SCITEGIC>MOL_PROPERTY
VdW
SciTegic.value.DoubleValue
0.335

@<SCITEGIC>MOL_PROPERTY
VdW6
SciTegic.value.DoubleValue
-5.021

@<SCITEGIC>MOL_PROPERTY
VdW12
SciTegic.value.DoubleValue
5.356

@<SCITEGIC>MOL_PROPERTY
Bond
SciTegic.value.DoubleValue
0.092

@<SCITEGIC>MOL_PROPERTY
Angle
SciTegic.value.DoubleValue
2.417

@<SCITEGIC>MOL_PROPERTY
Pdih
SciTegic.value.DoubleValue
4.003

@<SCITEGIC>MOL_PROPERTY
Idih
SciTegic.value.DoubleValue
0.001

@<SCITEGIC>MOL_PROPERTY
Tether
SciTegic.value.DoubleValue
0.000

@<TRIPOS>MOLECULE
guest-s18_confgen4.mol2 : confsearch ligand conformer 246
          16          15           1
SMALL
USER_CHARGES
 
@<TRIPOS>ATOM
       1    C1      20.523964   21.319679   22.806764 C.2        1 MOL1         0.6075
       2    O1      21.355415   21.837709   22.087962 O.co2      1 MOL1        -0.6830
       3    O2      20.623356   21.264642   24.016455 O.co2      1 MOL1        -0.6830
       4    C2      19.277345   20.727693   22.154850 C.3        1 MOL1        -0.2050
       5    H1      18.911421   21.457821   21.423244 H          1 MOL1         0.0710
       6    H2      18.496908   20.625957   22.918822 H          1 MOL1         0.0710
       7    C3      19.517672   19.366728   21.451243 C.3        1 MOL1        -0.1947
       8    H3      18.611504   19.087161   20.896932 H          1 MOL1         0.0712
       9    H4      20.320837   19.477130   20.709381 H          1 MOL1         0.0712
      10    C4      19.874469   18.239547   22.444394 C.3        1 MOL1        -0.1921
      11    H5      19.076326   18.138655   23.192837 H          1 MOL1         0.0712
      12    H6      20.791936   18.499309   22.990747 H          1 MOL1         0.0712
      13    C5      20.074837   16.891883   21.723280 C.3        1 MOL1        -0.2936
      14    H7      19.161035   16.588731   21.195568 H          1 MOL1         0.0724
      15    H8      20.328497   16.102461   22.442715 H          1 MOL1         0.0724
      16    H9      20.889276   16.956571   20.989826 H          1 MOL1         0.0724
@<TRIPOS>BOND
    1     1     2    1
    2     1     3    2
    3     1     4    1
    4     4     5    1
    5     4     6    1
    6     4     7    1
    7     7     8    1
    8     7     9    1
    9     7    10    1
   10    10    11    1
   11    10    12    1
   12    10    13    1
   13    13    14    1
   14    13    15    1
   15    13    16    1
@<TRIPOS>SUBSTRUCTURE
       1 MOL1            1 RESIDUE      1      MOL     
@<SCITEGIC>MOL_PROPERTY
VConf Rank
SciTegic.value.IntegerValue
246

@<SCITEGIC>MOL_PROPERTY
Conf_Id
SciTegic.value.IntegerValue
20

@<SCITEGIC>MOL_PROPERTY
Delta U+W
SciTegic.value.DoubleValue
-0.010

@<SCITEGIC>MOL_PROPERTY
U+W
SciTegic.value.DoubleValue
-56.914

@<SCITEGIC>MOL_PROPERTY
Grad RMS
SciTegic.value.DoubleValue
0.000000

@<SCITEGIC>MOL_PROPERTY
U
SciTegic.value.DoubleValue
8.277

@<SCITEGIC>MOL_PROPERTY
W
SciTegic.value.DoubleValue
-65.191

@<SCITEGIC>MOL_PROPERTY
W(PB)
SciTegic.value.DoubleValue
-67.081

@<SCITEGIC>MOL_PROPERTY
W(SA)
SciTegic.value.DoubleValue
1.890

@<SCITEGIC>MOL_PROPERTY
Valence
SciTegic.value.DoubleValue
6.513

@<SCITEGIC>MOL_PROPERTY
Coulomb
SciTegic.value.DoubleValue
1.429

@<SCITEGIC>MOL_PROPERTY
VdW
SciTegic.value.DoubleValue
0.335

@<SCITEGIC>MOL_PROPERTY
VdW6
SciTegic.value.DoubleValue
-5.021

@<SCITEGIC>MOL_PROPERTY
VdW12
SciTegic.value.DoubleValue
5.356

@<SCITEGIC>MOL_PROPERTY
Bond
SciTegic.value.DoubleValue
0.092

@<SCITEGIC>MOL_PROPERTY
Angle
SciTegic.value.DoubleValue
2.417

@<SCITEGIC>MOL_PROPERTY
Pdih
SciTegic.value.DoubleValue
4.002

@<SCITEGIC>MOL_PROPERTY
Idih
SciTegic.value.DoubleValue
0.001

@<SCITEGIC>MOL_PROPERTY
Tether
SciTegic.value.DoubleValue
0.000

@<TRIPOS>MOLECULE
guest-s18_confgen4.mol2 : confsearch ligand conformer 247
          16          15           1
SMALL
USER_CHARGES
 
@<TRIPOS>ATOM
       1    C1      18.677283   19.152288   23.964726 C.2        1 MOL1         0.6075
       2    O1      19.067678   19.605151   25.022692 O.co2      1 MOL1        -0.6830
       3    O2      18.125638   18.074815   23.859652 O.co2      1 MOL1        -0.6830
       4    C2      18.860361   19.999043   22.708050 C.3        1 MOL1        -0.2050
       5    H1      18.469792   20.999145   22.929707 H          1 MOL1         0.0710
       6    H2      18.228342   19.588821   21.912112 H          1 MOL1         0.0710
       7    C3      20.333626   20.118369   22.230632 C.3        1 MOL1        -0.1947
       8    H3      20.380429   20.805652   21.375165 H          1 MOL1         0.0712
       9    H4      20.927296   20.581707   23.030774 H          1 MOL1         0.0712
      10    C4      20.987947   18.772269   21.838369 C.3        1 MOL1        -0.1921
      11    H5      20.978745   18.087025   22.697411 H          1 MOL1         0.0712
      12    H6      22.044771   18.951201   21.597052 H          1 MOL1         0.0712
      13    C5      20.308828   18.094921   20.629055 C.3        1 MOL1        -0.2936
      14    H7      19.283496   17.786287   20.869738 H          1 MOL1         0.0724
      15    H8      20.864194   17.196262   20.330993 H          1 MOL1         0.0724
      16    H9      20.273175   18.772791   19.766334 H          1 MOL1         0.0724
@<TRIPOS>BOND
    1     1     2    1
    2     1     3    2
    3     1     4    1
    4     4     5    1
    5     4     6    1
    6     4     7    1
    7     7     8    1
    8     7     9    1
    9     7    10    1
   10    10    11    1
   11    10    12    1
   12    10    13    1
   13    13    14    1
   14    13    15    1
   15    13    16    1
@<TRIPOS>SUBSTRUCTURE
       1 MOL1            1 RESIDUE      1      MOL     
@<SCITEGIC>MOL_PROPERTY
VConf Rank
SciTegic.value.IntegerValue
247

@<SCITEGIC>MOL_PROPERTY
Conf_Id
SciTegic.value.IntegerValue
37

@<SCITEGIC>MOL_PROPERTY
Delta U+W
SciTegic.value.DoubleValue
1.063

@<SCITEGIC>MOL_PROPERTY
U+W
SciTegic.value.DoubleValue
-55.841

@<SCITEGIC>MOL_PROPERTY
Grad RMS
SciTegic.value.DoubleValue
0.000000

@<SCITEGIC>MOL_PROPERTY
U
SciTegic.value.DoubleValue
9.719

@<SCITEGIC>MOL_PROPERTY
W
SciTegic.value.DoubleValue
-65.560

@<SCITEGIC>MOL_PROPERTY
W(PB)
SciTegic.value.DoubleValue
-67.414

@<SCITEGIC>MOL_PROPERTY
W(SA)
SciTegic.value.DoubleValue
1.854

@<SCITEGIC>MOL_PROPERTY
Valence
SciTegic.value.DoubleValue
7.002

@<SCITEGIC>MOL_PROPERTY
Coulomb
SciTegic.value.DoubleValue
2.402

@<SCITEGIC>MOL_PROPERTY
VdW
SciTegic.value.DoubleValue
0.314

@<SCITEGIC>MOL_PROPERTY
VdW6
SciTegic.value.DoubleValue
-5.861

@<SCITEGIC>MOL_PROPERTY
VdW12
SciTegic.value.DoubleValue
6.175

@<SCITEGIC>MOL_PROPERTY
Bond
SciTegic.value.DoubleValue
0.134

@<SCITEGIC>MOL_PROPERTY
Angle
SciTegic.value.DoubleValue
2.733

@<SCITEGIC>MOL_PROPERTY
Pdih
SciTegic.value.DoubleValue
4.133

@<SCITEGIC>MOL_PROPERTY
Idih
SciTegic.value.DoubleValue
0.002

@<SCITEGIC>MOL_PROPERTY
Tether
SciTegic.value.DoubleValue
0.000

@<TRIPOS>MOLECULE
guest-s18_confgen4.mol2 : confsearch ligand conformer 248
          16          15           1
SMALL
USER_CHARGES
 
@<TRIPOS>ATOM
       1    C1      18.643750   17.638978   22.555747 C.2        1 MOL1         0.6075
       2    O1      18.509619   16.643518   21.871749 O.co2      1 MOL1        -0.6830
       3    O2      18.653921   17.621043   23.770603 O.co2      1 MOL1        -0.6830
       4    C2      18.771191   18.985901   21.849133 C.3        1 MOL1        -0.2050
       5    H1      18.609081   19.784545   22.582029 H          1 MOL1         0.0710
       6    H2      17.947882   19.054576   21.128489 H          1 MOL1         0.0710
       7    C3      20.120362   19.189538   21.106874 C.3        1 MOL1        -0.1947
       8    H3      20.225458   18.405211   20.344548 H          1 MOL1         0.0712
       9    H4      20.092489   20.144231   20.564512 H          1 MOL1         0.0712
      10    C4      21.364511   19.162707   22.026311 C.3        1 MOL1        -0.1921
      11    H5      22.265832   19.231119   21.401754 H          1 MOL1         0.0712
      12    H6      21.423127   18.197857   22.549021 H          1 MOL1         0.0712
      13    C5      21.384556   20.311478   23.057022 C.3        1 MOL1        -0.2936
      14    H7      21.291320   21.286832   22.561990 H          1 MOL1         0.0724
      15    H8      22.327196   20.305786   23.619390 H          1 MOL1         0.0724
      16    H9      20.566003   20.210829   23.781127 H          1 MOL1         0.0724
@<TRIPOS>BOND
    1     1     2    1
    2     1     3    2
    3     1     4    1
    4     4     5    1
    5     4     6    1
    6     4     7    1
    7     7     8    1
    8     7     9    1
    9     7    10    1
   10    10    11    1
   11    10    12    1
   12    10    13    1
   13    13    14    1
   14    13    15    1
   15    13    16    1
@<TRIPOS>SUBSTRUCTURE
       1 MOL1            1 RESIDUE      1      MOL     
@<SCITEGIC>MOL_PROPERTY
VConf Rank
SciTegic.value.IntegerValue
248

@<SCITEGIC>MOL_PROPERTY
Conf_Id
SciTegic.value.IntegerValue
39

@<SCITEGIC>MOL_PROPERTY
Delta U+W
SciTegic.value.DoubleValue
1.129

@<SCITEGIC>MOL_PROPERTY
U+W
SciTegic.value.DoubleValue
-55.775

@<SCITEGIC>MOL_PROPERTY
Grad RMS
SciTegic.value.DoubleValue
0.000000

@<SCITEGIC>MOL_PROPERTY
U
SciTegic.value.DoubleValue
9.718

@<SCITEGIC>MOL_PROPERTY
W
SciTegic.value.DoubleValue
-65.493

@<SCITEGIC>MOL_PROPERTY
W(PB)
SciTegic.value.DoubleValue
-67.361

@<SCITEGIC>MOL_PROPERTY
W(SA)
SciTegic.value.DoubleValue
1.869

@<SCITEGIC>MOL_PROPERTY
Valence
SciTegic.value.DoubleValue
7.002

@<SCITEGIC>MOL_PROPERTY
Coulomb
SciTegic.value.DoubleValue
2.402

@<SCITEGIC>MOL_PROPERTY
VdW
SciTegic.value.DoubleValue
0.314

@<SCITEGIC>MOL_PROPERTY
VdW6
SciTegic.value.DoubleValue
-5.861

@<SCITEGIC>MOL_PROPERTY
VdW12
SciTegic.value.DoubleValue
6.175

@<SCITEGIC>MOL_PROPERTY
Bond
SciTegic.value.DoubleValue
0.134

@<SCITEGIC>MOL_PROPERTY
Angle
SciTegic.value.DoubleValue
2.734

@<SCITEGIC>MOL_PROPERTY
Pdih
SciTegic.value.DoubleValue
4.133

@<SCITEGIC>MOL_PROPERTY
Idih
SciTegic.value.DoubleValue
0.002

@<SCITEGIC>MOL_PROPERTY
Tether
SciTegic.value.DoubleValue
0.000

@<TRIPOS>MOLECULE
guest-s18_confgen4.mol2 : confsearch ligand conformer 249
          16          15           1
SMALL
USER_CHARGES
 
@<TRIPOS>ATOM
       1    C1      18.937423   19.866499   23.831108 C.2        1 MOL1         0.6075
       2    O1      18.744178   19.032706   24.693816 O.co2      1 MOL1        -0.6830
       3    O2      18.072935   20.614676   23.418735 O.co2      1 MOL1        -0.6830
       4    C2      20.360479   20.042242   23.304153 C.3        1 MOL1        -0.2050
       5    H1      21.025260   19.348976   23.833707 H          1 MOL1         0.0710
       6    H2      20.672329   21.053983   23.588545 H          1 MOL1         0.0710
       7    C3      20.524996   19.876787   21.767097 C.3        1 MOL1        -0.1947
       8    H3      19.722696   20.415905   21.244405 H          1 MOL1         0.0712
       9    H4      21.461990   20.367934   21.471686 H          1 MOL1         0.0712
      10    C4      20.586303   18.409916   21.277106 C.3        1 MOL1        -0.1921
      11    H5      21.388198   17.873972   21.803376 H          1 MOL1         0.0712
      12    H6      20.862058   18.410306   20.213503 H          1 MOL1         0.0712
      13    C5      19.257379   17.642683   21.437114 C.3        1 MOL1        -0.2936
      14    H7      19.020421   17.470294   22.494059 H          1 MOL1         0.0724
      15    H8      19.319267   16.661639   20.948759 H          1 MOL1         0.0724
      16    H9      18.425376   18.196300   20.982572 H          1 MOL1         0.0724
@<TRIPOS>BOND
    1     1     2    1
    2     1     3    2
    3     1     4    1
    4     4     5    1
    5     4     6    1
    6     4     7    1
    7     7     8    1
    8     7     9    1
    9     7    10    1
   10    10    11    1
   11    10    12    1
   12    10    13    1
   13    13    14    1
   14    13    15    1
   15    13    16    1
@<TRIPOS>SUBSTRUCTURE
       1 MOL1            1 RESIDUE      1      MOL     
@<SCITEGIC>MOL_PROPERTY
VConf Rank
SciTegic.value.IntegerValue
249

@<SCITEGIC>MOL_PROPERTY
Conf_Id
SciTegic.value.IntegerValue
47

@<SCITEGIC>MOL_PROPERTY
Delta U+W
SciTegic.value.DoubleValue
2.301

@<SCITEGIC>MOL_PROPERTY
U+W
SciTegic.value.DoubleValue
-54.603

@<SCITEGIC>MOL_PROPERTY
Grad RMS
SciTegic.value.DoubleValue
0.000000

@<SCITEGIC>MOL_PROPERTY
U
SciTegic.value.DoubleValue
11.258

@<SCITEGIC>MOL_PROPERTY
W
SciTegic.value.DoubleValue
-65.861

@<SCITEGIC>MOL_PROPERTY
W(PB)
SciTegic.value.DoubleValue
-67.702

@<SCITEGIC>MOL_PROPERTY
W(SA)
SciTegic.value.DoubleValue
1.841

@<SCITEGIC>MOL_PROPERTY
Valence
SciTegic.value.DoubleValue
8.169

@<SCITEGIC>MOL_PROPERTY
Coulomb
SciTegic.value.DoubleValue
2.735

@<SCITEGIC>MOL_PROPERTY
VdW
SciTegic.value.DoubleValue
0.355

@<SCITEGIC>MOL_PROPERTY
VdW6
SciTegic.value.DoubleValue
-6.245

@<SCITEGIC>MOL_PROPERTY
VdW12
SciTegic.value.DoubleValue
6.600

@<SCITEGIC>MOL_PROPERTY
Bond
SciTegic.value.DoubleValue
0.149

@<SCITEGIC>MOL_PROPERTY
Angle
SciTegic.value.DoubleValue
3.168

@<SCITEGIC>MOL_PROPERTY
Pdih
SciTegic.value.DoubleValue
4.840

@<SCITEGIC>MOL_PROPERTY
Idih
SciTegic.value.DoubleValue
0.011

@<SCITEGIC>MOL_PROPERTY
Tether
SciTegic.value.DoubleValue
0.000

@<TRIPOS>MOLECULE
guest-s18_confgen4.mol2 : confsearch ligand conformer 250
          16          15           1
SMALL
USER_CHARGES
 
@<TRIPOS>ATOM
       1    C1      19.421658   21.006915   22.698785 C.2        1 MOL1         0.6075
       2    O1      19.354117   21.637222   21.661813 O.co2      1 MOL1        -0.6830
       3    O2      20.030642   21.392648   23.677134 O.co2      1 MOL1        -0.6830
       4    C2      18.627276   19.706831   22.810170 C.3        1 MOL1        -0.2050
       5    H1      17.572286   19.978058   22.686961 H          1 MOL1         0.0710
       6    H2      18.732183   19.310593   23.827504 H          1 MOL1         0.0710
       7    C3      18.992444   18.613589   21.766877 C.3        1 MOL1        -0.1947
       8    H3      18.150736   17.910748   21.703661 H          1 MOL1         0.0712
       9    H4      19.086002   19.064454   20.769126 H          1 MOL1         0.0712
      10    C4      20.264161   17.797780   22.102668 C.3        1 MOL1        -0.1921
      11    H5      20.336317   16.960206   21.395167 H          1 MOL1         0.0712
      12    H6      20.167433   17.350288   23.101480 H          1 MOL1         0.0712
      13    C5      21.569316   18.616825   22.025083 C.3        1 MOL1        -0.2936
      14    H7      22.441869   17.959895   22.133996 H          1 MOL1         0.0724
      15    H8      21.618943   19.365919   22.824706 H          1 MOL1         0.0724
      16    H9      21.652771   19.135047   21.060816 H          1 MOL1         0.0724
@<TRIPOS>BOND
    1     1     2    1
    2     1     3    2
    3     1     4    1
    4     4     5    1
    5     4     6    1
    6     4     7    1
    7     7     8    1
    8     7     9    1
    9     7    10    1
   10    10    11    1
   11    10    12    1
   12    10    13    1
   13    13    14    1
   14    13    15    1
   15    13    16    1
@<TRIPOS>SUBSTRUCTURE
       1 MOL1            1 RESIDUE      1      MOL     
@<SCITEGIC>MOL_PROPERTY
VConf Rank
SciTegic.value.IntegerValue
250

@<SCITEGIC>MOL_PROPERTY
Conf_Id
SciTegic.value.IntegerValue
45

@<SCITEGIC>MOL_PROPERTY
Delta U+W
SciTegic.value.DoubleValue
2.303

@<SCITEGIC>MOL_PROPERTY
U+W
SciTegic.value.DoubleValue
-54.601

@<SCITEGIC>MOL_PROPERTY
Grad RMS
SciTegic.value.DoubleValue
0.000000

@<SCITEGIC>MOL_PROPERTY
U
SciTegic.value.DoubleValue
11.258

@<SCITEGIC>MOL_PROPERTY
W
SciTegic.value.DoubleValue
-65.860

@<SCITEGIC>MOL_PROPERTY
W(PB)
SciTegic.value.DoubleValue
-67.709

@<SCITEGIC>MOL_PROPERTY
W(SA)
SciTegic.value.DoubleValue
1.849

@<SCITEGIC>MOL_PROPERTY
Valence
SciTegic.value.DoubleValue
8.169

@<SCITEGIC>MOL_PROPERTY
Coulomb
SciTegic.value.DoubleValue
2.735

@<SCITEGIC>MOL_PROPERTY
VdW
SciTegic.value.DoubleValue
0.355

@<SCITEGIC>MOL_PROPERTY
VdW6
SciTegic.value.DoubleValue
-6.245

@<SCITEGIC>MOL_PROPERTY
VdW12
SciTegic.value.DoubleValue
6.600

@<SCITEGIC>MOL_PROPERTY
Bond
SciTegic.value.DoubleValue
0.149

@<SCITEGIC>MOL_PROPERTY
Angle
SciTegic.value.DoubleValue
3.168

@<SCITEGIC>MOL_PROPERTY
Pdih
SciTegic.value.DoubleValue
4.840

@<SCITEGIC>MOL_PROPERTY
Idih
SciTegic.value.DoubleValue
0.011

@<SCITEGIC>MOL_PROPERTY
Tether
SciTegic.value.DoubleValue
0.000

@<TRIPOS>MOLECULE
guest-s18_confgen4.mol2 : confsearch ligand conformer 251
          16          15           1
SMALL
USER_CHARGES
 
@<TRIPOS>ATOM
       1    C1      19.616756   21.737859   21.139652 C.2        1 MOL1         0.6075
       2    O1      19.909464   21.531083   19.978040 O.co2      1 MOL1        -0.6830
       3    O2      19.297212   22.832768   21.557241 O.co2      1 MOL1        -0.6830
       4    C2      19.642731   20.586724   22.146681 C.3        1 MOL1        -0.2050
       5    H1      18.642041   20.516417   22.589214 H          1 MOL1         0.0710
       6    H2      20.330145   20.871773   22.951896 H          1 MOL1         0.0710
       7    C3      20.057349   19.207764   21.567967 C.3        1 MOL1        -0.1947
       8    H3      19.368423   18.930071   20.758191 H          1 MOL1         0.0712
       9    H4      21.058268   19.285792   21.121265 H          1 MOL1         0.0712
      10    C4      20.056343   18.107824   22.650275 C.3        1 MOL1        -0.1921
      11    H5      19.055423   18.027550   23.096610 H          1 MOL1         0.0712
      12    H6      20.746277   18.383474   23.459909 H          1 MOL1         0.0712
      13    C5      20.468878   16.740844   22.069483 C.3        1 MOL1        -0.2936
      14    H7      19.776655   16.425484   21.277748 H          1 MOL1         0.0724
      15    H8      20.462980   15.970525   22.851606 H          1 MOL1         0.0724
      16    H9      21.479984   16.784028   21.643727 H          1 MOL1         0.0724
@<TRIPOS>BOND
    1     1     2    1
    2     1     3    2
    3     1     4    1
    4     4     5    1
    5     4     6    1
    6     4     7    1
    7     7     8    1
    8     7     9    1
    9     7    10    1
   10    10    11    1
   11    10    12    1
   12    10    13    1
   13    13    14    1
   14    13    15    1
   15    13    16    1
@<TRIPOS>SUBSTRUCTURE
       1 MOL1            1 RESIDUE      1      MOL     
@<SCITEGIC>MOL_PROPERTY
VConf Rank
SciTegic.value.IntegerValue
251

@<SCITEGIC>MOL_PROPERTY
Conf_Id
SciTegic.value.IntegerValue
0

@<SCITEGIC>MOL_PROPERTY
Delta U+W
SciTegic.value.DoubleValue
0.000

@<SCITEGIC>MOL_PROPERTY
U+W
SciTegic.value.DoubleValue
-56.904

@<SCITEGIC>MOL_PROPERTY
Grad RMS
SciTegic.value.DoubleValue
0.000000

@<SCITEGIC>MOL_PROPERTY
U
SciTegic.value.DoubleValue
7.329

@<SCITEGIC>MOL_PROPERTY
W
SciTegic.value.DoubleValue
-64.233

@<SCITEGIC>MOL_PROPERTY
W(PB)
SciTegic.value.DoubleValue
-66.148

@<SCITEGIC>MOL_PROPERTY
W(SA)
SciTegic.value.DoubleValue
1.915

@<SCITEGIC>MOL_PROPERTY
Valence
SciTegic.value.DoubleValue
6.755

@<SCITEGIC>MOL_PROPERTY
Coulomb
SciTegic.value.DoubleValue
-0.421

@<SCITEGIC>MOL_PROPERTY
VdW
SciTegic.value.DoubleValue
0.995

@<SCITEGIC>MOL_PROPERTY
VdW6
SciTegic.value.DoubleValue
-4.495

@<SCITEGIC>MOL_PROPERTY
VdW12
SciTegic.value.DoubleValue
5.490

@<SCITEGIC>MOL_PROPERTY
Bond
SciTegic.value.DoubleValue
0.106

@<SCITEGIC>MOL_PROPERTY
Angle
SciTegic.value.DoubleValue
2.715

@<SCITEGIC>MOL_PROPERTY
Pdih
SciTegic.value.DoubleValue
3.934

@<SCITEGIC>MOL_PROPERTY
Idih
SciTegic.value.DoubleValue
0.000

@<SCITEGIC>MOL_PROPERTY
Tether
SciTegic.value.DoubleValue
0.000

@<TRIPOS>MOLECULE
guest-s18_confgen4.mol2 : confsearch ligand conformer 252
          16          15           1
SMALL
USER_CHARGES
 
@<TRIPOS>ATOM
       1    C1      20.894727   16.946777   20.528549 C.2        1 MOL1         0.6075
       2    O1      22.083970   16.716398   20.620581 O.co2      1 MOL1        -0.6830
       3    O2      20.054501   16.085642   20.360296 O.co2      1 MOL1        -0.6830
       4    C2      20.429575   18.393749   20.648916 C.3        1 MOL1        -0.2050
       5    H1      19.540032   18.519490   20.019828 H          1 MOL1         0.0710
       6    H2      21.213244   19.039512   20.234543 H          1 MOL1         0.0710
       7    C3      20.114201   18.806088   22.107880 C.3        1 MOL1        -0.1947
       8    H3      19.337138   18.142871   22.512685 H          1 MOL1         0.0712
       9    H4      21.010409   18.662852   22.727433 H          1 MOL1         0.0712
      10    C4      19.646225   20.273328   22.201509 C.3        1 MOL1        -0.1921
      11    H5      18.749611   20.416810   21.582612 H          1 MOL1         0.0712
      12    H6      20.423304   20.936928   21.797377 H          1 MOL1         0.0712
      13    C5      19.334222   20.676675   23.656179 C.3        1 MOL1        -0.2936
      14    H7      20.223295   20.572637   24.291943 H          1 MOL1         0.0724
      15    H8      18.537255   20.048660   24.075600 H          1 MOL1         0.0724
      16    H9      19.003036   21.722176   23.705091 H          1 MOL1         0.0724
@<TRIPOS>BOND
    1     1     2    1
    2     1     3    2
    3     1     4    1
    4     4     5    1
    5     4     6    1
    6     4     7    1
    7     7     8    1
    8     7     9    1
    9     7    10    1
   10    10    11    1
   11    10    12    1
   12    10    13    1
   13    13    14    1
   14    13    15    1
   15    13    16    1
@<TRIPOS>SUBSTRUCTURE
       1 MOL1            1 RESIDUE      1      MOL     
@<SCITEGIC>MOL_PROPERTY
VConf Rank
SciTegic.value.IntegerValue
252

@<SCITEGIC>MOL_PROPERTY
Conf_Id
SciTegic.value.IntegerValue
22

@<SCITEGIC>MOL_PROPERTY
Delta U+W
SciTegic.value.DoubleValue
-1.185

@<SCITEGIC>MOL_PROPERTY
U+W
SciTegic.value.DoubleValue
-58.089

@<SCITEGIC>MOL_PROPERTY
Grad RMS
SciTegic.value.DoubleValue
0.000000

@<SCITEGIC>MOL_PROPERTY
U
SciTegic.value.DoubleValue
6.298

@<SCITEGIC>MOL_PROPERTY
W
SciTegic.value.DoubleValue
-64.387

@<SCITEGIC>MOL_PROPERTY
W(PB)
SciTegic.value.DoubleValue
-66.329

@<SCITEGIC>MOL_PROPERTY
W(SA)
SciTegic.value.DoubleValue
1.942

@<SCITEGIC>MOL_PROPERTY
Valence
SciTegic.value.DoubleValue
6.246

@<SCITEGIC>MOL_PROPERTY
Coulomb
SciTegic.value.DoubleValue
-0.408

@<SCITEGIC>MOL_PROPERTY
VdW
SciTegic.value.DoubleValue
0.460

@<SCITEGIC>MOL_PROPERTY
VdW6
SciTegic.value.DoubleValue
-4.207

@<SCITEGIC>MOL_PROPERTY
VdW12
SciTegic.value.DoubleValue
4.667

@<SCITEGIC>MOL_PROPERTY
Bond
SciTegic.value.DoubleValue
0.072

@<SCITEGIC>MOL_PROPERTY
Angle
SciTegic.value.DoubleValue
2.246

@<SCITEGIC>MOL_PROPERTY
Pdih
SciTegic.value.DoubleValue
3.928

@<SCITEGIC>MOL_PROPERTY
Idih
SciTegic.value.DoubleValue
0.001

@<SCITEGIC>MOL_PROPERTY
Tether
SciTegic.value.DoubleValue
0.000

@<TRIPOS>MOLECULE
guest-s18_confgen4.mol2 : confsearch ligand conformer 253
          16          15           1
SMALL
USER_CHARGES
 
@<TRIPOS>ATOM
       1    C1      19.426140   21.537238   22.819318 C.2        1 MOL1         0.6075
       2    O1      19.737246   21.926244   23.927416 O.co2      1 MOL1        -0.6830
       3    O2      18.550944   22.048313   22.149399 O.co2      1 MOL1        -0.6830
       4    C2      20.160419   20.329755   22.247137 C.3        1 MOL1        -0.2050
       5    H1      21.188899   20.345069   22.627347 H          1 MOL1         0.0710
       6    H2      20.213893   20.455314   21.159712 H          1 MOL1         0.0710
       7    C3      19.477616   18.984790   22.607473 C.3        1 MOL1        -0.1947
       8    H3      19.360928   18.929149   23.698672 H          1 MOL1         0.0712
       9    H4      18.463481   18.963825   22.185100 H          1 MOL1         0.0712
      10    C4      20.268401   17.745499   22.128699 C.3        1 MOL1        -0.1921
      11    H5      19.777876   16.842041   22.516590 H          1 MOL1         0.0712
      12    H6      21.278742   17.760152   22.560413 H          1 MOL1         0.0712
      13    C5      20.362190   17.639879   20.591500 C.3        1 MOL1        -0.2936
      14    H7      20.945525   18.466847   20.167678 H          1 MOL1         0.0724
      15    H8      19.363764   17.652567   20.135171 H          1 MOL1         0.0724
      16    H9      20.854656   16.702891   20.300744 H          1 MOL1         0.0724
@<TRIPOS>BOND
    1     1     2    1
    2     1     3    2
    3     1     4    1
    4     4     5    1
    5     4     6    1
    6     4     7    1
    7     7     8    1
    8     7     9    1
    9     7    10    1
   10    10    11    1
   11    10    12    1
   12    10    13    1
   13    13    14    1
   14    13    15    1
   15    13    16    1
@<TRIPOS>SUBSTRUCTURE
       1 MOL1            1 RESIDUE      1      MOL     
@<SCITEGIC>MOL_PROPERTY
VConf Rank
SciTegic.value.IntegerValue
253

@<SCITEGIC>MOL_PROPERTY
Conf_Id
SciTegic.value.IntegerValue
36

@<SCITEGIC>MOL_PROPERTY
Delta U+W
SciTegic.value.DoubleValue
-0.427

@<SCITEGIC>MOL_PROPERTY
U+W
SciTegic.value.DoubleValue
-57.331

@<SCITEGIC>MOL_PROPERTY
Grad RMS
SciTegic.value.DoubleValue
0.000000

@<SCITEGIC>MOL_PROPERTY
U
SciTegic.value.DoubleValue
7.263

@<SCITEGIC>MOL_PROPERTY
W
SciTegic.value.DoubleValue
-64.594

@<SCITEGIC>MOL_PROPERTY
W(PB)
SciTegic.value.DoubleValue
-66.513

@<SCITEGIC>MOL_PROPERTY
W(SA)
SciTegic.value.DoubleValue
1.920

@<SCITEGIC>MOL_PROPERTY
Valence
SciTegic.value.DoubleValue
6.734

@<SCITEGIC>MOL_PROPERTY
Coulomb
SciTegic.value.DoubleValue
-0.068

@<SCITEGIC>MOL_PROPERTY
VdW
SciTegic.value.DoubleValue
0.598

@<SCITEGIC>MOL_PROPERTY
VdW6
SciTegic.value.DoubleValue
-4.819

@<SCITEGIC>MOL_PROPERTY
VdW12
SciTegic.value.DoubleValue
5.417

@<SCITEGIC>MOL_PROPERTY
Bond
SciTegic.value.DoubleValue
0.107

@<SCITEGIC>MOL_PROPERTY
Angle
SciTegic.value.DoubleValue
2.469

@<SCITEGIC>MOL_PROPERTY
Pdih
SciTegic.value.DoubleValue
4.157

@<SCITEGIC>MOL_PROPERTY
Idih
SciTegic.value.DoubleValue
0.001

@<SCITEGIC>MOL_PROPERTY
Tether
SciTegic.value.DoubleValue
0.000

@<TRIPOS>MOLECULE
guest-s18_confgen4.mol2 : confsearch ligand conformer 254
          16          15           1
SMALL
USER_CHARGES
 
@<TRIPOS>ATOM
       1    C1      18.489488   17.101299   21.388181 C.2        1 MOL1         0.6075
       2    O1      19.169832   16.142351   21.082391 O.co2      1 MOL1        -0.6830
       3    O2      17.314660   17.210820   21.098735 O.co2      1 MOL1        -0.6830
       4    C2      19.150491   18.238235   22.159560 C.3        1 MOL1        -0.2050
       5    H1      19.920385   17.800891   22.805401 H          1 MOL1         0.0710
       6    H2      18.395251   18.690067   22.813797 H          1 MOL1         0.0710
       7    C3      19.766531   19.316449   21.230612 C.3        1 MOL1        -0.1947
       8    H3      20.550979   18.861139   20.610416 H          1 MOL1         0.0712
       9    H4      18.990403   19.671675   20.538608 H          1 MOL1         0.0712
      10    C4      20.343795   20.530159   21.994865 C.3        1 MOL1        -0.1921
      11    H5      19.556522   20.992725   22.606105 H          1 MOL1         0.0712
      12    H6      20.657701   21.289869   21.265748 H          1 MOL1         0.0712
      13    C5      21.549911   20.169333   22.888185 C.3        1 MOL1        -0.2936
      14    H7      21.257310   19.497211   23.704531 H          1 MOL1         0.0724
      15    H8      21.976965   21.074111   23.339857 H          1 MOL1         0.0724
      16    H9      22.339063   19.678805   22.303487 H          1 MOL1         0.0724
@<TRIPOS>BOND
    1     1     2    1
    2     1     3    2
    3     1     4    1
    4     4     5    1
    5     4     6    1
    6     4     7    1
    7     7     8    1
    8     7     9    1
    9     7    10    1
   10    10    11    1
   11    10    12    1
   12    10    13    1
   13    13    14    1
   14    13    15    1
   15    13    16    1
@<TRIPOS>SUBSTRUCTURE
       1 MOL1            1 RESIDUE      1      MOL     
@<SCITEGIC>MOL_PROPERTY
VConf Rank
SciTegic.value.IntegerValue
254

@<SCITEGIC>MOL_PROPERTY
Conf_Id
SciTegic.value.IntegerValue
17

@<SCITEGIC>MOL_PROPERTY
Delta U+W
SciTegic.value.DoubleValue
-0.432

@<SCITEGIC>MOL_PROPERTY
U+W
SciTegic.value.DoubleValue
-57.336

@<SCITEGIC>MOL_PROPERTY
Grad RMS
SciTegic.value.DoubleValue
0.000000

@<SCITEGIC>MOL_PROPERTY
U
SciTegic.value.DoubleValue
7.263

@<SCITEGIC>MOL_PROPERTY
W
SciTegic.value.DoubleValue
-64.599

@<SCITEGIC>MOL_PROPERTY
W(PB)
SciTegic.value.DoubleValue
-66.503

@<SCITEGIC>MOL_PROPERTY
W(SA)
SciTegic.value.DoubleValue
1.904

@<SCITEGIC>MOL_PROPERTY
Valence
SciTegic.value.DoubleValue
6.734

@<SCITEGIC>MOL_PROPERTY
Coulomb
SciTegic.value.DoubleValue
-0.068

@<SCITEGIC>MOL_PROPERTY
VdW
SciTegic.value.DoubleValue
0.598

@<SCITEGIC>MOL_PROPERTY
VdW6
SciTegic.value.DoubleValue
-4.819

@<SCITEGIC>MOL_PROPERTY
VdW12
SciTegic.value.DoubleValue
5.417

@<SCITEGIC>MOL_PROPERTY
Bond
SciTegic.value.DoubleValue
0.107

@<SCITEGIC>MOL_PROPERTY
Angle
SciTegic.value.DoubleValue
2.469

@<SCITEGIC>MOL_PROPERTY
Pdih
SciTegic.value.DoubleValue
4.157

@<SCITEGIC>MOL_PROPERTY
Idih
SciTegic.value.DoubleValue
0.001

@<SCITEGIC>MOL_PROPERTY
Tether
SciTegic.value.DoubleValue
0.000

@<TRIPOS>MOLECULE
guest-s18_confgen4.mol2 : confsearch ligand conformer 255
          16          15           1
SMALL
USER_CHARGES
 
@<TRIPOS>ATOM
       1    C1      22.442366   19.408448   21.629377 C.2        1 MOL1         0.6075
       2    O1      22.679949   19.647573   20.462023 O.co2      1 MOL1        -0.6830
       3    O2      22.904307   20.048568   22.553021 O.co2      1 MOL1        -0.6830
       4    C2      21.533747   18.225100   21.951235 C.3        1 MOL1        -0.2050
       5    H1      21.696300   17.932180   22.995677 H          1 MOL1         0.0710
       6    H2      21.860726   17.382060   21.331073 H          1 MOL1         0.0710
       7    C3      20.027852   18.497915   21.700461 C.3        1 MOL1        -0.1947
       8    H3      19.884181   18.817632   20.658941 H          1 MOL1         0.0712
       9    H4      19.470403   17.559390   21.822851 H          1 MOL1         0.0712
      10    C4      19.449451   19.561716   22.658565 C.3        1 MOL1        -0.1921
      11    H5      19.986544   20.511867   22.530237 H          1 MOL1         0.0712
      12    H6      19.604931   19.246537   23.699653 H          1 MOL1         0.0712
      13    C5      17.945052   19.788999   22.410634 C.3        1 MOL1        -0.2936
      14    H7      17.764343   20.134953   21.384422 H          1 MOL1         0.0724
      15    H8      17.550211   20.547865   23.098632 H          1 MOL1         0.0724
      16    H9      17.376737   18.862479   22.565538 H          1 MOL1         0.0724
@<TRIPOS>BOND
    1     1     2    1
    2     1     3    2
    3     1     4    1
    4     4     5    1
    5     4     6    1
    6     4     7    1
    7     7     8    1
    8     7     9    1
    9     7    10    1
   10    10    11    1
   11    10    12    1
   12    10    13    1
   13    13    14    1
   14    13    15    1
   15    13    16    1
@<TRIPOS>SUBSTRUCTURE
       1 MOL1            1 RESIDUE      1      MOL     
@<SCITEGIC>MOL_PROPERTY
VConf Rank
SciTegic.value.IntegerValue
255

@<SCITEGIC>MOL_PROPERTY
Conf_Id
SciTegic.value.IntegerValue
19

@<SCITEGIC>MOL_PROPERTY
Delta U+W
SciTegic.value.DoubleValue
0.048

@<SCITEGIC>MOL_PROPERTY
U+W
SciTegic.value.DoubleValue
-56.856

@<SCITEGIC>MOL_PROPERTY
Grad RMS
SciTegic.value.DoubleValue
0.000000

@<SCITEGIC>MOL_PROPERTY
U
SciTegic.value.DoubleValue
8.276

@<SCITEGIC>MOL_PROPERTY
W
SciTegic.value.DoubleValue
-65.132

@<SCITEGIC>MOL_PROPERTY
W(PB)
SciTegic.value.DoubleValue
-67.031

@<SCITEGIC>MOL_PROPERTY
W(SA)
SciTegic.value.DoubleValue
1.899

@<SCITEGIC>MOL_PROPERTY
Valence
SciTegic.value.DoubleValue
6.513

@<SCITEGIC>MOL_PROPERTY
Coulomb
SciTegic.value.DoubleValue
1.428

@<SCITEGIC>MOL_PROPERTY
VdW
SciTegic.value.DoubleValue
0.335

@<SCITEGIC>MOL_PROPERTY
VdW6
SciTegic.value.DoubleValue
-5.021

@<SCITEGIC>MOL_PROPERTY
VdW12
SciTegic.value.DoubleValue
5.356

@<SCITEGIC>MOL_PROPERTY
Bond
SciTegic.value.DoubleValue
0.092

@<SCITEGIC>MOL_PROPERTY
Angle
SciTegic.value.DoubleValue
2.417

@<SCITEGIC>MOL_PROPERTY
Pdih
SciTegic.value.DoubleValue
4.003

@<SCITEGIC>MOL_PROPERTY
Idih
SciTegic.value.DoubleValue
0.001

@<SCITEGIC>MOL_PROPERTY
Tether
SciTegic.value.DoubleValue
0.000

@<TRIPOS>MOLECULE
guest-s18_confgen4.mol2 : confsearch ligand conformer 256
          16          15           1
SMALL
USER_CHARGES
 
@<TRIPOS>ATOM
       1    C1      21.536880   18.622135   20.503084 C.2        1 MOL1         0.6075
       2    O1      22.463958   19.407394   20.487699 O.co2      1 MOL1        -0.6830
       3    O2      20.954660   18.251530   19.503117 O.co2      1 MOL1        -0.6830
       4    C2      21.097001   18.054103   21.849689 C.3        1 MOL1        -0.2050
       5    H1      22.002570   17.759536   22.393206 H          1 MOL1         0.0710
       6    H2      20.521387   17.137423   21.672342 H          1 MOL1         0.0710
       7    C3      20.273778   19.043652   22.714639 C.3        1 MOL1        -0.1947
       8    H3      20.122182   18.605637   23.710490 H          1 MOL1         0.0712
       9    H4      20.850893   19.967476   22.859933 H          1 MOL1         0.0712
      10    C4      18.901031   19.377200   22.091338 C.3        1 MOL1        -0.1921
      11    H5      18.330098   18.451434   21.935226 H          1 MOL1         0.0712
      12    H6      19.040991   19.835269   21.102243 H          1 MOL1         0.0712
      13    C5      18.090309   20.335077   22.986631 C.3        1 MOL1        -0.2936
      14    H7      17.904657   19.889082   23.972551 H          1 MOL1         0.0724
      15    H8      17.118680   20.562476   22.529089 H          1 MOL1         0.0724
      16    H9      18.625723   21.282252   23.133744 H          1 MOL1         0.0724
@<TRIPOS>BOND
    1     1     2    1
    2     1     3    2
    3     1     4    1
    4     4     5    1
    5     4     6    1
    6     4     7    1
    7     7     8    1
    8     7     9    1
    9     7    10    1
   10    10    11    1
   11    10    12    1
   12    10    13    1
   13    13    14    1
   14    13    15    1
   15    13    16    1
@<TRIPOS>SUBSTRUCTURE
       1 MOL1            1 RESIDUE      1      MOL     
@<SCITEGIC>MOL_PROPERTY
VConf Rank
SciTegic.value.IntegerValue
256

@<SCITEGIC>MOL_PROPERTY
Conf_Id
SciTegic.value.IntegerValue
20

@<SCITEGIC>MOL_PROPERTY
Delta U+W
SciTegic.value.DoubleValue
-0.010

@<SCITEGIC>MOL_PROPERTY
U+W
SciTegic.value.DoubleValue
-56.914

@<SCITEGIC>MOL_PROPERTY
Grad RMS
SciTegic.value.DoubleValue
0.000000

@<SCITEGIC>MOL_PROPERTY
U
SciTegic.value.DoubleValue
8.277

@<SCITEGIC>MOL_PROPERTY
W
SciTegic.value.DoubleValue
-65.191

@<SCITEGIC>MOL_PROPERTY
W(PB)
SciTegic.value.DoubleValue
-67.081

@<SCITEGIC>MOL_PROPERTY
W(SA)
SciTegic.value.DoubleValue
1.890

@<SCITEGIC>MOL_PROPERTY
Valence
SciTegic.value.DoubleValue
6.513

@<SCITEGIC>MOL_PROPERTY
Coulomb
SciTegic.value.DoubleValue
1.429

@<SCITEGIC>MOL_PROPERTY
VdW
SciTegic.value.DoubleValue
0.335

@<SCITEGIC>MOL_PROPERTY
VdW6
SciTegic.value.DoubleValue
-5.021

@<SCITEGIC>MOL_PROPERTY
VdW12
SciTegic.value.DoubleValue
5.356

@<SCITEGIC>MOL_PROPERTY
Bond
SciTegic.value.DoubleValue
0.092

@<SCITEGIC>MOL_PROPERTY
Angle
SciTegic.value.DoubleValue
2.417

@<SCITEGIC>MOL_PROPERTY
Pdih
SciTegic.value.DoubleValue
4.002

@<SCITEGIC>MOL_PROPERTY
Idih
SciTegic.value.DoubleValue
0.001

@<SCITEGIC>MOL_PROPERTY
Tether
SciTegic.value.DoubleValue
0.000

@<TRIPOS>MOLECULE
guest-s18_confgen4.mol2 : confsearch ligand conformer 257
          16          15           1
SMALL
USER_CHARGES
 
@<TRIPOS>ATOM
       1    C1      19.984602   19.940510   20.173491 C.2        1 MOL1         0.6075
       2    O1      20.920015   19.720061   19.429723 O.co2      1 MOL1        -0.6830
       3    O2      19.503415   21.044264   20.336233 O.co2      1 MOL1        -0.6830
       4    C2      19.361363   18.760991   20.915148 C.3        1 MOL1        -0.2050
       5    H1      19.158972   17.980016   20.172857 H          1 MOL1         0.0710
       6    H2      18.388067   19.070098   21.313137 H          1 MOL1         0.0710
       7    C3      20.253805   18.176255   22.044001 C.3        1 MOL1        -0.1947
       8    H3      19.764749   17.287951   22.466032 H          1 MOL1         0.0712
       9    H4      21.197721   17.827659   21.602571 H          1 MOL1         0.0712
      10    C4      20.573131   19.171643   23.184713 C.3        1 MOL1        -0.1921
      11    H5      21.094411   20.050318   22.779996 H          1 MOL1         0.0712
      12    H6      21.271739   18.693098   23.884762 H          1 MOL1         0.0712
      13    C5      19.320810   19.626554   23.963937 C.3        1 MOL1        -0.2936
      14    H7      18.649906   20.218594   23.328434 H          1 MOL1         0.0724
      15    H8      19.607342   20.253599   24.818088 H          1 MOL1         0.0724
      16    H9      18.761553   18.764136   24.349337 H          1 MOL1         0.0724
@<TRIPOS>BOND
    1     1     2    1
    2     1     3    2
    3     1     4    1
    4     4     5    1
    5     4     6    1
    6     4     7    1
    7     7     8    1
    8     7     9    1
    9     7    10    1
   10    10    11    1
   11    10    12    1
   12    10    13    1
   13    13    14    1
   14    13    15    1
   15    13    16    1
@<TRIPOS>SUBSTRUCTURE
       1 MOL1            1 RESIDUE      1      MOL     
@<SCITEGIC>MOL_PROPERTY
VConf Rank
SciTegic.value.IntegerValue
257

@<SCITEGIC>MOL_PROPERTY
Conf_Id
SciTegic.value.IntegerValue
37

@<SCITEGIC>MOL_PROPERTY
Delta U+W
SciTegic.value.DoubleValue
1.063

@<SCITEGIC>MOL_PROPERTY
U+W
SciTegic.value.DoubleValue
-55.841

@<SCITEGIC>MOL_PROPERTY
Grad RMS
SciTegic.value.DoubleValue
0.000000

@<SCITEGIC>MOL_PROPERTY
U
SciTegic.value.DoubleValue
9.719

@<SCITEGIC>MOL_PROPERTY
W
SciTegic.value.DoubleValue
-65.560

@<SCITEGIC>MOL_PROPERTY
W(PB)
SciTegic.value.DoubleValue
-67.414

@<SCITEGIC>MOL_PROPERTY
W(SA)
SciTegic.value.DoubleValue
1.854

@<SCITEGIC>MOL_PROPERTY
Valence
SciTegic.value.DoubleValue
7.002

@<SCITEGIC>MOL_PROPERTY
Coulomb
SciTegic.value.DoubleValue
2.402

@<SCITEGIC>MOL_PROPERTY
VdW
SciTegic.value.DoubleValue
0.314

@<SCITEGIC>MOL_PROPERTY
VdW6
SciTegic.value.DoubleValue
-5.861

@<SCITEGIC>MOL_PROPERTY
VdW12
SciTegic.value.DoubleValue
6.175

@<SCITEGIC>MOL_PROPERTY
Bond
SciTegic.value.DoubleValue
0.134

@<SCITEGIC>MOL_PROPERTY
Angle
SciTegic.value.DoubleValue
2.733

@<SCITEGIC>MOL_PROPERTY
Pdih
SciTegic.value.DoubleValue
4.133

@<SCITEGIC>MOL_PROPERTY
Idih
SciTegic.value.DoubleValue
0.002

@<SCITEGIC>MOL_PROPERTY
Tether
SciTegic.value.DoubleValue
0.000

@<TRIPOS>MOLECULE
guest-s18_confgen4.mol2 : confsearch ligand conformer 258
          16          15           1
SMALL
USER_CHARGES
 
@<TRIPOS>ATOM
       1    C1      21.860193   17.917688   21.766645 C.2        1 MOL1         0.6075
       2    O1      23.001147   18.310715   21.909956 O.co2      1 MOL1        -0.6830
       3    O2      21.467935   16.838886   22.164918 O.co2      1 MOL1        -0.6830
       4    C2      20.879199   18.814077   21.015722 C.3        1 MOL1        -0.2050
       5    H1      20.002092   18.219276   20.736182 H          1 MOL1         0.0710
       6    H2      21.363034   19.112514   20.078321 H          1 MOL1         0.0710
       7    C3      20.451590   20.085321   21.799155 C.3        1 MOL1        -0.1947
       8    H3      21.347095   20.684095   22.015708 H          1 MOL1         0.0712
       9    H4      19.813685   20.706876   21.156413 H          1 MOL1         0.0712
      10    C4      19.710057   19.797314   23.126246 C.3        1 MOL1        -0.1921
      11    H5      19.525889   20.750300   23.641057 H          1 MOL1         0.0712
      12    H6      20.351972   19.204817   23.792947 H          1 MOL1         0.0712
      13    C5      18.362814   19.071297   22.925557 C.3        1 MOL1        -0.2936
      14    H7      17.715348   19.625989   22.234058 H          1 MOL1         0.0724
      15    H8      17.832934   18.974788   23.881995 H          1 MOL1         0.0724
      16    H9      18.511315   18.060196   22.525420 H          1 MOL1         0.0724
@<TRIPOS>BOND
    1     1     2    1
    2     1     3    2
    3     1     4    1
    4     4     5    1
    5     4     6    1
    6     4     7    1
    7     7     8    1
    8     7     9    1
    9     7    10    1
   10    10    11    1
   11    10    12    1
   12    10    13    1
   13    13    14    1
   14    13    15    1
   15    13    16    1
@<TRIPOS>SUBSTRUCTURE
       1 MOL1            1 RESIDUE      1      MOL     
@<SCITEGIC>MOL_PROPERTY
VConf Rank
SciTegic.value.IntegerValue
258

@<SCITEGIC>MOL_PROPERTY
Conf_Id
SciTegic.value.IntegerValue
39

@<SCITEGIC>MOL_PROPERTY
Delta U+W
SciTegic.value.DoubleValue
1.129

@<SCITEGIC>MOL_PROPERTY
U+W
SciTegic.value.DoubleValue
-55.775

@<SCITEGIC>MOL_PROPERTY
Grad RMS
SciTegic.value.DoubleValue
0.000000

@<SCITEGIC>MOL_PROPERTY
U
SciTegic.value.DoubleValue
9.718

@<SCITEGIC>MOL_PROPERTY
W
SciTegic.value.DoubleValue
-65.493

@<SCITEGIC>MOL_PROPERTY
W(PB)
SciTegic.value.DoubleValue
-67.361

@<SCITEGIC>MOL_PROPERTY
W(SA)
SciTegic.value.DoubleValue
1.869

@<SCITEGIC>MOL_PROPERTY
Valence
SciTegic.value.DoubleValue
7.002

@<SCITEGIC>MOL_PROPERTY
Coulomb
SciTegic.value.DoubleValue
2.402

@<SCITEGIC>MOL_PROPERTY
VdW
SciTegic.value.DoubleValue
0.314

@<SCITEGIC>MOL_PROPERTY
VdW6
SciTegic.value.DoubleValue
-5.861

@<SCITEGIC>MOL_PROPERTY
VdW12
SciTegic.value.DoubleValue
6.175

@<SCITEGIC>MOL_PROPERTY
Bond
SciTegic.value.DoubleValue
0.134

@<SCITEGIC>MOL_PROPERTY
Angle
SciTegic.value.DoubleValue
2.734

@<SCITEGIC>MOL_PROPERTY
Pdih
SciTegic.value.DoubleValue
4.133

@<SCITEGIC>MOL_PROPERTY
Idih
SciTegic.value.DoubleValue
0.002

@<SCITEGIC>MOL_PROPERTY
Tether
SciTegic.value.DoubleValue
0.000

@<TRIPOS>MOLECULE
guest-s18_confgen4.mol2 : confsearch ligand conformer 259
          16          15           1
SMALL
USER_CHARGES
 
@<TRIPOS>ATOM
       1    C1      19.286841   17.579119   23.432713 C.2        1 MOL1         0.6075
       2    O1      19.521696   17.805914   24.603280 O.co2      1 MOL1        -0.6830
       3    O2      19.560910   16.528179   22.887214 O.co2      1 MOL1        -0.6830
       4    C2      18.527695   18.635530   22.631870 C.3        1 MOL1        -0.2050
       5    H1      18.290625   19.480205   23.290128 H          1 MOL1         0.0710
       6    H2      17.571167   18.180551   22.349386 H          1 MOL1         0.0710
       7    C3      19.245648   19.139091   21.348144 C.3        1 MOL1        -0.1947
       8    H3      19.661691   18.286881   20.792998 H          1 MOL1         0.0712
       9    H4      18.489030   19.588226   20.690681 H          1 MOL1         0.0712
      10    C4      20.345246   20.199847   21.595615 C.3        1 MOL1        -0.1921
      11    H5      19.925818   21.049105   22.152455 H          1 MOL1         0.0712
      12    H6      20.668828   20.597815   20.623910 H          1 MOL1         0.0712
      13    C5      21.583281   19.653809   22.336830 C.3        1 MOL1        -0.2936
      14    H7      21.344950   19.394971   23.375675 H          1 MOL1         0.0724
      15    H8      22.380690   20.407730   22.359434 H          1 MOL1         0.0724
      16    H9      21.977174   18.757846   21.839408 H          1 MOL1         0.0724
@<TRIPOS>BOND
    1     1     2    1
    2     1     3    2
    3     1     4    1
    4     4     5    1
    5     4     6    1
    6     4     7    1
    7     7     8    1
    8     7     9    1
    9     7    10    1
   10    10    11    1
   11    10    12    1
   12    10    13    1
   13    13    14    1
   14    13    15    1
   15    13    16    1
@<TRIPOS>SUBSTRUCTURE
       1 MOL1            1 RESIDUE      1      MOL     
@<SCITEGIC>MOL_PROPERTY
VConf Rank
SciTegic.value.IntegerValue
259

@<SCITEGIC>MOL_PROPERTY
Conf_Id
SciTegic.value.IntegerValue
47

@<SCITEGIC>MOL_PROPERTY
Delta U+W
SciTegic.value.DoubleValue
2.301

@<SCITEGIC>MOL_PROPERTY
U+W
SciTegic.value.DoubleValue
-54.603

@<SCITEGIC>MOL_PROPERTY
Grad RMS
SciTegic.value.DoubleValue
0.000000

@<SCITEGIC>MOL_PROPERTY
U
SciTegic.value.DoubleValue
11.258

@<SCITEGIC>MOL_PROPERTY
W
SciTegic.value.DoubleValue
-65.861

@<SCITEGIC>MOL_PROPERTY
W(PB)
SciTegic.value.DoubleValue
-67.702

@<SCITEGIC>MOL_PROPERTY
W(SA)
SciTegic.value.DoubleValue
1.841

@<SCITEGIC>MOL_PROPERTY
Valence
SciTegic.value.DoubleValue
8.169

@<SCITEGIC>MOL_PROPERTY
Coulomb
SciTegic.value.DoubleValue
2.735

@<SCITEGIC>MOL_PROPERTY
VdW
SciTegic.value.DoubleValue
0.355

@<SCITEGIC>MOL_PROPERTY
VdW6
SciTegic.value.DoubleValue
-6.245

@<SCITEGIC>MOL_PROPERTY
VdW12
SciTegic.value.DoubleValue
6.600

@<SCITEGIC>MOL_PROPERTY
Bond
SciTegic.value.DoubleValue
0.149

@<SCITEGIC>MOL_PROPERTY
Angle
SciTegic.value.DoubleValue
3.168

@<SCITEGIC>MOL_PROPERTY
Pdih
SciTegic.value.DoubleValue
4.840

@<SCITEGIC>MOL_PROPERTY
Idih
SciTegic.value.DoubleValue
0.011

@<SCITEGIC>MOL_PROPERTY
Tether
SciTegic.value.DoubleValue
0.000

@<TRIPOS>MOLECULE
guest-s18_confgen4.mol2 : confsearch ligand conformer 260
          16          15           1
SMALL
USER_CHARGES
 
@<TRIPOS>ATOM
       1    C1      19.278181   20.946311   21.752790 C.2        1 MOL1         0.6075
       2    O1      19.385746   21.067364   20.548242 O.co2      1 MOL1        -0.6830
       3    O2      19.675559   21.776562   22.546258 O.co2      1 MOL1        -0.6830
       4    C2      18.525512   19.732686   22.295257 C.3        1 MOL1        -0.2050
       5    H1      17.503896   19.802660   21.903910 H          1 MOL1         0.0710
       6    H2      18.449721   19.818107   23.386100 H          1 MOL1         0.0710
       7    C3      19.122251   18.351417   21.904122 C.3        1 MOL1        -0.1947
       8    H3      18.334341   17.595580   22.023963 H          1 MOL1         0.0712
       9    H4      19.387023   18.346304   20.837628 H          1 MOL1         0.0712
      10    C4      20.336151   17.906607   22.755094 C.3        1 MOL1        -0.1921
      11    H5      20.572204   16.863148   22.504562 H          1 MOL1         0.0712
      12    H6      20.067943   17.914835   23.820565 H          1 MOL1         0.0712
      13    C5      21.601221   18.761004   22.531735 C.3        1 MOL1        -0.2936
      14    H7      22.460764   18.317136   23.050325 H          1 MOL1         0.0724
      15    H8      21.470401   19.777875   22.921427 H          1 MOL1         0.0724
      16    H9      21.847239   18.829421   21.463970 H          1 MOL1         0.0724
@<TRIPOS>BOND
    1     1     2    1
    2     1     3    2
    3     1     4    1
    4     4     5    1
    5     4     6    1
    6     4     7    1
    7     7     8    1
    8     7     9    1
    9     7    10    1
   10    10    11    1
   11    10    12    1
   12    10    13    1
   13    13    14    1
   14    13    15    1
   15    13    16    1
@<TRIPOS>SUBSTRUCTURE
       1 MOL1            1 RESIDUE      1      MOL     
@<SCITEGIC>MOL_PROPERTY
VConf Rank
SciTegic.value.IntegerValue
260

@<SCITEGIC>MOL_PROPERTY
Conf_Id
SciTegic.value.IntegerValue
45

@<SCITEGIC>MOL_PROPERTY
Delta U+W
SciTegic.value.DoubleValue
2.303

@<SCITEGIC>MOL_PROPERTY
U+W
SciTegic.value.DoubleValue
-54.601

@<SCITEGIC>MOL_PROPERTY
Grad RMS
SciTegic.value.DoubleValue
0.000000

@<SCITEGIC>MOL_PROPERTY
U
SciTegic.value.DoubleValue
11.258

@<SCITEGIC>MOL_PROPERTY
W
SciTegic.value.DoubleValue
-65.860

@<SCITEGIC>MOL_PROPERTY
W(PB)
SciTegic.value.DoubleValue
-67.709

@<SCITEGIC>MOL_PROPERTY
W(SA)
SciTegic.value.DoubleValue
1.849

@<SCITEGIC>MOL_PROPERTY
Valence
SciTegic.value.DoubleValue
8.169

@<SCITEGIC>MOL_PROPERTY
Coulomb
SciTegic.value.DoubleValue
2.735

@<SCITEGIC>MOL_PROPERTY
VdW
SciTegic.value.DoubleValue
0.355

@<SCITEGIC>MOL_PROPERTY
VdW6
SciTegic.value.DoubleValue
-6.245

@<SCITEGIC>MOL_PROPERTY
VdW12
SciTegic.value.DoubleValue
6.600

@<SCITEGIC>MOL_PROPERTY
Bond
SciTegic.value.DoubleValue
0.149

@<SCITEGIC>MOL_PROPERTY
Angle
SciTegic.value.DoubleValue
3.168

@<SCITEGIC>MOL_PROPERTY
Pdih
SciTegic.value.DoubleValue
4.840

@<SCITEGIC>MOL_PROPERTY
Idih
SciTegic.value.DoubleValue
0.011

@<SCITEGIC>MOL_PROPERTY
Tether
SciTegic.value.DoubleValue
0.000

@<TRIPOS>MOLECULE
guest-s18_confgen4.mol2 : confsearch ligand conformer 261
          16          15           1
SMALL
USER_CHARGES
 
@<TRIPOS>ATOM
       1    C1      21.422433   19.050392   19.566347 C.2        1 MOL1         0.6075
       2    O1      20.554774   19.598779   18.915029 O.co2      1 MOL1        -0.6830
       3    O2      22.479499   18.688817   19.089704 O.co2      1 MOL1        -0.6830
       4    C2      21.203041   18.789077   21.057479 C.3        1 MOL1        -0.2050
       5    H1      22.019900   19.280183   21.599436 H          1 MOL1         0.0710
       6    H2      21.313068   17.710407   21.220354 H          1 MOL1         0.0710
       7    C3      19.838624   19.267241   21.621458 C.3        1 MOL1        -0.1947
       8    H3      19.731766   20.347443   21.450534 H          1 MOL1         0.0712
       9    H4      19.024213   18.776038   21.071073 H          1 MOL1         0.0712
      10    C4      19.703105   18.964353   23.128492 C.3        1 MOL1        -0.1921
      11    H5      20.516006   19.456486   23.680305 H          1 MOL1         0.0712
      12    H6      19.808029   17.884140   23.300630 H          1 MOL1         0.0712
      13    C5      18.346161   19.441519   23.682708 C.3        1 MOL1        -0.2936
      14    H7      18.227675   20.525177   23.551883 H          1 MOL1         0.0724
      15    H8      18.266162   19.218696   24.754665 H          1 MOL1         0.0724
      16    H9      17.514471   18.941233   23.169410 H          1 MOL1         0.0724
@<TRIPOS>BOND
    1     1     2    1
    2     1     3    2
    3     1     4    1
    4     4     5    1
    5     4     6    1
    6     4     7    1
    7     7     8    1
    8     7     9    1
    9     7    10    1
   10    10    11    1
   11    10    12    1
   12    10    13    1
   13    13    14    1
   14    13    15    1
   15    13    16    1
@<TRIPOS>SUBSTRUCTURE
       1 MOL1            1 RESIDUE      1      MOL     
@<SCITEGIC>MOL_PROPERTY
VConf Rank
SciTegic.value.IntegerValue
261

@<SCITEGIC>MOL_PROPERTY
Conf_Id
SciTegic.value.IntegerValue
0

@<SCITEGIC>MOL_PROPERTY
Delta U+W
SciTegic.value.DoubleValue
0.000

@<SCITEGIC>MOL_PROPERTY
U+W
SciTegic.value.DoubleValue
-56.904

@<SCITEGIC>MOL_PROPERTY
Grad RMS
SciTegic.value.DoubleValue
0.000000

@<SCITEGIC>MOL_PROPERTY
U
SciTegic.value.DoubleValue
7.329

@<SCITEGIC>MOL_PROPERTY
W
SciTegic.value.DoubleValue
-64.233

@<SCITEGIC>MOL_PROPERTY
W(PB)
SciTegic.value.DoubleValue
-66.148

@<SCITEGIC>MOL_PROPERTY
W(SA)
SciTegic.value.DoubleValue
1.915

@<SCITEGIC>MOL_PROPERTY
Valence
SciTegic.value.DoubleValue
6.755

@<SCITEGIC>MOL_PROPERTY
Coulomb
SciTegic.value.DoubleValue
-0.421

@<SCITEGIC>MOL_PROPERTY
VdW
SciTegic.value.DoubleValue
0.995

@<SCITEGIC>MOL_PROPERTY
VdW6
SciTegic.value.DoubleValue
-4.495

@<SCITEGIC>MOL_PROPERTY
VdW12
SciTegic.value.DoubleValue
5.490

@<SCITEGIC>MOL_PROPERTY
Bond
SciTegic.value.DoubleValue
0.106

@<SCITEGIC>MOL_PROPERTY
Angle
SciTegic.value.DoubleValue
2.715

@<SCITEGIC>MOL_PROPERTY
Pdih
SciTegic.value.DoubleValue
3.934

@<SCITEGIC>MOL_PROPERTY
Idih
SciTegic.value.DoubleValue
0.000

@<SCITEGIC>MOL_PROPERTY
Tether
SciTegic.value.DoubleValue
0.000

@<TRIPOS>MOLECULE
guest-s18_confgen4.mol2 : confsearch ligand conformer 262
          16          15           1
SMALL
USER_CHARGES
 
@<TRIPOS>ATOM
       1    C1      20.146597   16.392759   21.999731 C.2        1 MOL1         0.6075
       2    O1      20.558810   15.921755   23.040922 O.co2      1 MOL1        -0.6830
       3    O2      19.338798   15.835689   21.283506 O.co2      1 MOL1        -0.6830
       4    C2      20.657254   17.766052   21.577977 C.3        1 MOL1        -0.2050
       5    H1      20.684750   17.797902   20.482039 H          1 MOL1         0.0710
       6    H2      21.690515   17.868911   21.931025 H          1 MOL1         0.0710
       7    C3      19.788613   18.925925   22.124072 C.3        1 MOL1        -0.1947
       8    H3      18.754946   18.802135   21.772279 H          1 MOL1         0.0712
       9    H4      19.760697   18.873112   23.221334 H          1 MOL1         0.0712
      10    C4      20.326680   20.303109   21.683154 C.3        1 MOL1        -0.1921
      11    H5      20.354106   20.356567   20.585917 H          1 MOL1         0.0712
      12    H6      21.360138   20.427547   22.035316 H          1 MOL1         0.0712
      13    C5      19.457403   21.452528   22.230232 C.3        1 MOL1        -0.2936
      14    H7      19.437715   21.441932   23.327944 H          1 MOL1         0.0724
      15    H8      18.424245   21.370413   21.867858 H          1 MOL1         0.0724
      16    H9      19.853478   22.424256   21.907716 H          1 MOL1         0.0724
@<TRIPOS>BOND
    1     1     2    1
    2     1     3    2
    3     1     4    1
    4     4     5    1
    5     4     6    1
    6     4     7    1
    7     7     8    1
    8     7     9    1
    9     7    10    1
   10    10    11    1
   11    10    12    1
   12    10    13    1
   13    13    14    1
   14    13    15    1
   15    13    16    1
@<TRIPOS>SUBSTRUCTURE
       1 MOL1            1 RESIDUE      1      MOL     
@<SCITEGIC>MOL_PROPERTY
VConf Rank
SciTegic.value.IntegerValue
262

@<SCITEGIC>MOL_PROPERTY
Conf_Id
SciTegic.value.IntegerValue
22

@<SCITEGIC>MOL_PROPERTY
Delta U+W
SciTegic.value.DoubleValue
-1.185

@<SCITEGIC>MOL_PROPERTY
U+W
SciTegic.value.DoubleValue
-58.089

@<SCITEGIC>MOL_PROPERTY
Grad RMS
SciTegic.value.DoubleValue
0.000000

@<SCITEGIC>MOL_PROPERTY
U
SciTegic.value.DoubleValue
6.298

@<SCITEGIC>MOL_PROPERTY
W
SciTegic.value.DoubleValue
-64.387

@<SCITEGIC>MOL_PROPERTY
W(PB)
SciTegic.value.DoubleValue
-66.329

@<SCITEGIC>MOL_PROPERTY
W(SA)
SciTegic.value.DoubleValue
1.942

@<SCITEGIC>MOL_PROPERTY
Valence
SciTegic.value.DoubleValue
6.246

@<SCITEGIC>MOL_PROPERTY
Coulomb
SciTegic.value.DoubleValue
-0.408

@<SCITEGIC>MOL_PROPERTY
VdW
SciTegic.value.DoubleValue
0.460

@<SCITEGIC>MOL_PROPERTY
VdW6
SciTegic.value.DoubleValue
-4.207

@<SCITEGIC>MOL_PROPERTY
VdW12
SciTegic.value.DoubleValue
4.667

@<SCITEGIC>MOL_PROPERTY
Bond
SciTegic.value.DoubleValue
0.072

@<SCITEGIC>MOL_PROPERTY
Angle
SciTegic.value.DoubleValue
2.246

@<SCITEGIC>MOL_PROPERTY
Pdih
SciTegic.value.DoubleValue
3.928

@<SCITEGIC>MOL_PROPERTY
Idih
SciTegic.value.DoubleValue
0.001

@<SCITEGIC>MOL_PROPERTY
Tether
SciTegic.value.DoubleValue
0.000

@<TRIPOS>MOLECULE
guest-s18_confgen4.mol2 : confsearch ligand conformer 263
          16          15           1
SMALL
USER_CHARGES
 
@<TRIPOS>ATOM
       1    C1      22.403726   18.422921   21.512655 C.2        1 MOL1         0.6075
       2    O1      22.918151   17.468792   22.061289 O.co2      1 MOL1        -0.6830
       3    O2      23.036594   19.323961   20.999273 O.co2      1 MOL1        -0.6830
       4    C2      20.881460   18.503545   21.484779 C.3        1 MOL1        -0.2050
       5    H1      20.487124   17.481318   21.438763 H          1 MOL1         0.0710
       6    H2      20.590179   19.006514   20.555643 H          1 MOL1         0.0710
       7    C3      20.296291   19.247073   22.713492 C.3        1 MOL1        -0.1947
       8    H3      20.676659   18.771538   23.628158 H          1 MOL1         0.0712
       9    H4      20.664687   20.282184   22.725208 H          1 MOL1         0.0712
      10    C4      18.750817   19.242317   22.757039 C.3        1 MOL1        -0.1921
      11    H5      18.422866   19.688902   23.705891 H          1 MOL1         0.0712
      12    H6      18.382529   18.207066   22.757217 H          1 MOL1         0.0712
      13    C5      18.106666   20.022268   21.590985 C.3        1 MOL1        -0.2936
      14    H7      18.314294   19.543974   20.625632 H          1 MOL1         0.0724
      15    H8      18.482105   21.053217   21.553049 H          1 MOL1         0.0724
      16    H9      17.016570   20.063982   21.713295 H          1 MOL1         0.0724
@<TRIPOS>BOND
    1     1     2    1
    2     1     3    2
    3     1     4    1
    4     4     5    1
    5     4     6    1
    6     4     7    1
    7     7     8    1
    8     7     9    1
    9     7    10    1
   10    10    11    1
   11    10    12    1
   12    10    13    1
   13    13    14    1
   14    13    15    1
   15    13    16    1
@<TRIPOS>SUBSTRUCTURE
       1 MOL1            1 RESIDUE      1      MOL     
@<SCITEGIC>MOL_PROPERTY
VConf Rank
SciTegic.value.IntegerValue
263

@<SCITEGIC>MOL_PROPERTY
Conf_Id
SciTegic.value.IntegerValue
36

@<SCITEGIC>MOL_PROPERTY
Delta U+W
SciTegic.value.DoubleValue
-0.427

@<SCITEGIC>MOL_PROPERTY
U+W
SciTegic.value.DoubleValue
-57.331

@<SCITEGIC>MOL_PROPERTY
Grad RMS
SciTegic.value.DoubleValue
0.000000

@<SCITEGIC>MOL_PROPERTY
U
SciTegic.value.DoubleValue
7.263

@<SCITEGIC>MOL_PROPERTY
W
SciTegic.value.DoubleValue
-64.594

@<SCITEGIC>MOL_PROPERTY
W(PB)
SciTegic.value.DoubleValue
-66.513

@<SCITEGIC>MOL_PROPERTY
W(SA)
SciTegic.value.DoubleValue
1.920

@<SCITEGIC>MOL_PROPERTY
Valence
SciTegic.value.DoubleValue
6.734

@<SCITEGIC>MOL_PROPERTY
Coulomb
SciTegic.value.DoubleValue
-0.068

@<SCITEGIC>MOL_PROPERTY
VdW
SciTegic.value.DoubleValue
0.598

@<SCITEGIC>MOL_PROPERTY
VdW6
SciTegic.value.DoubleValue
-4.819

@<SCITEGIC>MOL_PROPERTY
VdW12
SciTegic.value.DoubleValue
5.417

@<SCITEGIC>MOL_PROPERTY
Bond
SciTegic.value.DoubleValue
0.107

@<SCITEGIC>MOL_PROPERTY
Angle
SciTegic.value.DoubleValue
2.469

@<SCITEGIC>MOL_PROPERTY
Pdih
SciTegic.value.DoubleValue
4.157

@<SCITEGIC>MOL_PROPERTY
Idih
SciTegic.value.DoubleValue
0.001

@<SCITEGIC>MOL_PROPERTY
Tether
SciTegic.value.DoubleValue
0.000

@<TRIPOS>MOLECULE
guest-s18_confgen4.mol2 : confsearch ligand conformer 264
          16          15           1
SMALL
USER_CHARGES
 
@<TRIPOS>ATOM
       1    C1      21.664931   19.893908   20.189048 C.2        1 MOL1         0.6075
       2    O1      21.716990   19.096872   19.273635 O.co2      1 MOL1        -0.6830
       3    O2      22.532731   20.713251   20.416195 O.co2      1 MOL1        -0.6830
       4    C2      20.454651   19.850663   21.115290 C.3        1 MOL1        -0.2050
       5    H1      19.587996   19.543351   20.518981 H          1 MOL1         0.0710
       6    H2      20.260608   20.870082   21.469830 H          1 MOL1         0.0710
       7    C3      20.653662   18.894821   22.320178 C.3        1 MOL1        -0.1947
       8    H3      20.804600   17.869917   21.953981 H          1 MOL1         0.0712
       9    H4      21.576872   19.176188   22.845482 H          1 MOL1         0.0712
      10    C4      19.481058   18.922049   23.327484 C.3        1 MOL1        -0.1921
      11    H5      19.337531   19.944789   23.702694 H          1 MOL1         0.0712
      12    H6      19.748507   18.306598   24.197541 H          1 MOL1         0.0712
      13    C5      18.156583   18.396143   22.734086 C.3        1 MOL1        -0.2936
      14    H7      17.789963   19.048263   21.931521 H          1 MOL1         0.0724
      15    H8      17.379594   18.353477   23.508344 H          1 MOL1         0.0724
      16    H9      18.283013   17.384765   22.326189 H          1 MOL1         0.0724
@<TRIPOS>BOND
    1     1     2    1
    2     1     3    2
    3     1     4    1
    4     4     5    1
    5     4     6    1
    6     4     7    1
    7     7     8    1
    8     7     9    1
    9     7    10    1
   10    10    11    1
   11    10    12    1
   12    10    13    1
   13    13    14    1
   14    13    15    1
   15    13    16    1
@<TRIPOS>SUBSTRUCTURE
       1 MOL1            1 RESIDUE      1      MOL     
@<SCITEGIC>MOL_PROPERTY
VConf Rank
SciTegic.value.IntegerValue
264

@<SCITEGIC>MOL_PROPERTY
Conf_Id
SciTegic.value.IntegerValue
17

@<SCITEGIC>MOL_PROPERTY
Delta U+W
SciTegic.value.DoubleValue
-0.432

@<SCITEGIC>MOL_PROPERTY
U+W
SciTegic.value.DoubleValue
-57.336

@<SCITEGIC>MOL_PROPERTY
Grad RMS
SciTegic.value.DoubleValue
0.000000

@<SCITEGIC>MOL_PROPERTY
U
SciTegic.value.DoubleValue
7.263

@<SCITEGIC>MOL_PROPERTY
W
SciTegic.value.DoubleValue
-64.599

@<SCITEGIC>MOL_PROPERTY
W(PB)
SciTegic.value.DoubleValue
-66.503

@<SCITEGIC>MOL_PROPERTY
W(SA)
SciTegic.value.DoubleValue
1.904

@<SCITEGIC>MOL_PROPERTY
Valence
SciTegic.value.DoubleValue
6.734

@<SCITEGIC>MOL_PROPERTY
Coulomb
SciTegic.value.DoubleValue
-0.068

@<SCITEGIC>MOL_PROPERTY
VdW
SciTegic.value.DoubleValue
0.598

@<SCITEGIC>MOL_PROPERTY
VdW6
SciTegic.value.DoubleValue
-4.819

@<SCITEGIC>MOL_PROPERTY
VdW12
SciTegic.value.DoubleValue
5.417

@<SCITEGIC>MOL_PROPERTY
Bond
SciTegic.value.DoubleValue
0.107

@<SCITEGIC>MOL_PROPERTY
Angle
SciTegic.value.DoubleValue
2.469

@<SCITEGIC>MOL_PROPERTY
Pdih
SciTegic.value.DoubleValue
4.157

@<SCITEGIC>MOL_PROPERTY
Idih
SciTegic.value.DoubleValue
0.001

@<SCITEGIC>MOL_PROPERTY
Tether
SciTegic.value.DoubleValue
0.000

@<TRIPOS>MOLECULE
guest-s18_confgen4.mol2 : confsearch ligand conformer 265
          16          15           1
SMALL
USER_CHARGES
 
@<TRIPOS>ATOM
       1    C1      20.138031   21.470578   21.696871 C.2        1 MOL1         0.6075
       2    O1      20.727389   22.106944   22.547776 O.co2      1 MOL1        -0.6830
       3    O2      20.317506   21.617740   20.504230 O.co2      1 MOL1        -0.6830
       4    C2      19.099595   20.448969   22.152345 C.3        1 MOL1        -0.2050
       5    H1      18.432858   20.227392   21.310057 H          1 MOL1         0.0710
       6    H2      18.485912   20.926970   22.925095 H          1 MOL1         0.0710
       7    C3      19.707257   19.136908   22.712951 C.3        1 MOL1        -0.1947
       8    H3      20.394207   19.376519   23.536547 H          1 MOL1         0.0712
       9    H4      18.901469   18.525389   23.141096 H          1 MOL1         0.0712
      10    C4      20.449237   18.317876   21.634603 C.3        1 MOL1        -0.1921
      11    H5      21.271429   18.912933   21.213140 H          1 MOL1         0.0712
      12    H6      19.764501   18.089712   20.806077 H          1 MOL1         0.0712
      13    C5      21.013809   17.003972   22.210153 C.3        1 MOL1        -0.2936
      14    H7      21.726058   17.204895   23.021192 H          1 MOL1         0.0724
      15    H8      21.538335   16.434809   21.431666 H          1 MOL1         0.0724
      16    H9      20.209507   16.371675   22.608542 H          1 MOL1         0.0724
@<TRIPOS>BOND
    1     1     2    1
    2     1     3    2
    3     1     4    1
    4     4     5    1
    5     4     6    1
    6     4     7    1
    7     7     8    1
    8     7     9    1
    9     7    10    1
   10    10    11    1
   11    10    12    1
   12    10    13    1
   13    13    14    1
   14    13    15    1
   15    13    16    1
@<TRIPOS>SUBSTRUCTURE
       1 MOL1            1 RESIDUE      1      MOL     
@<SCITEGIC>MOL_PROPERTY
VConf Rank
SciTegic.value.IntegerValue
265

@<SCITEGIC>MOL_PROPERTY
Conf_Id
SciTegic.value.IntegerValue
19

@<SCITEGIC>MOL_PROPERTY
Delta U+W
SciTegic.value.DoubleValue
0.048

@<SCITEGIC>MOL_PROPERTY
U+W
SciTegic.value.DoubleValue
-56.856

@<SCITEGIC>MOL_PROPERTY
Grad RMS
SciTegic.value.DoubleValue
0.000000

@<SCITEGIC>MOL_PROPERTY
U
SciTegic.value.DoubleValue
8.276

@<SCITEGIC>MOL_PROPERTY
W
SciTegic.value.DoubleValue
-65.132

@<SCITEGIC>MOL_PROPERTY
W(PB)
SciTegic.value.DoubleValue
-67.031

@<SCITEGIC>MOL_PROPERTY
W(SA)
SciTegic.value.DoubleValue
1.899

@<SCITEGIC>MOL_PROPERTY
Valence
SciTegic.value.DoubleValue
6.513

@<SCITEGIC>MOL_PROPERTY
Coulomb
SciTegic.value.DoubleValue
1.428

@<SCITEGIC>MOL_PROPERTY
VdW
SciTegic.value.DoubleValue
0.335

@<SCITEGIC>MOL_PROPERTY
VdW6
SciTegic.value.DoubleValue
-5.021

@<SCITEGIC>MOL_PROPERTY
VdW12
SciTegic.value.DoubleValue
5.356

@<SCITEGIC>MOL_PROPERTY
Bond
SciTegic.value.DoubleValue
0.092

@<SCITEGIC>MOL_PROPERTY
Angle
SciTegic.value.DoubleValue
2.417

@<SCITEGIC>MOL_PROPERTY
Pdih
SciTegic.value.DoubleValue
4.003

@<SCITEGIC>MOL_PROPERTY
Idih
SciTegic.value.DoubleValue
0.001

@<SCITEGIC>MOL_PROPERTY
Tether
SciTegic.value.DoubleValue
0.000

@<TRIPOS>MOLECULE
guest-s18_confgen4.mol2 : confsearch ligand conformer 266
          16          15           1
SMALL
USER_CHARGES
 
@<TRIPOS>ATOM
       1    C1      19.185443   19.425892   19.837540 C.2        1 MOL1         0.6075
       2    O1      18.057621   19.861789   19.717735 O.co2      1 MOL1        -0.6830
       3    O2      19.595536   18.451656   19.238415 O.co2      1 MOL1        -0.6830
       4    C2      20.143970   20.156872   20.773698 C.3        1 MOL1        -0.2050
       5    H1      20.048540   21.229768   20.568704 H          1 MOL1         0.0710
       6    H2      21.171475   19.874571   20.513650 H          1 MOL1         0.0710
       7    C3      19.881506   19.892827   22.279168 C.3        1 MOL1        -0.1947
       8    H3      20.519333   20.560108   22.874543 H          1 MOL1         0.0712
       9    H4      18.841036   20.153095   22.518550 H          1 MOL1         0.0712
      10    C4      20.160448   18.428769   22.682796 C.3        1 MOL1        -0.1921
      11    H5      21.197411   18.166189   22.431524 H          1 MOL1         0.0712
      12    H6      19.512723   17.752550   22.107553 H          1 MOL1         0.0712
      13    C5      19.924435   18.201868   24.189171 C.3        1 MOL1        -0.2936
      14    H7      20.584006   18.840737   24.791025 H          1 MOL1         0.0724
      15    H8      20.126069   17.157039   24.458972 H          1 MOL1         0.0724
      16    H9      18.885246   18.427948   24.461977 H          1 MOL1         0.0724
@<TRIPOS>BOND
    1     1     2    1
    2     1     3    2
    3     1     4    1
    4     4     5    1
    5     4     6    1
    6     4     7    1
    7     7     8    1
    8     7     9    1
    9     7    10    1
   10    10    11    1
   11    10    12    1
   12    10    13    1
   13    13    14    1
   14    13    15    1
   15    13    16    1
@<TRIPOS>SUBSTRUCTURE
       1 MOL1            1 RESIDUE      1      MOL     
@<SCITEGIC>MOL_PROPERTY
VConf Rank
SciTegic.value.IntegerValue
266

@<SCITEGIC>MOL_PROPERTY
Conf_Id
SciTegic.value.IntegerValue
20

@<SCITEGIC>MOL_PROPERTY
Delta U+W
SciTegic.value.DoubleValue
-0.010

@<SCITEGIC>MOL_PROPERTY
U+W
SciTegic.value.DoubleValue
-56.914

@<SCITEGIC>MOL_PROPERTY
Grad RMS
SciTegic.value.DoubleValue
0.000000

@<SCITEGIC>MOL_PROPERTY
U
SciTegic.value.DoubleValue
8.277

@<SCITEGIC>MOL_PROPERTY
W
SciTegic.value.DoubleValue
-65.191

@<SCITEGIC>MOL_PROPERTY
W(PB)
SciTegic.value.DoubleValue
-67.081

@<SCITEGIC>MOL_PROPERTY
W(SA)
SciTegic.value.DoubleValue
1.890

@<SCITEGIC>MOL_PROPERTY
Valence
SciTegic.value.DoubleValue
6.513

@<SCITEGIC>MOL_PROPERTY
Coulomb
SciTegic.value.DoubleValue
1.429

@<SCITEGIC>MOL_PROPERTY
VdW
SciTegic.value.DoubleValue
0.335

@<SCITEGIC>MOL_PROPERTY
VdW6
SciTegic.value.DoubleValue
-5.021

@<SCITEGIC>MOL_PROPERTY
VdW12
SciTegic.value.DoubleValue
5.356

@<SCITEGIC>MOL_PROPERTY
Bond
SciTegic.value.DoubleValue
0.092

@<SCITEGIC>MOL_PROPERTY
Angle
SciTegic.value.DoubleValue
2.417

@<SCITEGIC>MOL_PROPERTY
Pdih
SciTegic.value.DoubleValue
4.002

@<SCITEGIC>MOL_PROPERTY
Idih
SciTegic.value.DoubleValue
0.001

@<SCITEGIC>MOL_PROPERTY
Tether
SciTegic.value.DoubleValue
0.000

@<TRIPOS>MOLECULE
guest-s18_confgen4.mol2 : confsearch ligand conformer 267
          16          15           1
SMALL
USER_CHARGES
 
@<TRIPOS>ATOM
       1    C1      20.716708   17.203675   21.935738 C.2        1 MOL1         0.6075
       2    O1      21.416910   16.893348   20.992234 O.co2      1 MOL1        -0.6830
       3    O2      19.806681   16.513696   22.350562 O.co2      1 MOL1        -0.6830
       4    C2      21.020566   18.513971   22.657223 C.3        1 MOL1        -0.2050
       5    H1      22.093054   18.519297   22.884426 H          1 MOL1         0.0710
       6    H2      20.499433   18.513871   23.621416 H          1 MOL1         0.0710
       7    C3      20.663079   19.786728   21.841766 C.3        1 MOL1        -0.1947
       8    H3      20.987403   20.675145   22.400247 H          1 MOL1         0.0712
       9    H4      21.242167   19.781589   20.907964 H          1 MOL1         0.0712
      10    C4      19.160753   19.922471   21.497410 C.3        1 MOL1        -0.1921
      11    H5      18.831828   19.055306   20.907977 H          1 MOL1         0.0712
      12    H6      19.024734   20.802850   20.854325 H          1 MOL1         0.0712
      13    C5      18.261842   20.072177   22.743199 C.3        1 MOL1        -0.2936
      14    H7      18.272409   19.160112   23.353538 H          1 MOL1         0.0724
      15    H8      17.222099   20.259878   22.445603 H          1 MOL1         0.0724
      16    H9      18.591933   20.911633   23.368835 H          1 MOL1         0.0724
@<TRIPOS>BOND
    1     1     2    1
    2     1     3    2
    3     1     4    1
    4     4     5    1
    5     4     6    1
    6     4     7    1
    7     7     8    1
    8     7     9    1
    9     7    10    1
   10    10    11    1
   11    10    12    1
   12    10    13    1
   13    13    14    1
   14    13    15    1
   15    13    16    1
@<TRIPOS>SUBSTRUCTURE
       1 MOL1            1 RESIDUE      1      MOL     
@<SCITEGIC>MOL_PROPERTY
VConf Rank
SciTegic.value.IntegerValue
267

@<SCITEGIC>MOL_PROPERTY
Conf_Id
SciTegic.value.IntegerValue
37

@<SCITEGIC>MOL_PROPERTY
Delta U+W
SciTegic.value.DoubleValue
1.063

@<SCITEGIC>MOL_PROPERTY
U+W
SciTegic.value.DoubleValue
-55.841

@<SCITEGIC>MOL_PROPERTY
Grad RMS
SciTegic.value.DoubleValue
0.000000

@<SCITEGIC>MOL_PROPERTY
U
SciTegic.value.DoubleValue
9.719

@<SCITEGIC>MOL_PROPERTY
W
SciTegic.value.DoubleValue
-65.560

@<SCITEGIC>MOL_PROPERTY
W(PB)
SciTegic.value.DoubleValue
-67.414

@<SCITEGIC>MOL_PROPERTY
W(SA)
SciTegic.value.DoubleValue
1.854

@<SCITEGIC>MOL_PROPERTY
Valence
SciTegic.value.DoubleValue
7.002

@<SCITEGIC>MOL_PROPERTY
Coulomb
SciTegic.value.DoubleValue
2.402

@<SCITEGIC>MOL_PROPERTY
VdW
SciTegic.value.DoubleValue
0.314

@<SCITEGIC>MOL_PROPERTY
VdW6
SciTegic.value.DoubleValue
-5.861

@<SCITEGIC>MOL_PROPERTY
VdW12
SciTegic.value.DoubleValue
6.175

@<SCITEGIC>MOL_PROPERTY
Bond
SciTegic.value.DoubleValue
0.134

@<SCITEGIC>MOL_PROPERTY
Angle
SciTegic.value.DoubleValue
2.733

@<SCITEGIC>MOL_PROPERTY
Pdih
SciTegic.value.DoubleValue
4.133

@<SCITEGIC>MOL_PROPERTY
Idih
SciTegic.value.DoubleValue
0.002

@<SCITEGIC>MOL_PROPERTY
Tether
SciTegic.value.DoubleValue
0.000

@<TRIPOS>MOLECULE
guest-s18_confgen4.mol2 : confsearch ligand conformer 268
          16          15           1
SMALL
USER_CHARGES
 
@<TRIPOS>ATOM
       1    C1      21.498082   17.897798   21.062719 C.2        1 MOL1         0.6075
       2    O1      21.138015   17.123672   20.197927 O.co2      1 MOL1        -0.6830
       3    O2      22.435111   18.660149   20.931961 O.co2      1 MOL1        -0.6830
       4    C2      20.753770   17.885185   22.395231 C.3        1 MOL1        -0.2050
       5    H1      21.354153   18.421741   23.138802 H          1 MOL1         0.0710
       6    H2      20.704234   16.842587   22.730517 H          1 MOL1         0.0710
       7    C3      19.316551   18.470291   22.326455 C.3        1 MOL1        -0.1947
       8    H3      18.727783   17.876708   21.613457 H          1 MOL1         0.0712
       9    H4      18.830754   18.347930   23.303901 H          1 MOL1         0.0712
      10    C4      19.253277   19.958962   21.909506 C.3        1 MOL1        -0.1921
      11    H5      18.199231   20.252611   21.810067 H          1 MOL1         0.0712
      12    H6      19.705484   20.089267   20.916468 H          1 MOL1         0.0712
      13    C5      19.940227   20.903455   22.918701 C.3        1 MOL1        -0.2936
      14    H7      19.530227   20.767440   23.927892 H          1 MOL1         0.0724
      15    H8      19.786938   21.951090   22.629178 H          1 MOL1         0.0724
      16    H9      21.022460   20.725263   22.957518 H          1 MOL1         0.0724
@<TRIPOS>BOND
    1     1     2    1
    2     1     3    2
    3     1     4    1
    4     4     5    1
    5     4     6    1
    6     4     7    1
    7     7     8    1
    8     7     9    1
    9     7    10    1
   10    10    11    1
   11    10    12    1
   12    10    13    1
   13    13    14    1
   14    13    15    1
   15    13    16    1
@<TRIPOS>SUBSTRUCTURE
       1 MOL1            1 RESIDUE      1      MOL     
@<SCITEGIC>MOL_PROPERTY
VConf Rank
SciTegic.value.IntegerValue
268

@<SCITEGIC>MOL_PROPERTY
Conf_Id
SciTegic.value.IntegerValue
39

@<SCITEGIC>MOL_PROPERTY
Delta U+W
SciTegic.value.DoubleValue
1.129

@<SCITEGIC>MOL_PROPERTY
U+W
SciTegic.value.DoubleValue
-55.775

@<SCITEGIC>MOL_PROPERTY
Grad RMS
SciTegic.value.DoubleValue
0.000000

@<SCITEGIC>MOL_PROPERTY
U
SciTegic.value.DoubleValue
9.718

@<SCITEGIC>MOL_PROPERTY
W
SciTegic.value.DoubleValue
-65.493

@<SCITEGIC>MOL_PROPERTY
W(PB)
SciTegic.value.DoubleValue
-67.361

@<SCITEGIC>MOL_PROPERTY
W(SA)
SciTegic.value.DoubleValue
1.869

@<SCITEGIC>MOL_PROPERTY
Valence
SciTegic.value.DoubleValue
7.002

@<SCITEGIC>MOL_PROPERTY
Coulomb
SciTegic.value.DoubleValue
2.402

@<SCITEGIC>MOL_PROPERTY
VdW
SciTegic.value.DoubleValue
0.314

@<SCITEGIC>MOL_PROPERTY
VdW6
SciTegic.value.DoubleValue
-5.861

@<SCITEGIC>MOL_PROPERTY
VdW12
SciTegic.value.DoubleValue
6.175

@<SCITEGIC>MOL_PROPERTY
Bond
SciTegic.value.DoubleValue
0.134

@<SCITEGIC>MOL_PROPERTY
Angle
SciTegic.value.DoubleValue
2.734

@<SCITEGIC>MOL_PROPERTY
Pdih
SciTegic.value.DoubleValue
4.133

@<SCITEGIC>MOL_PROPERTY
Idih
SciTegic.value.DoubleValue
0.002

@<SCITEGIC>MOL_PROPERTY
Tether
SciTegic.value.DoubleValue
0.000

@<TRIPOS>MOLECULE
guest-s18_confgen4.mol2 : confsearch ligand conformer 269
          16          15           1
SMALL
USER_CHARGES
 
@<TRIPOS>ATOM
       1    C1      18.258525   19.072647   21.133220 C.2        1 MOL1         0.6075
       2    O1      18.541669   19.102377   19.951794 O.co2      1 MOL1        -0.6830
       3    O2      17.430757   19.803498   21.640976 O.co2      1 MOL1        -0.6830
       4    C2      18.911680   18.001147   22.004388 C.3        1 MOL1        -0.2050
       5    H1      19.565897   17.382209   21.378374 H          1 MOL1         0.0710
       6    H2      18.101584   17.349065   22.351206 H          1 MOL1         0.0710
       7    C3      19.694039   18.533615   23.237829 C.3        1 MOL1        -0.1947
       8    H3      19.106439   19.309843   23.747471 H          1 MOL1         0.0712
       9    H4      19.794894   17.709441   23.956869 H          1 MOL1         0.0712
      10    C4      21.114382   19.062557   22.924127 C.3        1 MOL1        -0.1921
      11    H5      21.697849   18.284385   22.413006 H          1 MOL1         0.0712
      12    H6      21.629270   19.259775   23.874542 H          1 MOL1         0.0712
      13    C5      21.126759   20.356490   22.083966 C.3        1 MOL1        -0.2936
      14    H7      20.772707   20.172758   21.062257 H          1 MOL1         0.0724
      15    H8      22.145739   20.758188   22.012644 H          1 MOL1         0.0724
      16    H9      20.489101   21.126825   22.537072 H          1 MOL1         0.0724
@<TRIPOS>BOND
    1     1     2    1
    2     1     3    2
    3     1     4    1
    4     4     5    1
    5     4     6    1
    6     4     7    1
    7     7     8    1
    8     7     9    1
    9     7    10    1
   10    10    11    1
   11    10    12    1
   12    10    13    1
   13    13    14    1
   14    13    15    1
   15    13    16    1
@<TRIPOS>SUBSTRUCTURE
       1 MOL1            1 RESIDUE      1      MOL     
@<SCITEGIC>MOL_PROPERTY
VConf Rank
SciTegic.value.IntegerValue
269

@<SCITEGIC>MOL_PROPERTY
Conf_Id
SciTegic.value.IntegerValue
47

@<SCITEGIC>MOL_PROPERTY
Delta U+W
SciTegic.value.DoubleValue
2.301

@<SCITEGIC>MOL_PROPERTY
U+W
SciTegic.value.DoubleValue
-54.603

@<SCITEGIC>MOL_PROPERTY
Grad RMS
SciTegic.value.DoubleValue
0.000000

@<SCITEGIC>MOL_PROPERTY
U
SciTegic.value.DoubleValue
11.258

@<SCITEGIC>MOL_PROPERTY
W
SciTegic.value.DoubleValue
-65.861

@<SCITEGIC>MOL_PROPERTY
W(PB)
SciTegic.value.DoubleValue
-67.702

@<SCITEGIC>MOL_PROPERTY
W(SA)
SciTegic.value.DoubleValue
1.841

@<SCITEGIC>MOL_PROPERTY
Valence
SciTegic.value.DoubleValue
8.169

@<SCITEGIC>MOL_PROPERTY
Coulomb
SciTegic.value.DoubleValue
2.735

@<SCITEGIC>MOL_PROPERTY
VdW
SciTegic.value.DoubleValue
0.355

@<SCITEGIC>MOL_PROPERTY
VdW6
SciTegic.value.DoubleValue
-6.245

@<SCITEGIC>MOL_PROPERTY
VdW12
SciTegic.value.DoubleValue
6.600

@<SCITEGIC>MOL_PROPERTY
Bond
SciTegic.value.DoubleValue
0.149

@<SCITEGIC>MOL_PROPERTY
Angle
SciTegic.value.DoubleValue
3.168

@<SCITEGIC>MOL_PROPERTY
Pdih
SciTegic.value.DoubleValue
4.840

@<SCITEGIC>MOL_PROPERTY
Idih
SciTegic.value.DoubleValue
0.011

@<SCITEGIC>MOL_PROPERTY
Tether
SciTegic.value.DoubleValue
0.000

@<TRIPOS>MOLECULE
guest-s18_confgen4.mol2 : confsearch ligand conformer 270
          16          15           1
SMALL
USER_CHARGES
 
@<TRIPOS>ATOM
       1    C1      20.617947   19.079355   20.413310 C.2        1 MOL1         0.6075
       2    O1      21.190664   18.020918   20.243418 O.co2      1 MOL1        -0.6830
       3    O2      21.097074   20.154676   20.111744 O.co2      1 MOL1        -0.6830
       4    C2      19.187754   19.052066   20.949473 C.3        1 MOL1        -0.2050
       5    H1      18.592664   18.498611   20.213740 H          1 MOL1         0.0710
       6    H2      18.793180   20.075309   20.965755 H          1 MOL1         0.0710
       7    C3      19.013332   18.386141   22.343428 C.3        1 MOL1        -0.1947
       8    H3      17.958386   18.100618   22.453058 H          1 MOL1         0.0712
       9    H4      19.586436   17.449480   22.385339 H          1 MOL1         0.0712
      10    C4      19.384581   19.290350   23.543487 C.3        1 MOL1        -0.1921
      11    H5      19.074764   18.784487   24.468371 H          1 MOL1         0.0712
      12    H6      18.810963   20.226311   23.496907 H          1 MOL1         0.0712
      13    C5      20.890893   19.609143   23.641881 C.3        1 MOL1        -0.2936
      14    H7      21.112158   20.131645   24.581456 H          1 MOL1         0.0724
      15    H8      21.216460   20.257787   22.819526 H          1 MOL1         0.0724
      16    H9      21.490900   18.690121   23.615052 H          1 MOL1         0.0724
@<TRIPOS>BOND
    1     1     2    1
    2     1     3    2
    3     1     4    1
    4     4     5    1
    5     4     6    1
    6     4     7    1
    7     7     8    1
    8     7     9    1
    9     7    10    1
   10    10    11    1
   11    10    12    1
   12    10    13    1
   13    13    14    1
   14    13    15    1
   15    13    16    1
@<TRIPOS>SUBSTRUCTURE
       1 MOL1            1 RESIDUE      1      MOL     
@<SCITEGIC>MOL_PROPERTY
VConf Rank
SciTegic.value.IntegerValue
270

@<SCITEGIC>MOL_PROPERTY
Conf_Id
SciTegic.value.IntegerValue
45

@<SCITEGIC>MOL_PROPERTY
Delta U+W
SciTegic.value.DoubleValue
2.303

@<SCITEGIC>MOL_PROPERTY
U+W
SciTegic.value.DoubleValue
-54.601

@<SCITEGIC>MOL_PROPERTY
Grad RMS
SciTegic.value.DoubleValue
0.000000

@<SCITEGIC>MOL_PROPERTY
U
SciTegic.value.DoubleValue
11.258

@<SCITEGIC>MOL_PROPERTY
W
SciTegic.value.DoubleValue
-65.860

@<SCITEGIC>MOL_PROPERTY
W(PB)
SciTegic.value.DoubleValue
-67.709

@<SCITEGIC>MOL_PROPERTY
W(SA)
SciTegic.value.DoubleValue
1.849

@<SCITEGIC>MOL_PROPERTY
Valence
SciTegic.value.DoubleValue
8.169

@<SCITEGIC>MOL_PROPERTY
Coulomb
SciTegic.value.DoubleValue
2.735

@<SCITEGIC>MOL_PROPERTY
VdW
SciTegic.value.DoubleValue
0.355

@<SCITEGIC>MOL_PROPERTY
VdW6
SciTegic.value.DoubleValue
-6.245

@<SCITEGIC>MOL_PROPERTY
VdW12
SciTegic.value.DoubleValue
6.600

@<SCITEGIC>MOL_PROPERTY
Bond
SciTegic.value.DoubleValue
0.149

@<SCITEGIC>MOL_PROPERTY
Angle
SciTegic.value.DoubleValue
3.168

@<SCITEGIC>MOL_PROPERTY
Pdih
SciTegic.value.DoubleValue
4.840

@<SCITEGIC>MOL_PROPERTY
Idih
SciTegic.value.DoubleValue
0.011

@<SCITEGIC>MOL_PROPERTY
Tether
SciTegic.value.DoubleValue
0.000

@<TRIPOS>MOLECULE
guest-s18_confgen4.mol2 : confsearch ligand conformer 271
          16          15           1
SMALL
USER_CHARGES
 
@<TRIPOS>ATOM
       1    C1      18.658075   20.498587   23.909137 C.2        1 MOL1         0.6075
       2    O1      19.526166   21.338575   24.045575 O.co2      1 MOL1        -0.6830
       3    O2      17.631999   20.495057   24.559112 O.co2      1 MOL1        -0.6830
       4    C2      18.836505   19.381188   22.879828 C.3        1 MOL1        -0.2050
       5    H1      17.983988   19.430555   22.192123 H          1 MOL1         0.0710
       6    H2      18.761435   18.427576   23.415692 H          1 MOL1         0.0710
       7    C3      20.162227   19.426176   22.074356 C.3        1 MOL1        -0.1947
       8    H3      20.234348   20.385899   21.544073 H          1 MOL1         0.0712
       9    H4      21.012589   19.381870   22.768901 H          1 MOL1         0.0712
      10    C4      20.257907   18.265427   21.062050 C.3        1 MOL1        -0.1921
      11    H5      19.408970   18.309608   20.365734 H          1 MOL1         0.0712
      12    H6      20.187677   17.304970   21.591285 H          1 MOL1         0.0712
      13    C5      21.576534   18.315534   20.265273 C.3        1 MOL1        -0.2936
      14    H7      21.658781   19.253549   19.700620 H          1 MOL1         0.0724
      15    H8      21.628491   17.483911   19.550538 H          1 MOL1         0.0724
      16    H9      22.443237   18.241498   20.935208 H          1 MOL1         0.0724
@<TRIPOS>BOND
    1     1     2    1
    2     1     3    2
    3     1     4    1
    4     4     5    1
    5     4     6    1
    6     4     7    1
    7     7     8    1
    8     7     9    1
    9     7    10    1
   10    10    11    1
   11    10    12    1
   12    10    13    1
   13    13    14    1
   14    13    15    1
   15    13    16    1
@<TRIPOS>SUBSTRUCTURE
       1 MOL1            1 RESIDUE      1      MOL     
@<SCITEGIC>MOL_PROPERTY
VConf Rank
SciTegic.value.IntegerValue
271

@<SCITEGIC>MOL_PROPERTY
Conf_Id
SciTegic.value.IntegerValue
0

@<SCITEGIC>MOL_PROPERTY
Delta U+W
SciTegic.value.DoubleValue
0.000

@<SCITEGIC>MOL_PROPERTY
U+W
SciTegic.value.DoubleValue
-56.904

@<SCITEGIC>MOL_PROPERTY
Grad RMS
SciTegic.value.DoubleValue
0.000000

@<SCITEGIC>MOL_PROPERTY
U
SciTegic.value.DoubleValue
7.329

@<SCITEGIC>MOL_PROPERTY
W
SciTegic.value.DoubleValue
-64.233

@<SCITEGIC>MOL_PROPERTY
W(PB)
SciTegic.value.DoubleValue
-66.148

@<SCITEGIC>MOL_PROPERTY
W(SA)
SciTegic.value.DoubleValue
1.915

@<SCITEGIC>MOL_PROPERTY
Valence
SciTegic.value.DoubleValue
6.755

@<SCITEGIC>MOL_PROPERTY
Coulomb
SciTegic.value.DoubleValue
-0.421

@<SCITEGIC>MOL_PROPERTY
VdW
SciTegic.value.DoubleValue
0.995

@<SCITEGIC>MOL_PROPERTY
VdW6
SciTegic.value.DoubleValue
-4.495

@<SCITEGIC>MOL_PROPERTY
VdW12
SciTegic.value.DoubleValue
5.490

@<SCITEGIC>MOL_PROPERTY
Bond
SciTegic.value.DoubleValue
0.106

@<SCITEGIC>MOL_PROPERTY
Angle
SciTegic.value.DoubleValue
2.715

@<SCITEGIC>MOL_PROPERTY
Pdih
SciTegic.value.DoubleValue
3.934

@<SCITEGIC>MOL_PROPERTY
Idih
SciTegic.value.DoubleValue
0.000

@<SCITEGIC>MOL_PROPERTY
Tether
SciTegic.value.DoubleValue
0.000

@<TRIPOS>MOLECULE
guest-s18_confgen4.mol2 : confsearch ligand conformer 272
          16          15           1
SMALL
USER_CHARGES
 
@<TRIPOS>ATOM
       1    C1      19.760457   21.805293   21.502336 C.2        1 MOL1         0.6075
       2    O1      18.681308   22.264427   21.819316 O.co2      1 MOL1        -0.6830
       3    O2      20.797305   22.437147   21.541704 O.co2      1 MOL1        -0.6830
       4    C2      19.819476   20.351239   21.047555 C.3        1 MOL1        -0.2050
       5    H1      20.623004   20.257869   20.306964 H          1 MOL1         0.0710
       6    H2      18.878458   20.115434   20.535958 H          1 MOL1         0.0710
       7    C3      20.053617   19.363093   22.216661 C.3        1 MOL1        -0.1947
       8    H3      20.992730   19.619696   22.726340 H          1 MOL1         0.0712
       9    H4      19.248140   19.477299   22.955387 H          1 MOL1         0.0712
      10    C4      20.109085   17.900130   21.729605 C.3        1 MOL1        -0.1921
      11    H5      20.914906   17.785363   20.991350 H          1 MOL1         0.0712
      12    H6      19.169873   17.642938   21.220419 H          1 MOL1         0.0712
      13    C5      20.342294   16.922455   22.898308 C.3        1 MOL1        -0.2936
      14    H7      19.533534   16.993773   23.637423 H          1 MOL1         0.0724
      15    H8      21.291445   17.137266   23.406678 H          1 MOL1         0.0724
      16    H9      20.379112   15.887170   22.535018 H          1 MOL1         0.0724
@<TRIPOS>BOND
    1     1     2    1
    2     1     3    2
    3     1     4    1
    4     4     5    1
    5     4     6    1
    6     4     7    1
    7     7     8    1
    8     7     9    1
    9     7    10    1
   10    10    11    1
   11    10    12    1
   12    10    13    1
   13    13    14    1
   14    13    15    1
   15    13    16    1
@<TRIPOS>SUBSTRUCTURE
       1 MOL1            1 RESIDUE      1      MOL     
@<SCITEGIC>MOL_PROPERTY
VConf Rank
SciTegic.value.IntegerValue
272

@<SCITEGIC>MOL_PROPERTY
Conf_Id
SciTegic.value.IntegerValue
22

@<SCITEGIC>MOL_PROPERTY
Delta U+W
SciTegic.value.DoubleValue
-1.185

@<SCITEGIC>MOL_PROPERTY
U+W
SciTegic.value.DoubleValue
-58.089

@<SCITEGIC>MOL_PROPERTY
Grad RMS
SciTegic.value.DoubleValue
0.000000

@<SCITEGIC>MOL_PROPERTY
U
SciTegic.value.DoubleValue
6.298

@<SCITEGIC>MOL_PROPERTY
W
SciTegic.value.DoubleValue
-64.387

@<SCITEGIC>MOL_PROPERTY
W(PB)
SciTegic.value.DoubleValue
-66.329

@<SCITEGIC>MOL_PROPERTY
W(SA)
SciTegic.value.DoubleValue
1.942

@<SCITEGIC>MOL_PROPERTY
Valence
SciTegic.value.DoubleValue
6.246

@<SCITEGIC>MOL_PROPERTY
Coulomb
SciTegic.value.DoubleValue
-0.408

@<SCITEGIC>MOL_PROPERTY
VdW
SciTegic.value.DoubleValue
0.460

@<SCITEGIC>MOL_PROPERTY
VdW6
SciTegic.value.DoubleValue
-4.207

@<SCITEGIC>MOL_PROPERTY
VdW12
SciTegic.value.DoubleValue
4.667

@<SCITEGIC>MOL_PROPERTY
Bond
SciTegic.value.DoubleValue
0.072

@<SCITEGIC>MOL_PROPERTY
Angle
SciTegic.value.DoubleValue
2.246

@<SCITEGIC>MOL_PROPERTY
Pdih
SciTegic.value.DoubleValue
3.928

@<SCITEGIC>MOL_PROPERTY
Idih
SciTegic.value.DoubleValue
0.001

@<SCITEGIC>MOL_PROPERTY
Tether
SciTegic.value.DoubleValue
0.000

@<TRIPOS>MOLECULE
guest-s18_confgen4.mol2 : confsearch ligand conformer 273
          16          15           1
SMALL
USER_CHARGES
 
@<TRIPOS>ATOM
       1    C1      19.766339   17.442728   20.049753 C.2        1 MOL1         0.6075
       2    O1      19.115129   17.669205   19.049439 O.co2      1 MOL1        -0.6830
       3    O2      20.069899   16.324342   20.414473 O.co2      1 MOL1        -0.6830
       4    C2      20.209259   18.625249   20.904177 C.3        1 MOL1        -0.2050
       5    H1      20.380317   19.480493   20.239449 H          1 MOL1         0.0710
       6    H2      21.173323   18.367827   21.357420 H          1 MOL1         0.0710
       7    C3      19.174858   18.997339   21.998049 C.3        1 MOL1        -0.1947
       8    H3      18.199767   19.164465   21.519828 H          1 MOL1         0.0712
       9    H4      19.043659   18.147928   22.682590 H          1 MOL1         0.0712
      10    C4      19.557031   20.261566   22.801842 C.3        1 MOL1        -0.1921
      11    H5      18.726562   20.516858   23.474491 H          1 MOL1         0.0712
      12    H6      19.676768   21.113832   22.118697 H          1 MOL1         0.0712
      13    C5      20.840631   20.084451   23.640849 C.3        1 MOL1        -0.2936
      14    H7      21.720551   19.939561   23.001686 H          1 MOL1         0.0724
      15    H8      20.755315   19.219593   24.311664 H          1 MOL1         0.0724
      16    H9      21.021310   20.974135   24.257959 H          1 MOL1         0.0724
@<TRIPOS>BOND
    1     1     2    1
    2     1     3    2
    3     1     4    1
    4     4     5    1
    5     4     6    1
    6     4     7    1
    7     7     8    1
    8     7     9    1
    9     7    10    1
   10    10    11    1
   11    10    12    1
   12    10    13    1
   13    13    14    1
   14    13    15    1
   15    13    16    1
@<TRIPOS>SUBSTRUCTURE
       1 MOL1            1 RESIDUE      1      MOL     
@<SCITEGIC>MOL_PROPERTY
VConf Rank
SciTegic.value.IntegerValue
273

@<SCITEGIC>MOL_PROPERTY
Conf_Id
SciTegic.value.IntegerValue
36

@<SCITEGIC>MOL_PROPERTY
Delta U+W
SciTegic.value.DoubleValue
-0.427

@<SCITEGIC>MOL_PROPERTY
U+W
SciTegic.value.DoubleValue
-57.331

@<SCITEGIC>MOL_PROPERTY
Grad RMS
SciTegic.value.DoubleValue
0.000000

@<SCITEGIC>MOL_PROPERTY
U
SciTegic.value.DoubleValue
7.263

@<SCITEGIC>MOL_PROPERTY
W
SciTegic.value.DoubleValue
-64.594

@<SCITEGIC>MOL_PROPERTY
W(PB)
SciTegic.value.DoubleValue
-66.513

@<SCITEGIC>MOL_PROPERTY
W(SA)
SciTegic.value.DoubleValue
1.920

@<SCITEGIC>MOL_PROPERTY
Valence
SciTegic.value.DoubleValue
6.734

@<SCITEGIC>MOL_PROPERTY
Coulomb
SciTegic.value.DoubleValue
-0.068

@<SCITEGIC>MOL_PROPERTY
VdW
SciTegic.value.DoubleValue
0.598

@<SCITEGIC>MOL_PROPERTY
VdW6
SciTegic.value.DoubleValue
-4.819

@<SCITEGIC>MOL_PROPERTY
VdW12
SciTegic.value.DoubleValue
5.417

@<SCITEGIC>MOL_PROPERTY
Bond
SciTegic.value.DoubleValue
0.107

@<SCITEGIC>MOL_PROPERTY
Angle
SciTegic.value.DoubleValue
2.469

@<SCITEGIC>MOL_PROPERTY
Pdih
SciTegic.value.DoubleValue
4.157

@<SCITEGIC>MOL_PROPERTY
Idih
SciTegic.value.DoubleValue
0.001

@<SCITEGIC>MOL_PROPERTY
Tether
SciTegic.value.DoubleValue
0.000

@<TRIPOS>MOLECULE
guest-s18_confgen4.mol2 : confsearch ligand conformer 274
          16          15           1
SMALL
USER_CHARGES
 
@<TRIPOS>ATOM
       1    C1      18.355950   17.251442   22.724158 C.2        1 MOL1         0.6075
       2    O1      18.454023   17.029189   23.914512 O.co2      1 MOL1        -0.6830
       3    O2      17.866581   16.469842   21.933199 O.co2      1 MOL1        -0.6830
       4    C2      18.894236   18.574340   22.190529 C.3        1 MOL1        -0.2050
       5    H1      18.752942   19.331672   22.970018 H          1 MOL1         0.0710
       6    H2      18.278630   18.871352   21.332987 H          1 MOL1         0.0710
       7    C3      20.385926   18.492324   21.774441 C.3        1 MOL1        -0.1947
       8    H3      20.997334   18.236017   22.650681 H          1 MOL1         0.0712
       9    H4      20.508051   17.667794   21.058435 H          1 MOL1         0.0712
      10    C4      20.917258   19.793086   21.129373 C.3        1 MOL1        -0.1921
      11    H5      20.313234   20.043198   20.246209 H          1 MOL1         0.0712
      12    H6      21.939169   19.615608   20.766733 H          1 MOL1         0.0712
      13    C5      20.935483   20.991519   22.102181 C.3        1 MOL1        -0.2936
      14    H7      19.920384   21.278437   22.403901 H          1 MOL1         0.0724
      15    H8      21.399799   21.864918   21.626163 H          1 MOL1         0.0724
      16    H9      21.510288   20.754400   23.006961 H          1 MOL1         0.0724
@<TRIPOS>BOND
    1     1     2    1
    2     1     3    2
    3     1     4    1
    4     4     5    1
    5     4     6    1
    6     4     7    1
    7     7     8    1
    8     7     9    1
    9     7    10    1
   10    10    11    1
   11    10    12    1
   12    10    13    1
   13    13    14    1
   14    13    15    1
   15    13    16    1
@<TRIPOS>SUBSTRUCTURE
       1 MOL1            1 RESIDUE      1      MOL     
@<SCITEGIC>MOL_PROPERTY
VConf Rank
SciTegic.value.IntegerValue
274

@<SCITEGIC>MOL_PROPERTY
Conf_Id
SciTegic.value.IntegerValue
17

@<SCITEGIC>MOL_PROPERTY
Delta U+W
SciTegic.value.DoubleValue
-0.432

@<SCITEGIC>MOL_PROPERTY
U+W
SciTegic.value.DoubleValue
-57.336

@<SCITEGIC>MOL_PROPERTY
Grad RMS
SciTegic.value.DoubleValue
0.000000

@<SCITEGIC>MOL_PROPERTY
U
SciTegic.value.DoubleValue
7.263

@<SCITEGIC>MOL_PROPERTY
W
SciTegic.value.DoubleValue
-64.599

@<SCITEGIC>MOL_PROPERTY
W(PB)
SciTegic.value.DoubleValue
-66.503

@<SCITEGIC>MOL_PROPERTY
W(SA)
SciTegic.value.DoubleValue
1.904

@<SCITEGIC>MOL_PROPERTY
Valence
SciTegic.value.DoubleValue
6.734

@<SCITEGIC>MOL_PROPERTY
Coulomb
SciTegic.value.DoubleValue
-0.068

@<SCITEGIC>MOL_PROPERTY
VdW
SciTegic.value.DoubleValue
0.598

@<SCITEGIC>MOL_PROPERTY
VdW6
SciTegic.value.DoubleValue
-4.819

@<SCITEGIC>MOL_PROPERTY
VdW12
SciTegic.value.DoubleValue
5.417

@<SCITEGIC>MOL_PROPERTY
Bond
SciTegic.value.DoubleValue
0.107

@<SCITEGIC>MOL_PROPERTY
Angle
SciTegic.value.DoubleValue
2.469

@<SCITEGIC>MOL_PROPERTY
Pdih
SciTegic.value.DoubleValue
4.157

@<SCITEGIC>MOL_PROPERTY
Idih
SciTegic.value.DoubleValue
0.001

@<SCITEGIC>MOL_PROPERTY
Tether
SciTegic.value.DoubleValue
0.000

@<TRIPOS>MOLECULE
guest-s18_confgen4.mol2 : confsearch ligand conformer 275
          16          15           1
SMALL
USER_CHARGES
 
@<TRIPOS>ATOM
       1    C1      19.944451   18.564370   19.801028 C.2        1 MOL1         0.6075
       2    O1      20.058266   17.374003   19.585588 O.co2      1 MOL1        -0.6830
       3    O2      19.043809   19.244662   19.351239 O.co2      1 MOL1        -0.6830
       4    C2      21.004264   19.244292   20.663580 C.3        1 MOL1        -0.2050
       5    H1      20.966441   20.324787   20.478688 H          1 MOL1         0.0710
       6    H2      21.983905   18.897089   20.314315 H          1 MOL1         0.0710
       7    C3      20.864466   18.956131   22.180964 C.3        1 MOL1        -0.1947
       8    H3      20.875287   17.870019   22.347896 H          1 MOL1         0.0712
       9    H4      21.739824   19.365067   22.703532 H          1 MOL1         0.0712
      10    C4      19.580804   19.565338   22.785333 C.3        1 MOL1        -0.1921
      11    H5      18.696748   19.147706   22.283585 H          1 MOL1         0.0712
      12    H6      19.565427   20.649430   22.606765 H          1 MOL1         0.0712
      13    C5      19.483538   19.293448   24.299585 C.3        1 MOL1        -0.2936
      14    H7      19.465875   18.214912   24.504276 H          1 MOL1         0.0724
      15    H8      18.565943   19.731967   24.712910 H          1 MOL1         0.0724
      16    H9      20.338051   19.730059   24.833057 H          1 MOL1         0.0724
@<TRIPOS>BOND
    1     1     2    1
    2     1     3    2
    3     1     4    1
    4     4     5    1
    5     4     6    1
    6     4     7    1
    7     7     8    1
    8     7     9    1
    9     7    10    1
   10    10    11    1
   11    10    12    1
   12    10    13    1
   13    13    14    1
   14    13    15    1
   15    13    16    1
@<TRIPOS>SUBSTRUCTURE
       1 MOL1            1 RESIDUE      1      MOL     
@<SCITEGIC>MOL_PROPERTY
VConf Rank
SciTegic.value.IntegerValue
275

@<SCITEGIC>MOL_PROPERTY
Conf_Id
SciTegic.value.IntegerValue
19

@<SCITEGIC>MOL_PROPERTY
Delta U+W
SciTegic.value.DoubleValue
0.048

@<SCITEGIC>MOL_PROPERTY
U+W
SciTegic.value.DoubleValue
-56.856

@<SCITEGIC>MOL_PROPERTY
Grad RMS
SciTegic.value.DoubleValue
0.000000

@<SCITEGIC>MOL_PROPERTY
U
SciTegic.value.DoubleValue
8.276

@<SCITEGIC>MOL_PROPERTY
W
SciTegic.value.DoubleValue
-65.132

@<SCITEGIC>MOL_PROPERTY
W(PB)
SciTegic.value.DoubleValue
-67.031

@<SCITEGIC>MOL_PROPERTY
W(SA)
SciTegic.value.DoubleValue
1.899

@<SCITEGIC>MOL_PROPERTY
Valence
SciTegic.value.DoubleValue
6.513

@<SCITEGIC>MOL_PROPERTY
Coulomb
SciTegic.value.DoubleValue
1.428

@<SCITEGIC>MOL_PROPERTY
VdW
SciTegic.value.DoubleValue
0.335

@<SCITEGIC>MOL_PROPERTY
VdW6
SciTegic.value.DoubleValue
-5.021

@<SCITEGIC>MOL_PROPERTY
VdW12
SciTegic.value.DoubleValue
5.356

@<SCITEGIC>MOL_PROPERTY
Bond
SciTegic.value.DoubleValue
0.092

@<SCITEGIC>MOL_PROPERTY
Angle
SciTegic.value.DoubleValue
2.417

@<SCITEGIC>MOL_PROPERTY
Pdih
SciTegic.value.DoubleValue
4.003

@<SCITEGIC>MOL_PROPERTY
Idih
SciTegic.value.DoubleValue
0.001

@<SCITEGIC>MOL_PROPERTY
Tether
SciTegic.value.DoubleValue
0.000

@<TRIPOS>MOLECULE
guest-s18_confgen4.mol2 : confsearch ligand conformer 276
          16          15           1
SMALL
USER_CHARGES
 
@<TRIPOS>ATOM
       1    C1      18.661435   17.637338   23.445272 C.2        1 MOL1         0.6075
       2    O1      19.329315   16.699235   23.832881 O.co2      1 MOL1        -0.6830
       3    O2      17.565404   17.515486   22.935242 O.co2      1 MOL1        -0.6830
       4    C2      19.221169   19.045016   23.631385 C.3        1 MOL1        -0.2050
       5    H1      19.616401   19.108726   24.652154 H          1 MOL1         0.0710
       6    H2      18.394167   19.762589   23.566253 H          1 MOL1         0.0710
       7    C3      20.336044   19.420663   22.620946 C.3        1 MOL1        -0.1947
       8    H3      20.772392   20.385185   22.913960 H          1 MOL1         0.0712
       9    H4      21.143926   18.677845   22.677262 H          1 MOL1         0.0712
      10    C4      19.815037   19.517687   21.170661 C.3        1 MOL1        -0.1921
      11    H5      18.999042   20.251710   21.118321 H          1 MOL1         0.0712
      12    H6      19.394216   18.551434   20.859232 H          1 MOL1         0.0712
      13    C5      20.934896   19.924960   20.192705 C.3        1 MOL1        -0.2936
      14    H7      21.352123   20.904983   20.458956 H          1 MOL1         0.0724
      15    H8      20.548375   19.988405   19.167183 H          1 MOL1         0.0724
      16    H9      21.750857   19.190412   20.202609 H          1 MOL1         0.0724
@<TRIPOS>BOND
    1     1     2    1
    2     1     3    2
    3     1     4    1
    4     4     5    1
    5     4     6    1
    6     4     7    1
    7     7     8    1
    8     7     9    1
    9     7    10    1
   10    10    11    1
   11    10    12    1
   12    10    13    1
   13    13    14    1
   14    13    15    1
   15    13    16    1
@<TRIPOS>SUBSTRUCTURE
       1 MOL1            1 RESIDUE      1      MOL     
@<SCITEGIC>MOL_PROPERTY
VConf Rank
SciTegic.value.IntegerValue
276

@<SCITEGIC>MOL_PROPERTY
Conf_Id
SciTegic.value.IntegerValue
20

@<SCITEGIC>MOL_PROPERTY
Delta U+W
SciTegic.value.DoubleValue
-0.010

@<SCITEGIC>MOL_PROPERTY
U+W
SciTegic.value.DoubleValue
-56.914

@<SCITEGIC>MOL_PROPERTY
Grad RMS
SciTegic.value.DoubleValue
0.000000

@<SCITEGIC>MOL_PROPERTY
U
SciTegic.value.DoubleValue
8.277

@<SCITEGIC>MOL_PROPERTY
W
SciTegic.value.DoubleValue
-65.191

@<SCITEGIC>MOL_PROPERTY
W(PB)
SciTegic.value.DoubleValue
-67.081

@<SCITEGIC>MOL_PROPERTY
W(SA)
SciTegic.value.DoubleValue
1.890

@<SCITEGIC>MOL_PROPERTY
Valence
SciTegic.value.DoubleValue
6.513

@<SCITEGIC>MOL_PROPERTY
Coulomb
SciTegic.value.DoubleValue
1.429

@<SCITEGIC>MOL_PROPERTY
VdW
SciTegic.value.DoubleValue
0.335

@<SCITEGIC>MOL_PROPERTY
VdW6
SciTegic.value.DoubleValue
-5.021

@<SCITEGIC>MOL_PROPERTY
VdW12
SciTegic.value.DoubleValue
5.356

@<SCITEGIC>MOL_PROPERTY
Bond
SciTegic.value.DoubleValue
0.092

@<SCITEGIC>MOL_PROPERTY
Angle
SciTegic.value.DoubleValue
2.417

@<SCITEGIC>MOL_PROPERTY
Pdih
SciTegic.value.DoubleValue
4.002

@<SCITEGIC>MOL_PROPERTY
Idih
SciTegic.value.DoubleValue
0.001

@<SCITEGIC>MOL_PROPERTY
Tether
SciTegic.value.DoubleValue
0.000

@<TRIPOS>MOLECULE
guest-s18_confgen4.mol2 : confsearch ligand conformer 277
          16          15           1
SMALL
USER_CHARGES
 
@<TRIPOS>ATOM
       1    C1      19.244564   17.275152   21.350093 C.2        1 MOL1         0.6075
       2    O1      18.272512   17.149844   20.631624 O.co2      1 MOL1        -0.6830
       3    O2      19.487965   16.536113   22.283301 O.co2      1 MOL1        -0.6830
       4    C2      20.227981   18.400686   21.040563 C.3        1 MOL1        -0.2050
       5    H1      20.474333   18.333618   19.974404 H          1 MOL1         0.0710
       6    H2      21.159862   18.213838   21.586396 H          1 MOL1         0.0710
       7    C3      19.686134   19.822479   21.352949 C.3        1 MOL1        -0.1947
       8    H3      20.423234   20.568517   21.026633 H          1 MOL1         0.0712
       9    H4      18.784139   19.996558   20.750076 H          1 MOL1         0.0712
      10    C4      19.345167   20.061893   22.843053 C.3        1 MOL1        -0.1921
      11    H5      18.582092   19.343142   23.172769 H          1 MOL1         0.0712
      12    H6      18.895458   21.059047   22.945886 H          1 MOL1         0.0712
      13    C5      20.575377   19.972374   23.770961 C.3        1 MOL1        -0.2936
      14    H7      20.983804   18.953955   23.793261 H          1 MOL1         0.0724
      15    H8      20.300828   20.242014   24.798957 H          1 MOL1         0.0724
      16    H9      21.368151   20.656518   23.441535 H          1 MOL1         0.0724
@<TRIPOS>BOND
    1     1     2    1
    2     1     3    2
    3     1     4    1
    4     4     5    1
    5     4     6    1
    6     4     7    1
    7     7     8    1
    8     7     9    1
    9     7    10    1
   10    10    11    1
   11    10    12    1
   12    10    13    1
   13    13    14    1
   14    13    15    1
   15    13    16    1
@<TRIPOS>SUBSTRUCTURE
       1 MOL1            1 RESIDUE      1      MOL     
@<SCITEGIC>MOL_PROPERTY
VConf Rank
SciTegic.value.IntegerValue
277

@<SCITEGIC>MOL_PROPERTY
Conf_Id
SciTegic.value.IntegerValue
37

@<SCITEGIC>MOL_PROPERTY
Delta U+W
SciTegic.value.DoubleValue
1.063

@<SCITEGIC>MOL_PROPERTY
U+W
SciTegic.value.DoubleValue
-55.841

@<SCITEGIC>MOL_PROPERTY
Grad RMS
SciTegic.value.DoubleValue
0.000000

@<SCITEGIC>MOL_PROPERTY
U
SciTegic.value.DoubleValue
9.719

@<SCITEGIC>MOL_PROPERTY
W
SciTegic.value.DoubleValue
-65.560

@<SCITEGIC>MOL_PROPERTY
W(PB)
SciTegic.value.DoubleValue
-67.414

@<SCITEGIC>MOL_PROPERTY
W(SA)
SciTegic.value.DoubleValue
1.854

@<SCITEGIC>MOL_PROPERTY
Valence
SciTegic.value.DoubleValue
7.002

@<SCITEGIC>MOL_PROPERTY
Coulomb
SciTegic.value.DoubleValue
2.402

@<SCITEGIC>MOL_PROPERTY
VdW
SciTegic.value.DoubleValue
0.314

@<SCITEGIC>MOL_PROPERTY
VdW6
SciTegic.value.DoubleValue
-5.861

@<SCITEGIC>MOL_PROPERTY
VdW12
SciTegic.value.DoubleValue
6.175

@<SCITEGIC>MOL_PROPERTY
Bond
SciTegic.value.DoubleValue
0.134

@<SCITEGIC>MOL_PROPERTY
Angle
SciTegic.value.DoubleValue
2.733

@<SCITEGIC>MOL_PROPERTY
Pdih
SciTegic.value.DoubleValue
4.133

@<SCITEGIC>MOL_PROPERTY
Idih
SciTegic.value.DoubleValue
0.002

@<SCITEGIC>MOL_PROPERTY
Tether
SciTegic.value.DoubleValue
0.000

@<TRIPOS>MOLECULE
guest-s18_confgen4.mol2 : confsearch ligand conformer 278
          16          15           1
SMALL
USER_CHARGES
 
@<TRIPOS>ATOM
       1    C1      18.246310   19.659679   23.049287 C.2        1 MOL1         0.6075
       2    O1      17.245661   19.872167   22.393287 O.co2      1 MOL1        -0.6830
       3    O2      18.260587   18.959755   24.042364 O.co2      1 MOL1        -0.6830
       4    C2      19.545198   20.337081   22.620609 C.3        1 MOL1        -0.2050
       5    H1      20.264817   20.271744   23.444701 H          1 MOL1         0.0710
       6    H2      19.326719   21.402606   22.483482 H          1 MOL1         0.0710
       7    C3      20.158007   19.766996   21.312119 C.3        1 MOL1        -0.1947
       8    H3      19.432770   19.897215   20.496993 H          1 MOL1         0.0712
       9    H4      21.039385   20.362325   21.038025 H          1 MOL1         0.0712
      10    C4      20.557034   18.274232   21.392274 C.3        1 MOL1        -0.1921
      11    H5      20.899504   17.947245   20.400850 H          1 MOL1         0.0712
      12    H6      19.675562   17.663324   21.631846 H          1 MOL1         0.0712
      13    C5      21.673671   17.997065   22.421226 C.3        1 MOL1        -0.2936
      14    H7      22.554493   18.622119   22.224949 H          1 MOL1         0.0724
      15    H8      21.986752   16.946074   22.373699 H          1 MOL1         0.0724
      16    H9      21.329828   18.194523   23.444588 H          1 MOL1         0.0724
@<TRIPOS>BOND
    1     1     2    1
    2     1     3    2
    3     1     4    1
    4     4     5    1
    5     4     6    1
    6     4     7    1
    7     7     8    1
    8     7     9    1
    9     7    10    1
   10    10    11    1
   11    10    12    1
   12    10    13    1
   13    13    14    1
   14    13    15    1
   15    13    16    1
@<TRIPOS>SUBSTRUCTURE
       1 MOL1            1 RESIDUE      1      MOL     
@<SCITEGIC>MOL_PROPERTY
VConf Rank
SciTegic.value.IntegerValue
278

@<SCITEGIC>MOL_PROPERTY
Conf_Id
SciTegic.value.IntegerValue
39

@<SCITEGIC>MOL_PROPERTY
Delta U+W
SciTegic.value.DoubleValue
1.129

@<SCITEGIC>MOL_PROPERTY
U+W
SciTegic.value.DoubleValue
-55.775

@<SCITEGIC>MOL_PROPERTY
Grad RMS
SciTegic.value.DoubleValue
0.000000

@<SCITEGIC>MOL_PROPERTY
U
SciTegic.value.DoubleValue
9.718

@<SCITEGIC>MOL_PROPERTY
W
SciTegic.value.DoubleValue
-65.493

@<SCITEGIC>MOL_PROPERTY
W(PB)
SciTegic.value.DoubleValue
-67.361

@<SCITEGIC>MOL_PROPERTY
W(SA)
SciTegic.value.DoubleValue
1.869

@<SCITEGIC>MOL_PROPERTY
Valence
SciTegic.value.DoubleValue
7.002

@<SCITEGIC>MOL_PROPERTY
Coulomb
SciTegic.value.DoubleValue
2.402

@<SCITEGIC>MOL_PROPERTY
VdW
SciTegic.value.DoubleValue
0.314

@<SCITEGIC>MOL_PROPERTY
VdW6
SciTegic.value.DoubleValue
-5.861

@<SCITEGIC>MOL_PROPERTY
VdW12
SciTegic.value.DoubleValue
6.175

@<SCITEGIC>MOL_PROPERTY
Bond
SciTegic.value.DoubleValue
0.134

@<SCITEGIC>MOL_PROPERTY
Angle
SciTegic.value.DoubleValue
2.734

@<SCITEGIC>MOL_PROPERTY
Pdih
SciTegic.value.DoubleValue
4.133

@<SCITEGIC>MOL_PROPERTY
Idih
SciTegic.value.DoubleValue
0.002

@<SCITEGIC>MOL_PROPERTY
Tether
SciTegic.value.DoubleValue
0.000

@<TRIPOS>MOLECULE
guest-s18_confgen4.mol2 : confsearch ligand conformer 279
          16          15           1
SMALL
USER_CHARGES
 
@<TRIPOS>ATOM
       1    C1      19.549018   20.294557   20.725116 C.2        1 MOL1         0.6075
       2    O1      20.411130   21.145855   20.630909 O.co2      1 MOL1        -0.6830
       3    O2      18.359419   20.540473   20.685889 O.co2      1 MOL1        -0.6830
       4    C2      19.985096   18.832743   20.806306 C.3        1 MOL1        -0.2050
       5    H1      21.079368   18.783175   20.750720 H          1 MOL1         0.0710
       6    H2      19.603175   18.345855   19.901417 H          1 MOL1         0.0710
       7    C3      19.474074   18.055131   22.051762 C.3        1 MOL1        -0.1947
       8    H3      18.410688   18.275061   22.220232 H          1 MOL1         0.0712
       9    H4      19.529134   16.981388   21.827052 H          1 MOL1         0.0712
      10    C4      20.280824   18.307839   23.348240 C.3        1 MOL1        -0.1921
      11    H5      21.343483   18.088736   23.175097 H          1 MOL1         0.0712
      12    H6      19.940050   17.596785   24.113464 H          1 MOL1         0.0712
      13    C5      20.130196   19.737604   23.908035 C.3        1 MOL1        -0.2936
      14    H7      20.607051   20.475816   23.251794 H          1 MOL1         0.0724
      15    H8      20.606623   19.816130   24.893743 H          1 MOL1         0.0724
      16    H9      19.071959   20.007670   24.019964 H          1 MOL1         0.0724
@<TRIPOS>BOND
    1     1     2    1
    2     1     3    2
    3     1     4    1
    4     4     5    1
    5     4     6    1
    6     4     7    1
    7     7     8    1
    8     7     9    1
    9     7    10    1
   10    10    11    1
   11    10    12    1
   12    10    13    1
   13    13    14    1
   14    13    15    1
   15    13    16    1
@<TRIPOS>SUBSTRUCTURE
       1 MOL1            1 RESIDUE      1      MOL     
@<SCITEGIC>MOL_PROPERTY
VConf Rank
SciTegic.value.IntegerValue
279

@<SCITEGIC>MOL_PROPERTY
Conf_Id
SciTegic.value.IntegerValue
47

@<SCITEGIC>MOL_PROPERTY
Delta U+W
SciTegic.value.DoubleValue
2.301

@<SCITEGIC>MOL_PROPERTY
U+W
SciTegic.value.DoubleValue
-54.603

@<SCITEGIC>MOL_PROPERTY
Grad RMS
SciTegic.value.DoubleValue
0.000000

@<SCITEGIC>MOL_PROPERTY
U
SciTegic.value.DoubleValue
11.258

@<SCITEGIC>MOL_PROPERTY
W
SciTegic.value.DoubleValue
-65.861

@<SCITEGIC>MOL_PROPERTY
W(PB)
SciTegic.value.DoubleValue
-67.702

@<SCITEGIC>MOL_PROPERTY
W(SA)
SciTegic.value.DoubleValue
1.841

@<SCITEGIC>MOL_PROPERTY
Valence
SciTegic.value.DoubleValue
8.169

@<SCITEGIC>MOL_PROPERTY
Coulomb
SciTegic.value.DoubleValue
2.735

@<SCITEGIC>MOL_PROPERTY
VdW
SciTegic.value.DoubleValue
0.355

@<SCITEGIC>MOL_PROPERTY
VdW6
SciTegic.value.DoubleValue
-6.245

@<SCITEGIC>MOL_PROPERTY
VdW12
SciTegic.value.DoubleValue
6.600

@<SCITEGIC>MOL_PROPERTY
Bond
SciTegic.value.DoubleValue
0.149

@<SCITEGIC>MOL_PROPERTY
Angle
SciTegic.value.DoubleValue
3.168

@<SCITEGIC>MOL_PROPERTY
Pdih
SciTegic.value.DoubleValue
4.840

@<SCITEGIC>MOL_PROPERTY
Idih
SciTegic.value.DoubleValue
0.011

@<SCITEGIC>MOL_PROPERTY
Tether
SciTegic.value.DoubleValue
0.000

@<TRIPOS>MOLECULE
guest-s18_confgen4.mol2 : confsearch ligand conformer 280
          16          15           1
SMALL
USER_CHARGES
 
@<TRIPOS>ATOM
       1    C1      20.412772   21.009345   21.953593 C.2        1 MOL1         0.6075
       2    O1      21.149149   21.050842   20.987578 O.co2      1 MOL1        -0.6830
       3    O2      20.651786   21.576844   23.001274 O.co2      1 MOL1        -0.6830
       4    C2      19.076312   20.282308   21.815907 C.3        1 MOL1        -0.2050
       5    H1      18.519115   20.806438   21.030688 H          1 MOL1         0.0710
       6    H2      18.504373   20.408250   22.743270 H          1 MOL1         0.0710
       7    C3      19.174620   18.775725   21.445054 C.3        1 MOL1        -0.1947
       8    H3      18.207551   18.465890   21.026445 H          1 MOL1         0.0712
       9    H4      19.911249   18.635063   20.641853 H          1 MOL1         0.0712
      10    C4      19.497372   17.836814   22.632421 C.3        1 MOL1        -0.1921
      11    H5      19.384672   16.797570   22.293946 H          1 MOL1         0.0712
      12    H6      18.759880   17.981804   23.433866 H          1 MOL1         0.0712
      13    C5      20.921319   18.014512   23.199063 C.3        1 MOL1        -0.2936
      14    H7      21.140259   17.233898   23.938978 H          1 MOL1         0.0724
      15    H8      21.033947   18.983925   23.699617 H          1 MOL1         0.0724
      16    H9      21.673779   17.947787   22.402394 H          1 MOL1         0.0724
@<TRIPOS>BOND
    1     1     2    1
    2     1     3    2
    3     1     4    1
    4     4     5    1
    5     4     6    1
    6     4     7    1
    7     7     8    1
    8     7     9    1
    9     7    10    1
   10    10    11    1
   11    10    12    1
   12    10    13    1
   13    13    14    1
   14    13    15    1
   15    13    16    1
@<TRIPOS>SUBSTRUCTURE
       1 MOL1            1 RESIDUE      1      MOL     
@<SCITEGIC>MOL_PROPERTY
VConf Rank
SciTegic.value.IntegerValue
280

@<SCITEGIC>MOL_PROPERTY
Conf_Id
SciTegic.value.IntegerValue
45

@<SCITEGIC>MOL_PROPERTY
Delta U+W
SciTegic.value.DoubleValue
2.303

@<SCITEGIC>MOL_PROPERTY
U+W
SciTegic.value.DoubleValue
-54.601

@<SCITEGIC>MOL_PROPERTY
Grad RMS
SciTegic.value.DoubleValue
0.000000

@<SCITEGIC>MOL_PROPERTY
U
SciTegic.value.DoubleValue
11.258

@<SCITEGIC>MOL_PROPERTY
W
SciTegic.value.DoubleValue
-65.860

@<SCITEGIC>MOL_PROPERTY
W(PB)
SciTegic.value.DoubleValue
-67.709

@<SCITEGIC>MOL_PROPERTY
W(SA)
SciTegic.value.DoubleValue
1.849

@<SCITEGIC>MOL_PROPERTY
Valence
SciTegic.value.DoubleValue
8.169

@<SCITEGIC>MOL_PROPERTY
Coulomb
SciTegic.value.DoubleValue
2.735

@<SCITEGIC>MOL_PROPERTY
VdW
SciTegic.value.DoubleValue
0.355

@<SCITEGIC>MOL_PROPERTY
VdW6
SciTegic.value.DoubleValue
-6.245

@<SCITEGIC>MOL_PROPERTY
VdW12
SciTegic.value.DoubleValue
6.600

@<SCITEGIC>MOL_PROPERTY
Bond
SciTegic.value.DoubleValue
0.149

@<SCITEGIC>MOL_PROPERTY
Angle
SciTegic.value.DoubleValue
3.168

@<SCITEGIC>MOL_PROPERTY
Pdih
SciTegic.value.DoubleValue
4.840

@<SCITEGIC>MOL_PROPERTY
Idih
SciTegic.value.DoubleValue
0.011

@<SCITEGIC>MOL_PROPERTY
Tether
SciTegic.value.DoubleValue
0.000

@<TRIPOS>MOLECULE
guest-s18_confgen4.mol2 : confsearch ligand conformer 281
          16          15           1
SMALL
USER_CHARGES
 
@<TRIPOS>ATOM
       1    C1      20.174943   21.163342   20.081224 C.2        1 MOL1         0.6075
       2    O1      21.390448   21.178454   20.071448 O.co2      1 MOL1        -0.6830
       3    O2      19.497923   21.910249   19.403665 O.co2      1 MOL1        -0.6830
       4    C2      19.434210   20.169695   20.977815 C.3        1 MOL1        -0.2050
       5    H1      18.784574   19.567320   20.331844 H          1 MOL1         0.0710
       6    H2      18.779842   20.750188   21.638869 H          1 MOL1         0.0710
       7    C3      20.340102   19.237079   21.825126 C.3        1 MOL1        -0.1947
       8    H3      20.997093   18.662165   21.157813 H          1 MOL1         0.0712
       9    H4      20.992340   19.846252   22.466191 H          1 MOL1         0.0712
      10    C4      19.511689   18.270275   22.697067 C.3        1 MOL1        -0.1921
      11    H5      18.860216   17.659207   22.057005 H          1 MOL1         0.0712
      12    H6      18.855453   18.843993   23.366172 H          1 MOL1         0.0712
      13    C5      20.416848   17.346783   23.536108 C.3        1 MOL1        -0.2936
      14    H7      21.062810   16.737622   22.890257 H          1 MOL1         0.0724
      15    H8      19.812423   16.666214   24.149816 H          1 MOL1         0.0724
      16    H9      21.058014   17.931144   24.209085 H          1 MOL1         0.0724
@<TRIPOS>BOND
    1     1     2    1
    2     1     3    2
    3     1     4    1
    4     4     5    1
    5     4     6    1
    6     4     7    1
    7     7     8    1
    8     7     9    1
    9     7    10    1
   10    10    11    1
   11    10    12    1
   12    10    13    1
   13    13    14    1
   14    13    15    1
   15    13    16    1
@<TRIPOS>SUBSTRUCTURE
       1 MOL1            1 RESIDUE      1      MOL     
@<SCITEGIC>MOL_PROPERTY
VConf Rank
SciTegic.value.IntegerValue
281

@<SCITEGIC>MOL_PROPERTY
Conf_Id
SciTegic.value.IntegerValue
0

@<SCITEGIC>MOL_PROPERTY
Delta U+W
SciTegic.value.DoubleValue
0.000

@<SCITEGIC>MOL_PROPERTY
U+W
SciTegic.value.DoubleValue
-56.904

@<SCITEGIC>MOL_PROPERTY
Grad RMS
SciTegic.value.DoubleValue
0.000000

@<SCITEGIC>MOL_PROPERTY
U
SciTegic.value.DoubleValue
7.329

@<SCITEGIC>MOL_PROPERTY
W
SciTegic.value.DoubleValue
-64.233

@<SCITEGIC>MOL_PROPERTY
W(PB)
SciTegic.value.DoubleValue
-66.148

@<SCITEGIC>MOL_PROPERTY
W(SA)
SciTegic.value.DoubleValue
1.915

@<SCITEGIC>MOL_PROPERTY
Valence
SciTegic.value.DoubleValue
6.755

@<SCITEGIC>MOL_PROPERTY
Coulomb
SciTegic.value.DoubleValue
-0.421

@<SCITEGIC>MOL_PROPERTY
VdW
SciTegic.value.DoubleValue
0.995

@<SCITEGIC>MOL_PROPERTY
VdW6
SciTegic.value.DoubleValue
-4.495

@<SCITEGIC>MOL_PROPERTY
VdW12
SciTegic.value.DoubleValue
5.490

@<SCITEGIC>MOL_PROPERTY
Bond
SciTegic.value.DoubleValue
0.106

@<SCITEGIC>MOL_PROPERTY
Angle
SciTegic.value.DoubleValue
2.715

@<SCITEGIC>MOL_PROPERTY
Pdih
SciTegic.value.DoubleValue
3.934

@<SCITEGIC>MOL_PROPERTY
Idih
SciTegic.value.DoubleValue
0.000

@<SCITEGIC>MOL_PROPERTY
Tether
SciTegic.value.DoubleValue
0.000

@<TRIPOS>MOLECULE
guest-s18_confgen4.mol2 : confsearch ligand conformer 282
          16          15           1
SMALL
USER_CHARGES
 
@<TRIPOS>ATOM
       1    C1      20.005488   19.289312   24.669242 C.2        1 MOL1         0.6075
       2    O1      19.622490   20.354758   25.109674 O.co2      1 MOL1        -0.6830
       3    O2      19.848077   18.229694   25.242197 O.co2      1 MOL1        -0.6830
       4    C2      20.705867   19.279210   23.315009 C.3        1 MOL1        -0.2050
       5    H1      21.444651   18.468636   23.319160 H          1 MOL1         0.0710
       6    H2      21.258557   20.220659   23.209846 H          1 MOL1         0.0710
       7    C3      19.724650   19.101069   22.130298 C.3        1 MOL1        -0.1947
       8    H3      19.170244   18.160697   22.256336 H          1 MOL1         0.0712
       9    H4      18.984094   19.912764   22.147052 H          1 MOL1         0.0712
      10    C4      20.458391   19.094366   20.773044 C.3        1 MOL1        -0.1921
      11    H5      21.198578   18.282357   20.755641 H          1 MOL1         0.0712
      12    H6      21.012414   20.034867   20.646344 H          1 MOL1         0.0712
      13    C5      19.475756   18.916748   19.598744 C.3        1 MOL1        -0.2936
      14    H7      18.742307   19.733375   19.573362 H          1 MOL1         0.0724
      15    H8      18.929829   17.967930   19.683480 H          1 MOL1         0.0724
      16    H9      20.013351   18.914152   18.641595 H          1 MOL1         0.0724
@<TRIPOS>BOND
    1     1     2    1
    2     1     3    2
    3     1     4    1
    4     4     5    1
    5     4     6    1
    6     4     7    1
    7     7     8    1
    8     7     9    1
    9     7    10    1
   10    10    11    1
   11    10    12    1
   12    10    13    1
   13    13    14    1
   14    13    15    1
   15    13    16    1
@<TRIPOS>SUBSTRUCTURE
       1 MOL1            1 RESIDUE      1      MOL     
@<SCITEGIC>MOL_PROPERTY
VConf Rank
SciTegic.value.IntegerValue
282

@<SCITEGIC>MOL_PROPERTY
Conf_Id
SciTegic.value.IntegerValue
22

@<SCITEGIC>MOL_PROPERTY
Delta U+W
SciTegic.value.DoubleValue
-1.185

@<SCITEGIC>MOL_PROPERTY
U+W
SciTegic.value.DoubleValue
-58.089

@<SCITEGIC>MOL_PROPERTY
Grad RMS
SciTegic.value.DoubleValue
0.000000

@<SCITEGIC>MOL_PROPERTY
U
SciTegic.value.DoubleValue
6.298

@<SCITEGIC>MOL_PROPERTY
W
SciTegic.value.DoubleValue
-64.387

@<SCITEGIC>MOL_PROPERTY
W(PB)
SciTegic.value.DoubleValue
-66.329

@<SCITEGIC>MOL_PROPERTY
W(SA)
SciTegic.value.DoubleValue
1.942

@<SCITEGIC>MOL_PROPERTY
Valence
SciTegic.value.DoubleValue
6.246

@<SCITEGIC>MOL_PROPERTY
Coulomb
SciTegic.value.DoubleValue
-0.408

@<SCITEGIC>MOL_PROPERTY
VdW
SciTegic.value.DoubleValue
0.460

@<SCITEGIC>MOL_PROPERTY
VdW6
SciTegic.value.DoubleValue
-4.207

@<SCITEGIC>MOL_PROPERTY
VdW12
SciTegic.value.DoubleValue
4.667

@<SCITEGIC>MOL_PROPERTY
Bond
SciTegic.value.DoubleValue
0.072

@<SCITEGIC>MOL_PROPERTY
Angle
SciTegic.value.DoubleValue
2.246

@<SCITEGIC>MOL_PROPERTY
Pdih
SciTegic.value.DoubleValue
3.928

@<SCITEGIC>MOL_PROPERTY
Idih
SciTegic.value.DoubleValue
0.001

@<SCITEGIC>MOL_PROPERTY
Tether
SciTegic.value.DoubleValue
0.000

@<TRIPOS>MOLECULE
guest-s18_confgen4.mol2 : confsearch ligand conformer 283
          16          15           1
SMALL
USER_CHARGES
 
@<TRIPOS>ATOM
       1    C1      20.932762   16.749496   22.131343 C.2        1 MOL1         0.6075
       2    O1      20.287571   15.811547   22.555577 O.co2      1 MOL1        -0.6830
       3    O2      22.146640   16.762664   22.083565 O.co2      1 MOL1        -0.6830
       4    C2      20.178472   17.984640   21.651722 C.3        1 MOL1        -0.2050
       5    H1      19.220550   17.656475   21.230700 H          1 MOL1         0.0710
       6    H2      20.755911   18.433021   20.835245 H          1 MOL1         0.0710
       7    C3      19.938900   19.019197   22.781895 C.3        1 MOL1        -0.1947
       8    H3      19.435818   18.516839   23.619733 H          1 MOL1         0.0712
       9    H4      20.905670   19.372256   23.166620 H          1 MOL1         0.0712
      10    C4      19.080679   20.226601   22.339131 C.3        1 MOL1        -0.1921
      11    H5      18.867746   20.849976   23.218547 H          1 MOL1         0.0712
      12    H6      18.109250   19.874518   21.965306 H          1 MOL1         0.0712
      13    C5      19.765202   21.098619   21.264912 C.3        1 MOL1        -0.2936
      14    H7      19.895673   20.547968   20.324942 H          1 MOL1         0.0724
      15    H8      20.751947   21.438820   21.605276 H          1 MOL1         0.0724
      16    H9      19.157926   21.986937   21.047854 H          1 MOL1         0.0724
@<TRIPOS>BOND
    1     1     2    1
    2     1     3    2
    3     1     4    1
    4     4     5    1
    5     4     6    1
    6     4     7    1
    7     7     8    1
    8     7     9    1
    9     7    10    1
   10    10    11    1
   11    10    12    1
   12    10    13    1
   13    13    14    1
   14    13    15    1
   15    13    16    1
@<TRIPOS>SUBSTRUCTURE
       1 MOL1            1 RESIDUE      1      MOL     
@<SCITEGIC>MOL_PROPERTY
VConf Rank
SciTegic.value.IntegerValue
283

@<SCITEGIC>MOL_PROPERTY
Conf_Id
SciTegic.value.IntegerValue
36

@<SCITEGIC>MOL_PROPERTY
Delta U+W
SciTegic.value.DoubleValue
-0.427

@<SCITEGIC>MOL_PROPERTY
U+W
SciTegic.value.DoubleValue
-57.331

@<SCITEGIC>MOL_PROPERTY
Grad RMS
SciTegic.value.DoubleValue
0.000000

@<SCITEGIC>MOL_PROPERTY
U
SciTegic.value.DoubleValue
7.263

@<SCITEGIC>MOL_PROPERTY
W
SciTegic.value.DoubleValue
-64.594

@<SCITEGIC>MOL_PROPERTY
W(PB)
SciTegic.value.DoubleValue
-66.513

@<SCITEGIC>MOL_PROPERTY
W(SA)
SciTegic.value.DoubleValue
1.920

@<SCITEGIC>MOL_PROPERTY
Valence
SciTegic.value.DoubleValue
6.734

@<SCITEGIC>MOL_PROPERTY
Coulomb
SciTegic.value.DoubleValue
-0.068

@<SCITEGIC>MOL_PROPERTY
VdW
SciTegic.value.DoubleValue
0.598

@<SCITEGIC>MOL_PROPERTY
VdW6
SciTegic.value.DoubleValue
-4.819

@<SCITEGIC>MOL_PROPERTY
VdW12
SciTegic.value.DoubleValue
5.417

@<SCITEGIC>MOL_PROPERTY
Bond
SciTegic.value.DoubleValue
0.107

@<SCITEGIC>MOL_PROPERTY
Angle
SciTegic.value.DoubleValue
2.469

@<SCITEGIC>MOL_PROPERTY
Pdih
SciTegic.value.DoubleValue
4.157

@<SCITEGIC>MOL_PROPERTY
Idih
SciTegic.value.DoubleValue
0.001

@<SCITEGIC>MOL_PROPERTY
Tether
SciTegic.value.DoubleValue
0.000

@<TRIPOS>MOLECULE
guest-s18_confgen4.mol2 : confsearch ligand conformer 284
          16          15           1
SMALL
USER_CHARGES
 
@<TRIPOS>ATOM
       1    C1      21.786093   18.643016   23.759140 C.2        1 MOL1         0.6075
       2    O1      22.896013   18.666690   23.265708 O.co2      1 MOL1        -0.6830
       3    O2      21.533556   18.104679   24.818580 O.co2      1 MOL1        -0.6830
       4    C2      20.644033   19.307363   22.998276 C.3        1 MOL1        -0.2050
       5    H1      21.057377   20.166671   22.458043 H          1 MOL1         0.0710
       6    H2      19.928102   19.697789   23.731472 H          1 MOL1         0.0710
       7    C3      19.931135   18.339374   22.018597 C.3        1 MOL1        -0.1947
       8    H3      20.648053   17.988273   21.263569 H          1 MOL1         0.0712
       9    H4      19.605647   17.449733   22.575396 H          1 MOL1         0.0712
      10    C4      18.702003   18.965477   21.320288 C.3        1 MOL1        -0.1921
      11    H5      17.979634   19.306042   22.074992 H          1 MOL1         0.0712
      12    H6      18.194673   18.187235   20.733546 H          1 MOL1         0.0712
      13    C5      19.065521   20.137387   20.383586 C.3        1 MOL1        -0.2936
      14    H7      19.473279   20.987484   20.944701 H          1 MOL1         0.0724
      15    H8      18.175110   20.490002   19.847080 H          1 MOL1         0.0724
      16    H9      19.809059   19.827924   19.637506 H          1 MOL1         0.0724
@<TRIPOS>BOND
    1     1     2    1
    2     1     3    2
    3     1     4    1
    4     4     5    1
    5     4     6    1
    6     4     7    1
    7     7     8    1
    8     7     9    1
    9     7    10    1
   10    10    11    1
   11    10    12    1
   12    10    13    1
   13    13    14    1
   14    13    15    1
   15    13    16    1
@<TRIPOS>SUBSTRUCTURE
       1 MOL1            1 RESIDUE      1      MOL     
@<SCITEGIC>MOL_PROPERTY
VConf Rank
SciTegic.value.IntegerValue
284

@<SCITEGIC>MOL_PROPERTY
Conf_Id
SciTegic.value.IntegerValue
17

@<SCITEGIC>MOL_PROPERTY
Delta U+W
SciTegic.value.DoubleValue
-0.432

@<SCITEGIC>MOL_PROPERTY
U+W
SciTegic.value.DoubleValue
-57.336

@<SCITEGIC>MOL_PROPERTY
Grad RMS
SciTegic.value.DoubleValue
0.000000

@<SCITEGIC>MOL_PROPERTY
U
SciTegic.value.DoubleValue
7.263

@<SCITEGIC>MOL_PROPERTY
W
SciTegic.value.DoubleValue
-64.599

@<SCITEGIC>MOL_PROPERTY
W(PB)
SciTegic.value.DoubleValue
-66.503

@<SCITEGIC>MOL_PROPERTY
W(SA)
SciTegic.value.DoubleValue
1.904

@<SCITEGIC>MOL_PROPERTY
Valence
SciTegic.value.DoubleValue
6.734

@<SCITEGIC>MOL_PROPERTY
Coulomb
SciTegic.value.DoubleValue
-0.068

@<SCITEGIC>MOL_PROPERTY
VdW
SciTegic.value.DoubleValue
0.598

@<SCITEGIC>MOL_PROPERTY
VdW6
SciTegic.value.DoubleValue
-4.819

@<SCITEGIC>MOL_PROPERTY
VdW12
SciTegic.value.DoubleValue
5.417

@<SCITEGIC>MOL_PROPERTY
Bond
SciTegic.value.DoubleValue
0.107

@<SCITEGIC>MOL_PROPERTY
Angle
SciTegic.value.DoubleValue
2.469

@<SCITEGIC>MOL_PROPERTY
Pdih
SciTegic.value.DoubleValue
4.157

@<SCITEGIC>MOL_PROPERTY
Idih
SciTegic.value.DoubleValue
0.001

@<SCITEGIC>MOL_PROPERTY
Tether
SciTegic.value.DoubleValue
0.000

@<TRIPOS>MOLECULE
guest-s18_confgen4.mol2 : confsearch ligand conformer 285
          16          15           1
SMALL
USER_CHARGES
 
@<TRIPOS>ATOM
       1    C1      19.483263   20.437143   20.223517 C.2        1 MOL1         0.6075
       2    O1      19.099437   19.775263   19.279624 O.co2      1 MOL1        -0.6830
       3    O2      18.874941   21.391520   20.665524 O.co2      1 MOL1        -0.6830
       4    C2      20.813130   20.062460   20.872023 C.3        1 MOL1        -0.2050
       5    H1      21.179038   20.923649   21.444343 H          1 MOL1         0.0710
       6    H2      21.534514   19.888775   20.064761 H          1 MOL1         0.0710
       7    C3      20.741973   18.807696   21.780614 C.3        1 MOL1        -0.1947
       8    H3      20.347192   17.960978   21.201960 H          1 MOL1         0.0712
       9    H4      21.759758   18.532764   22.088973 H          1 MOL1         0.0712
      10    C4      19.873163   19.032808   23.037069 C.3        1 MOL1        -0.1921
      11    H5      18.846356   19.288694   22.740569 H          1 MOL1         0.0712
      12    H6      20.261696   19.887433   23.608063 H          1 MOL1         0.0712
      13    C5      19.846880   17.782774   23.938772 C.3        1 MOL1        -0.2936
      14    H7      19.433216   16.919596   23.400946 H          1 MOL1         0.0724
      15    H8      19.224936   17.959149   24.826012 H          1 MOL1         0.0724
      16    H9      20.857608   17.522580   24.279570 H          1 MOL1         0.0724
@<TRIPOS>BOND
    1     1     2    1
    2     1     3    2
    3     1     4    1
    4     4     5    1
    5     4     6    1
    6     4     7    1
    7     7     8    1
    8     7     9    1
    9     7    10    1
   10    10    11    1
   11    10    12    1
   12    10    13    1
   13    13    14    1
   14    13    15    1
   15    13    16    1
@<TRIPOS>SUBSTRUCTURE
       1 MOL1            1 RESIDUE      1      MOL     
@<SCITEGIC>MOL_PROPERTY
VConf Rank
SciTegic.value.IntegerValue
285

@<SCITEGIC>MOL_PROPERTY
Conf_Id
SciTegic.value.IntegerValue
19

@<SCITEGIC>MOL_PROPERTY
Delta U+W
SciTegic.value.DoubleValue
0.048

@<SCITEGIC>MOL_PROPERTY
U+W
SciTegic.value.DoubleValue
-56.856

@<SCITEGIC>MOL_PROPERTY
Grad RMS
SciTegic.value.DoubleValue
0.000000

@<SCITEGIC>MOL_PROPERTY
U
SciTegic.value.DoubleValue
8.276

@<SCITEGIC>MOL_PROPERTY
W
SciTegic.value.DoubleValue
-65.132

@<SCITEGIC>MOL_PROPERTY
W(PB)
SciTegic.value.DoubleValue
-67.031

@<SCITEGIC>MOL_PROPERTY
W(SA)
SciTegic.value.DoubleValue
1.899

@<SCITEGIC>MOL_PROPERTY
Valence
SciTegic.value.DoubleValue
6.513

@<SCITEGIC>MOL_PROPERTY
Coulomb
SciTegic.value.DoubleValue
1.428

@<SCITEGIC>MOL_PROPERTY
VdW
SciTegic.value.DoubleValue
0.335

@<SCITEGIC>MOL_PROPERTY
VdW6
SciTegic.value.DoubleValue
-5.021

@<SCITEGIC>MOL_PROPERTY
VdW12
SciTegic.value.DoubleValue
5.356

@<SCITEGIC>MOL_PROPERTY
Bond
SciTegic.value.DoubleValue
0.092

@<SCITEGIC>MOL_PROPERTY
Angle
SciTegic.value.DoubleValue
2.417

@<SCITEGIC>MOL_PROPERTY
Pdih
SciTegic.value.DoubleValue
4.003

@<SCITEGIC>MOL_PROPERTY
Idih
SciTegic.value.DoubleValue
0.001

@<SCITEGIC>MOL_PROPERTY
Tether
SciTegic.value.DoubleValue
0.000

@<TRIPOS>MOLECULE
guest-s18_confgen4.mol2 : confsearch ligand conformer 286
          16          15           1
SMALL
USER_CHARGES
 
@<TRIPOS>ATOM
       1    C1      20.427292   18.115284   24.138612 C.2        1 MOL1         0.6075
       2    O1      21.268281   17.245633   24.025536 O.co2      1 MOL1        -0.6830
       3    O2      19.385501   17.966484   24.745895 O.co2      1 MOL1        -0.6830
       4    C2      20.707147   19.474258   23.502712 C.3        1 MOL1        -0.2050
       5    H1      21.738208   19.748718   23.755340 H          1 MOL1         0.0710
       6    H2      20.056001   20.221747   23.972130 H          1 MOL1         0.0710
       7    C3      20.527775   19.500424   21.962522 C.3        1 MOL1        -0.1947
       8    H3      20.881419   20.467028   21.578892 H          1 MOL1         0.0712
       9    H4      21.164138   18.728005   21.508614 H          1 MOL1         0.0712
      10    C4      19.060206   19.288410   21.531847 C.3        1 MOL1        -0.1921
      11    H5      18.423363   20.053964   21.996320 H          1 MOL1         0.0712
      12    H6      18.701650   18.314391   21.893024 H          1 MOL1         0.0712
      13    C5      18.904823   19.352565   19.999499 C.3        1 MOL1        -0.2936
      14    H7      19.223703   20.329311   19.612592 H          1 MOL1         0.0724
      15    H8      17.856950   19.199174   19.710448 H          1 MOL1         0.0724
      16    H9      19.508343   18.576279   19.511037 H          1 MOL1         0.0724
@<TRIPOS>BOND
    1     1     2    1
    2     1     3    2
    3     1     4    1
    4     4     5    1
    5     4     6    1
    6     4     7    1
    7     7     8    1
    8     7     9    1
    9     7    10    1
   10    10    11    1
   11    10    12    1
   12    10    13    1
   13    13    14    1
   14    13    15    1
   15    13    16    1
@<TRIPOS>SUBSTRUCTURE
       1 MOL1            1 RESIDUE      1      MOL     
@<SCITEGIC>MOL_PROPERTY
VConf Rank
SciTegic.value.IntegerValue
286

@<SCITEGIC>MOL_PROPERTY
Conf_Id
SciTegic.value.IntegerValue
20

@<SCITEGIC>MOL_PROPERTY
Delta U+W
SciTegic.value.DoubleValue
-0.010

@<SCITEGIC>MOL_PROPERTY
U+W
SciTegic.value.DoubleValue
-56.914

@<SCITEGIC>MOL_PROPERTY
Grad RMS
SciTegic.value.DoubleValue
0.000000

@<SCITEGIC>MOL_PROPERTY
U
SciTegic.value.DoubleValue
8.277

@<SCITEGIC>MOL_PROPERTY
W
SciTegic.value.DoubleValue
-65.191

@<SCITEGIC>MOL_PROPERTY
W(PB)
SciTegic.value.DoubleValue
-67.081

@<SCITEGIC>MOL_PROPERTY
W(SA)
SciTegic.value.DoubleValue
1.890

@<SCITEGIC>MOL_PROPERTY
Valence
SciTegic.value.DoubleValue
6.513

@<SCITEGIC>MOL_PROPERTY
Coulomb
SciTegic.value.DoubleValue
1.429

@<SCITEGIC>MOL_PROPERTY
VdW
SciTegic.value.DoubleValue
0.335

@<SCITEGIC>MOL_PROPERTY
VdW6
SciTegic.value.DoubleValue
-5.021

@<SCITEGIC>MOL_PROPERTY
VdW12
SciTegic.value.DoubleValue
5.356

@<SCITEGIC>MOL_PROPERTY
Bond
SciTegic.value.DoubleValue
0.092

@<SCITEGIC>MOL_PROPERTY
Angle
SciTegic.value.DoubleValue
2.417

@<SCITEGIC>MOL_PROPERTY
Pdih
SciTegic.value.DoubleValue
4.002

@<SCITEGIC>MOL_PROPERTY
Idih
SciTegic.value.DoubleValue
0.001

@<SCITEGIC>MOL_PROPERTY
Tether
SciTegic.value.DoubleValue
0.000

@<TRIPOS>MOLECULE
guest-s18_confgen4.mol2 : confsearch ligand conformer 287
          16          15           1
SMALL
USER_CHARGES
 
@<TRIPOS>ATOM
       1    C1      18.099107   20.297024   22.638260 C.2        1 MOL1         0.6075
       2    O1      17.067947   20.214761   22.000507 O.co2      1 MOL1        -0.6830
       3    O2      18.597534   21.353278   22.973222 O.co2      1 MOL1        -0.6830
       4    C2      18.784001   19.002814   23.069170 C.3        1 MOL1        -0.2050
       5    H1      18.021889   18.373671   23.543769 H          1 MOL1         0.0710
       6    H2      19.520913   19.236415   23.846112 H          1 MOL1         0.0710
       7    C3      19.446267   18.215724   21.905309 C.3        1 MOL1        -0.1947
       8    H3      19.841313   17.266414   22.291471 H          1 MOL1         0.0712
       9    H4      18.671470   17.951476   21.172358 H          1 MOL1         0.0712
      10    C4      20.579075   18.981301   21.181000 C.3        1 MOL1        -0.1921
      11    H5      20.188120   19.917821   20.759475 H          1 MOL1         0.0712
      12    H6      20.922948   18.378739   20.329062 H          1 MOL1         0.0712
      13    C5      21.785883   19.288567   22.092947 C.3        1 MOL1        -0.2936
      14    H7      21.512981   19.990594   22.891176 H          1 MOL1         0.0724
      15    H8      22.598265   19.745407   21.513126 H          1 MOL1         0.0724
      16    H9      22.173887   18.371743   22.555497 H          1 MOL1         0.0724
@<TRIPOS>BOND
    1     1     2    1
    2     1     3    2
    3     1     4    1
    4     4     5    1
    5     4     6    1
    6     4     7    1
    7     7     8    1
    8     7     9    1
    9     7    10    1
   10    10    11    1
   11    10    12    1
   12    10    13    1
   13    13    14    1
   14    13    15    1
   15    13    16    1
@<TRIPOS>SUBSTRUCTURE
       1 MOL1            1 RESIDUE      1      MOL     
@<SCITEGIC>MOL_PROPERTY
VConf Rank
SciTegic.value.IntegerValue
287

@<SCITEGIC>MOL_PROPERTY
Conf_Id
SciTegic.value.IntegerValue
37

@<SCITEGIC>MOL_PROPERTY
Delta U+W
SciTegic.value.DoubleValue
1.063

@<SCITEGIC>MOL_PROPERTY
U+W
SciTegic.value.DoubleValue
-55.841

@<SCITEGIC>MOL_PROPERTY
Grad RMS
SciTegic.value.DoubleValue
0.000000

@<SCITEGIC>MOL_PROPERTY
U
SciTegic.value.DoubleValue
9.719

@<SCITEGIC>MOL_PROPERTY
W
SciTegic.value.DoubleValue
-65.560

@<SCITEGIC>MOL_PROPERTY
W(PB)
SciTegic.value.DoubleValue
-67.414

@<SCITEGIC>MOL_PROPERTY
W(SA)
SciTegic.value.DoubleValue
1.854

@<SCITEGIC>MOL_PROPERTY
Valence
SciTegic.value.DoubleValue
7.002

@<SCITEGIC>MOL_PROPERTY
Coulomb
SciTegic.value.DoubleValue
2.402

@<SCITEGIC>MOL_PROPERTY
VdW
SciTegic.value.DoubleValue
0.314

@<SCITEGIC>MOL_PROPERTY
VdW6
SciTegic.value.DoubleValue
-5.861

@<SCITEGIC>MOL_PROPERTY
VdW12
SciTegic.value.DoubleValue
6.175

@<SCITEGIC>MOL_PROPERTY
Bond
SciTegic.value.DoubleValue
0.134

@<SCITEGIC>MOL_PROPERTY
Angle
SciTegic.value.DoubleValue
2.733

@<SCITEGIC>MOL_PROPERTY
Pdih
SciTegic.value.DoubleValue
4.133

@<SCITEGIC>MOL_PROPERTY
Idih
SciTegic.value.DoubleValue
0.002

@<SCITEGIC>MOL_PROPERTY
Tether
SciTegic.value.DoubleValue
0.000

@<TRIPOS>MOLECULE
guest-s18_confgen4.mol2 : confsearch ligand conformer 288
          16          15           1
SMALL
USER_CHARGES
 
@<TRIPOS>ATOM
       1    C1      20.244086   17.440482   23.489166 C.2        1 MOL1         0.6075
       2    O1      19.805756   16.344852   23.198916 O.co2      1 MOL1        -0.6830
       3    O2      21.339211   17.614112   23.986011 O.co2      1 MOL1        -0.6830
       4    C2      19.355844   18.658050   23.247711 C.3        1 MOL1        -0.2050
       5    H1      19.768547   19.509888   23.800249 H          1 MOL1         0.0710
       6    H2      18.378740   18.442049   23.695477 H          1 MOL1         0.0710
       7    C3      19.164434   19.018461   21.748997 C.3        1 MOL1        -0.1947
       8    H3      18.700225   18.164083   21.237232 H          1 MOL1         0.0712
       9    H4      18.452235   19.850561   21.666821 H          1 MOL1         0.0712
      10    C4      20.471826   19.392840   21.011055 C.3        1 MOL1        -0.1921
      11    H5      20.244105   19.548283   19.947519 H          1 MOL1         0.0712
      12    H6      21.180563   18.554233   21.056081 H          1 MOL1         0.0712
      13    C5      21.141836   20.666856   21.568201 C.3        1 MOL1        -0.2936
      14    H7      20.442175   21.512751   21.567215 H          1 MOL1         0.0724
      15    H8      22.008941   20.943777   20.954763 H          1 MOL1         0.0724
      16    H9      21.497774   20.512869   22.594886 H          1 MOL1         0.0724
@<TRIPOS>BOND
    1     1     2    1
    2     1     3    2
    3     1     4    1
    4     4     5    1
    5     4     6    1
    6     4     7    1
    7     7     8    1
    8     7     9    1
    9     7    10    1
   10    10    11    1
   11    10    12    1
   12    10    13    1
   13    13    14    1
   14    13    15    1
   15    13    16    1
@<TRIPOS>SUBSTRUCTURE
       1 MOL1            1 RESIDUE      1      MOL     
@<SCITEGIC>MOL_PROPERTY
VConf Rank
SciTegic.value.IntegerValue
288

@<SCITEGIC>MOL_PROPERTY
Conf_Id
SciTegic.value.IntegerValue
39

@<SCITEGIC>MOL_PROPERTY
Delta U+W
SciTegic.value.DoubleValue
1.129

@<SCITEGIC>MOL_PROPERTY
U+W
SciTegic.value.DoubleValue
-55.775

@<SCITEGIC>MOL_PROPERTY
Grad RMS
SciTegic.value.DoubleValue
0.000000

@<SCITEGIC>MOL_PROPERTY
U
SciTegic.value.DoubleValue
9.718

@<SCITEGIC>MOL_PROPERTY
W
SciTegic.value.DoubleValue
-65.493

@<SCITEGIC>MOL_PROPERTY
W(PB)
SciTegic.value.DoubleValue
-67.361

@<SCITEGIC>MOL_PROPERTY
W(SA)
SciTegic.value.DoubleValue
1.869

@<SCITEGIC>MOL_PROPERTY
Valence
SciTegic.value.DoubleValue
7.002

@<SCITEGIC>MOL_PROPERTY
Coulomb
SciTegic.value.DoubleValue
2.402

@<SCITEGIC>MOL_PROPERTY
VdW
SciTegic.value.DoubleValue
0.314

@<SCITEGIC>MOL_PROPERTY
VdW6
SciTegic.value.DoubleValue
-5.861

@<SCITEGIC>MOL_PROPERTY
VdW12
SciTegic.value.DoubleValue
6.175

@<SCITEGIC>MOL_PROPERTY
Bond
SciTegic.value.DoubleValue
0.134

@<SCITEGIC>MOL_PROPERTY
Angle
SciTegic.value.DoubleValue
2.734

@<SCITEGIC>MOL_PROPERTY
Pdih
SciTegic.value.DoubleValue
4.133

@<SCITEGIC>MOL_PROPERTY
Idih
SciTegic.value.DoubleValue
0.002

@<SCITEGIC>MOL_PROPERTY
Tether
SciTegic.value.DoubleValue
0.000

@<TRIPOS>MOLECULE
guest-s18_confgen4.mol2 : confsearch ligand conformer 289
          16          15           1
SMALL
USER_CHARGES
 
@<TRIPOS>ATOM
       1    C1      20.761529   18.177339   23.825600 C.2        1 MOL1         0.6075
       2    O1      20.030651   18.180461   24.796490 O.co2      1 MOL1        -0.6830
       3    O2      21.930385   18.507751   23.867557 O.co2      1 MOL1        -0.6830
       4    C2      20.205207   17.645264   22.506108 C.3        1 MOL1        -0.2050
       5    H1      19.169679   17.318769   22.661222 H          1 MOL1         0.0710
       6    H2      20.784646   16.745928   22.266952 H          1 MOL1         0.0710
       7    C3      20.284449   18.630559   21.306151 C.3        1 MOL1        -0.1947
       8    H3      21.272455   19.110906   21.280617 H          1 MOL1         0.0712
       9    H4      20.209053   18.044111   20.380491 H          1 MOL1         0.0712
      10    C4      19.170482   19.704684   21.276255 C.3        1 MOL1        -0.1921
      11    H5      18.184542   19.220546   21.303890 H          1 MOL1         0.0712
      12    H6      19.226240   20.236186   20.316209 H          1 MOL1         0.0712
      13    C5      19.272078   20.740666   22.414985 C.3        1 MOL1        -0.2936
      14    H7      19.057826   20.285335   23.389547 H          1 MOL1         0.0724
      15    H8      18.547129   21.550659   22.262902 H          1 MOL1         0.0724
      16    H9      20.274940   21.185655   22.454766 H          1 MOL1         0.0724
@<TRIPOS>BOND
    1     1     2    1
    2     1     3    2
    3     1     4    1
    4     4     5    1
    5     4     6    1
    6     4     7    1
    7     7     8    1
    8     7     9    1
    9     7    10    1
   10    10    11    1
   11    10    12    1
   12    10    13    1
   13    13    14    1
   14    13    15    1
   15    13    16    1
@<TRIPOS>SUBSTRUCTURE
       1 MOL1            1 RESIDUE      1      MOL     
@<SCITEGIC>MOL_PROPERTY
VConf Rank
SciTegic.value.IntegerValue
289

@<SCITEGIC>MOL_PROPERTY
Conf_Id
SciTegic.value.IntegerValue
47

@<SCITEGIC>MOL_PROPERTY
Delta U+W
SciTegic.value.DoubleValue
2.301

@<SCITEGIC>MOL_PROPERTY
U+W
SciTegic.value.DoubleValue
-54.603

@<SCITEGIC>MOL_PROPERTY
Grad RMS
SciTegic.value.DoubleValue
0.000000

@<SCITEGIC>MOL_PROPERTY
U
SciTegic.value.DoubleValue
11.258

@<SCITEGIC>MOL_PROPERTY
W
SciTegic.value.DoubleValue
-65.861

@<SCITEGIC>MOL_PROPERTY
W(PB)
SciTegic.value.DoubleValue
-67.702

@<SCITEGIC>MOL_PROPERTY
W(SA)
SciTegic.value.DoubleValue
1.841

@<SCITEGIC>MOL_PROPERTY
Valence
SciTegic.value.DoubleValue
8.169

@<SCITEGIC>MOL_PROPERTY
Coulomb
SciTegic.value.DoubleValue
2.735

@<SCITEGIC>MOL_PROPERTY
VdW
SciTegic.value.DoubleValue
0.355

@<SCITEGIC>MOL_PROPERTY
VdW6
SciTegic.value.DoubleValue
-6.245

@<SCITEGIC>MOL_PROPERTY
VdW12
SciTegic.value.DoubleValue
6.600

@<SCITEGIC>MOL_PROPERTY
Bond
SciTegic.value.DoubleValue
0.149

@<SCITEGIC>MOL_PROPERTY
Angle
SciTegic.value.DoubleValue
3.168

@<SCITEGIC>MOL_PROPERTY
Pdih
SciTegic.value.DoubleValue
4.840

@<SCITEGIC>MOL_PROPERTY
Idih
SciTegic.value.DoubleValue
0.011

@<SCITEGIC>MOL_PROPERTY
Tether
SciTegic.value.DoubleValue
0.000

@<TRIPOS>MOLECULE
guest-s18_confgen4.mol2 : confsearch ligand conformer 290
          16          15           1
SMALL
USER_CHARGES
 
@<TRIPOS>ATOM
       1    C1      21.852858   19.278372   22.049177 C.2        1 MOL1         0.6075
       2    O1      22.174728   20.426275   22.285558 O.co2      1 MOL1        -0.6830
       3    O2      22.242268   18.661494   21.077251 O.co2      1 MOL1        -0.6830
       4    C2      20.987562   18.542851   23.070910 C.3        1 MOL1        -0.2050
       5    H1      21.567331   18.511113   24.000754 H          1 MOL1         0.0710
       6    H2      20.858392   17.503098   22.746552 H          1 MOL1         0.0710
       7    C3      19.604724   19.191693   23.360310 C.3        1 MOL1        -0.1947
       8    H3      19.248476   18.813047   24.327868 H          1 MOL1         0.0712
       9    H4      19.719049   20.277628   23.483664 H          1 MOL1         0.0712
      10    C4      18.514195   18.888751   22.304596 C.3        1 MOL1        -0.1921
      11    H5      17.550916   19.255433   22.685295 H          1 MOL1         0.0712
      12    H6      18.404288   17.802314   22.182910 H          1 MOL1         0.0712
      13    C5      18.777098   19.540853   20.931304 C.3        1 MOL1        -0.2936
      14    H7      17.909775   19.409462   20.271565 H          1 MOL1         0.0724
      15    H8      19.642192   19.087020   20.432659 H          1 MOL1         0.0724
      16    H9      18.964304   20.617613   21.035575 H          1 MOL1         0.0724
@<TRIPOS>BOND
    1     1     2    1
    2     1     3    2
    3     1     4    1
    4     4     5    1
    5     4     6    1
    6     4     7    1
    7     7     8    1
    8     7     9    1
    9     7    10    1
   10    10    11    1
   11    10    12    1
   12    10    13    1
   13    13    14    1
   14    13    15    1
   15    13    16    1
@<TRIPOS>SUBSTRUCTURE
       1 MOL1            1 RESIDUE      1      MOL     
@<SCITEGIC>MOL_PROPERTY
VConf Rank
SciTegic.value.IntegerValue
290

@<SCITEGIC>MOL_PROPERTY
Conf_Id
SciTegic.value.IntegerValue
45

@<SCITEGIC>MOL_PROPERTY
Delta U+W
SciTegic.value.DoubleValue
2.303

@<SCITEGIC>MOL_PROPERTY
U+W
SciTegic.value.DoubleValue
-54.601

@<SCITEGIC>MOL_PROPERTY
Grad RMS
SciTegic.value.DoubleValue
0.000000

@<SCITEGIC>MOL_PROPERTY
U
SciTegic.value.DoubleValue
11.258

@<SCITEGIC>MOL_PROPERTY
W
SciTegic.value.DoubleValue
-65.860

@<SCITEGIC>MOL_PROPERTY
W(PB)
SciTegic.value.DoubleValue
-67.709

@<SCITEGIC>MOL_PROPERTY
W(SA)
SciTegic.value.DoubleValue
1.849

@<SCITEGIC>MOL_PROPERTY
Valence
SciTegic.value.DoubleValue
8.169

@<SCITEGIC>MOL_PROPERTY
Coulomb
SciTegic.value.DoubleValue
2.735

@<SCITEGIC>MOL_PROPERTY
VdW
SciTegic.value.DoubleValue
0.355

@<SCITEGIC>MOL_PROPERTY
VdW6
SciTegic.value.DoubleValue
-6.245

@<SCITEGIC>MOL_PROPERTY
VdW12
SciTegic.value.DoubleValue
6.600

@<SCITEGIC>MOL_PROPERTY
Bond
SciTegic.value.DoubleValue
0.149

@<SCITEGIC>MOL_PROPERTY
Angle
SciTegic.value.DoubleValue
3.168

@<SCITEGIC>MOL_PROPERTY
Pdih
SciTegic.value.DoubleValue
4.840

@<SCITEGIC>MOL_PROPERTY
Idih
SciTegic.value.DoubleValue
0.011

@<SCITEGIC>MOL_PROPERTY
Tether
SciTegic.value.DoubleValue
0.000

@<TRIPOS>MOLECULE
guest-s18_confgen4.mol2 : confsearch ligand conformer 291
          16          15           1
SMALL
USER_CHARGES
 
@<TRIPOS>ATOM
       1    C1      17.601704   17.754875   21.856761 C.2        1 MOL1         0.6075
       2    O1      18.053585   16.742900   22.356247 O.co2      1 MOL1        -0.6830
       3    O2      16.438774   17.867146   21.524642 O.co2      1 MOL1        -0.6830
       4    C2      18.514318   18.959898   21.622348 C.3        1 MOL1        -0.2050
       5    H1      18.076181   19.811100   22.156812 H          1 MOL1         0.0710
       6    H2      18.474103   19.197719   20.552775 H          1 MOL1         0.0710
       7    C3      19.990649   18.769801   22.061278 C.3        1 MOL1        -0.1947
       8    H3      20.024207   18.526435   23.132313 H          1 MOL1         0.0712
       9    H4      20.422538   17.912436   21.526613 H          1 MOL1         0.0712
      10    C4      20.836893   20.031126   21.788903 C.3        1 MOL1        -0.1921
      11    H5      20.407038   20.888966   22.324473 H          1 MOL1         0.0712
      12    H6      20.805614   20.274610   20.717811 H          1 MOL1         0.0712
      13    C5      22.301920   19.836181   22.226890 C.3        1 MOL1        -0.2936
      14    H7      22.365249   19.622024   23.301876 H          1 MOL1         0.0724
      15    H8      22.889383   20.741628   22.026403 H          1 MOL1         0.0724
      16    H9      22.766772   19.003137   21.683363 H          1 MOL1         0.0724
@<TRIPOS>BOND
    1     1     2    1
    2     1     3    2
    3     1     4    1
    4     4     5    1
    5     4     6    1
    6     4     7    1
    7     7     8    1
    8     7     9    1
    9     7    10    1
   10    10    11    1
   11    10    12    1
   12    10    13    1
   13    13    14    1
   14    13    15    1
   15    13    16    1
@<TRIPOS>SUBSTRUCTURE
       1 MOL1            1 RESIDUE      1      MOL     
@<SCITEGIC>MOL_PROPERTY
VConf Rank
SciTegic.value.IntegerValue
291

@<SCITEGIC>MOL_PROPERTY
Conf_Id
SciTegic.value.IntegerValue
0

@<SCITEGIC>MOL_PROPERTY
Delta U+W
SciTegic.value.DoubleValue
0.000

@<SCITEGIC>MOL_PROPERTY
U+W
SciTegic.value.DoubleValue
-56.904

@<SCITEGIC>MOL_PROPERTY
Grad RMS
SciTegic.value.DoubleValue
0.000000

@<SCITEGIC>MOL_PROPERTY
U
SciTegic.value.DoubleValue
7.329

@<SCITEGIC>MOL_PROPERTY
W
SciTegic.value.DoubleValue
-64.233

@<SCITEGIC>MOL_PROPERTY
W(PB)
SciTegic.value.DoubleValue
-66.148

@<SCITEGIC>MOL_PROPERTY
W(SA)
SciTegic.value.DoubleValue
1.915

@<SCITEGIC>MOL_PROPERTY
Valence
SciTegic.value.DoubleValue
6.755

@<SCITEGIC>MOL_PROPERTY
Coulomb
SciTegic.value.DoubleValue
-0.421

@<SCITEGIC>MOL_PROPERTY
VdW
SciTegic.value.DoubleValue
0.995

@<SCITEGIC>MOL_PROPERTY
VdW6
SciTegic.value.DoubleValue
-4.495

@<SCITEGIC>MOL_PROPERTY
VdW12
SciTegic.value.DoubleValue
5.490

@<SCITEGIC>MOL_PROPERTY
Bond
SciTegic.value.DoubleValue
0.106

@<SCITEGIC>MOL_PROPERTY
Angle
SciTegic.value.DoubleValue
2.715

@<SCITEGIC>MOL_PROPERTY
Pdih
SciTegic.value.DoubleValue
3.934

@<SCITEGIC>MOL_PROPERTY
Idih
SciTegic.value.DoubleValue
0.000

@<SCITEGIC>MOL_PROPERTY
Tether
SciTegic.value.DoubleValue
0.000

@<TRIPOS>MOLECULE
guest-s18_confgen4.mol2 : confsearch ligand conformer 292
          16          15           1
SMALL
USER_CHARGES
 
@<TRIPOS>ATOM
       1    C1      19.936710   21.658971   22.953576 C.2        1 MOL1         0.6075
       2    O1      20.661635   21.855249   23.908460 O.co2      1 MOL1        -0.6830
       3    O2      19.641296   22.517545   22.146467 O.co2      1 MOL1        -0.6830
       4    C2      19.381984   20.253958   22.746697 C.3        1 MOL1        -0.2050
       5    H1      18.393453   20.342860   22.280057 H          1 MOL1         0.0710
       6    H2      19.234781   19.796793   23.732690 H          1 MOL1         0.0710
       7    C3      20.304278   19.363698   21.877863 C.3        1 MOL1        -0.1947
       8    H3      20.451995   19.840602   20.898939 H          1 MOL1         0.0712
       9    H4      21.293391   19.294563   22.351601 H          1 MOL1         0.0712
      10    C4      19.720247   17.948779   21.684283 C.3        1 MOL1        -0.1921
      11    H5      18.731402   18.017454   21.209935 H          1 MOL1         0.0712
      12    H6      19.572978   17.471285   22.662981 H          1 MOL1         0.0712
      13    C5      20.643312   17.068470   20.818773 C.3        1 MOL1        -0.2936
      14    H7      21.630704   16.956888   21.285761 H          1 MOL1         0.0724
      15    H8      20.782931   17.507105   19.821989 H          1 MOL1         0.0724
      16    H9      20.213648   16.066372   20.690948 H          1 MOL1         0.0724
@<TRIPOS>BOND
    1     1     2    1
    2     1     3    2
    3     1     4    1
    4     4     5    1
    5     4     6    1
    6     4     7    1
    7     7     8    1
    8     7     9    1
    9     7    10    1
   10    10    11    1
   11    10    12    1
   12    10    13    1
   13    13    14    1
   14    13    15    1
   15    13    16    1
@<TRIPOS>SUBSTRUCTURE
       1 MOL1            1 RESIDUE      1      MOL     
@<SCITEGIC>MOL_PROPERTY
VConf Rank
SciTegic.value.IntegerValue
292

@<SCITEGIC>MOL_PROPERTY
Conf_Id
SciTegic.value.IntegerValue
22

@<SCITEGIC>MOL_PROPERTY
Delta U+W
SciTegic.value.DoubleValue
-1.185

@<SCITEGIC>MOL_PROPERTY
U+W
SciTegic.value.DoubleValue
-58.089

@<SCITEGIC>MOL_PROPERTY
Grad RMS
SciTegic.value.DoubleValue
0.000000

@<SCITEGIC>MOL_PROPERTY
U
SciTegic.value.DoubleValue
6.298

@<SCITEGIC>MOL_PROPERTY
W
SciTegic.value.DoubleValue
-64.387

@<SCITEGIC>MOL_PROPERTY
W(PB)
SciTegic.value.DoubleValue
-66.329

@<SCITEGIC>MOL_PROPERTY
W(SA)
SciTegic.value.DoubleValue
1.942

@<SCITEGIC>MOL_PROPERTY
Valence
SciTegic.value.DoubleValue
6.246

@<SCITEGIC>MOL_PROPERTY
Coulomb
SciTegic.value.DoubleValue
-0.408

@<SCITEGIC>MOL_PROPERTY
VdW
SciTegic.value.DoubleValue
0.460

@<SCITEGIC>MOL_PROPERTY
VdW6
SciTegic.value.DoubleValue
-4.207

@<SCITEGIC>MOL_PROPERTY
VdW12
SciTegic.value.DoubleValue
4.667

@<SCITEGIC>MOL_PROPERTY
Bond
SciTegic.value.DoubleValue
0.072

@<SCITEGIC>MOL_PROPERTY
Angle
SciTegic.value.DoubleValue
2.246

@<SCITEGIC>MOL_PROPERTY
Pdih
SciTegic.value.DoubleValue
3.928

@<SCITEGIC>MOL_PROPERTY
Idih
SciTegic.value.DoubleValue
0.001

@<SCITEGIC>MOL_PROPERTY
Tether
SciTegic.value.DoubleValue
0.000

@<TRIPOS>MOLECULE
guest-s18_confgen4.mol2 : confsearch ligand conformer 293
          16          15           1
SMALL
USER_CHARGES
 
@<TRIPOS>ATOM
       1    C1      18.174724   18.629465   23.786085 C.2        1 MOL1         0.6075
       2    O1      17.570635   19.505317   24.372561 O.co2      1 MOL1        -0.6830
       3    O2      18.288157   17.495100   24.205974 O.co2      1 MOL1        -0.6830
       4    C2      18.843534   18.978544   22.461166 C.3        1 MOL1        -0.2050
       5    H1      18.236574   19.745323   21.964966 H          1 MOL1         0.0710
       6    H2      18.818643   18.084233   21.828153 H          1 MOL1         0.0710
       7    C3      20.300003   19.481270   22.637111 C.3        1 MOL1        -0.1947
       8    H3      20.300297   20.322460   23.344097 H          1 MOL1         0.0712
       9    H4      20.908148   18.689520   23.096022 H          1 MOL1         0.0712
      10    C4      20.955473   19.943232   21.315234 C.3        1 MOL1        -0.1921
      11    H5      21.936455   20.383036   21.542292 H          1 MOL1         0.0712
      12    H6      20.353715   20.743189   20.862095 H          1 MOL1         0.0712
      13    C5      21.146912   18.797983   20.298037 C.3        1 MOL1        -0.2936
      14    H7      20.183232   18.401642   19.954502 H          1 MOL1         0.0724
      15    H8      21.721856   17.973084   20.738754 H          1 MOL1         0.0724
      16    H9      21.692359   19.156174   19.415318 H          1 MOL1         0.0724
@<TRIPOS>BOND
    1     1     2    1
    2     1     3    2
    3     1     4    1
    4     4     5    1
    5     4     6    1
    6     4     7    1
    7     7     8    1
    8     7     9    1
    9     7    10    1
   10    10    11    1
   11    10    12    1
   12    10    13    1
   13    13    14    1
   14    13    15    1
   15    13    16    1
@<TRIPOS>SUBSTRUCTURE
       1 MOL1            1 RESIDUE      1      MOL     
@<SCITEGIC>MOL_PROPERTY
VConf Rank
SciTegic.value.IntegerValue
293

@<SCITEGIC>MOL_PROPERTY
Conf_Id
SciTegic.value.IntegerValue
36

@<SCITEGIC>MOL_PROPERTY
Delta U+W
SciTegic.value.DoubleValue
-0.427

@<SCITEGIC>MOL_PROPERTY
U+W
SciTegic.value.DoubleValue
-57.331

@<SCITEGIC>MOL_PROPERTY
Grad RMS
SciTegic.value.DoubleValue
0.000000

@<SCITEGIC>MOL_PROPERTY
U
SciTegic.value.DoubleValue
7.263

@<SCITEGIC>MOL_PROPERTY
W
SciTegic.value.DoubleValue
-64.594

@<SCITEGIC>MOL_PROPERTY
W(PB)
SciTegic.value.DoubleValue
-66.513

@<SCITEGIC>MOL_PROPERTY
W(SA)
SciTegic.value.DoubleValue
1.920

@<SCITEGIC>MOL_PROPERTY
Valence
SciTegic.value.DoubleValue
6.734

@<SCITEGIC>MOL_PROPERTY
Coulomb
SciTegic.value.DoubleValue
-0.068

@<SCITEGIC>MOL_PROPERTY
VdW
SciTegic.value.DoubleValue
0.598

@<SCITEGIC>MOL_PROPERTY
VdW6
SciTegic.value.DoubleValue
-4.819

@<SCITEGIC>MOL_PROPERTY
VdW12
SciTegic.value.DoubleValue
5.417

@<SCITEGIC>MOL_PROPERTY
Bond
SciTegic.value.DoubleValue
0.107

@<SCITEGIC>MOL_PROPERTY
Angle
SciTegic.value.DoubleValue
2.469

@<SCITEGIC>MOL_PROPERTY
Pdih
SciTegic.value.DoubleValue
4.157

@<SCITEGIC>MOL_PROPERTY
Idih
SciTegic.value.DoubleValue
0.001

@<SCITEGIC>MOL_PROPERTY
Tether
SciTegic.value.DoubleValue
0.000

@<TRIPOS>MOLECULE
guest-s18_confgen4.mol2 : confsearch ligand conformer 294
          16          15           1
SMALL
USER_CHARGES
 
@<TRIPOS>ATOM
       1    C1      21.246339   17.566496   23.594064 C.2        1 MOL1         0.6075
       2    O1      22.413707   17.467268   23.272560 O.co2      1 MOL1        -0.6830
       3    O2      20.678626   16.770936   24.315715 O.co2      1 MOL1        -0.6830
       4    C2      20.444609   18.741959   23.046262 C.3        1 MOL1        -0.2050
       5    H1      21.127243   19.593090   22.942803 H          1 MOL1         0.0710
       6    H2      19.691257   19.018146   23.793757 H          1 MOL1         0.0710
       7    C3      19.760996   18.423837   21.691098 C.3        1 MOL1        -0.1947
       8    H3      20.527838   18.190381   20.939592 H          1 MOL1         0.0712
       9    H4      19.152837   17.515995   21.806827 H          1 MOL1         0.0712
      10    C4      18.855338   19.565982   21.175642 C.3        1 MOL1        -0.1921
      11    H5      18.081168   19.791617   21.922054 H          1 MOL1         0.0712
      12    H6      18.327999   19.219885   20.275954 H          1 MOL1         0.0712
      13    C5      19.635219   20.852894   20.831292 C.3        1 MOL1        -0.2936
      14    H7      20.087279   21.299198   21.725851 H          1 MOL1         0.0724
      15    H8      18.964507   21.601247   20.389568 H          1 MOL1         0.0724
      16    H9      20.434325   20.646209   20.107441 H          1 MOL1         0.0724
@<TRIPOS>BOND
    1     1     2    1
    2     1     3    2
    3     1     4    1
    4     4     5    1
    5     4     6    1
    6     4     7    1
    7     7     8    1
    8     7     9    1
    9     7    10    1
   10    10    11    1
   11    10    12    1
   12    10    13    1
   13    13    14    1
   14    13    15    1
   15    13    16    1
@<TRIPOS>SUBSTRUCTURE
       1 MOL1            1 RESIDUE      1      MOL     
@<SCITEGIC>MOL_PROPERTY
VConf Rank
SciTegic.value.IntegerValue
294

@<SCITEGIC>MOL_PROPERTY
Conf_Id
SciTegic.value.IntegerValue
17

@<SCITEGIC>MOL_PROPERTY
Delta U+W
SciTegic.value.DoubleValue
-0.432

@<SCITEGIC>MOL_PROPERTY
U+W
SciTegic.value.DoubleValue
-57.336

@<SCITEGIC>MOL_PROPERTY
Grad RMS
SciTegic.value.DoubleValue
0.000000

@<SCITEGIC>MOL_PROPERTY
U
SciTegic.value.DoubleValue
7.263

@<SCITEGIC>MOL_PROPERTY
W
SciTegic.value.DoubleValue
-64.599

@<SCITEGIC>MOL_PROPERTY
W(PB)
SciTegic.value.DoubleValue
-66.503

@<SCITEGIC>MOL_PROPERTY
W(SA)
SciTegic.value.DoubleValue
1.904

@<SCITEGIC>MOL_PROPERTY
Valence
SciTegic.value.DoubleValue
6.734

@<SCITEGIC>MOL_PROPERTY
Coulomb
SciTegic.value.DoubleValue
-0.068

@<SCITEGIC>MOL_PROPERTY
VdW
SciTegic.value.DoubleValue
0.598

@<SCITEGIC>MOL_PROPERTY
VdW6
SciTegic.value.DoubleValue
-4.819

@<SCITEGIC>MOL_PROPERTY
VdW12
SciTegic.value.DoubleValue
5.417

@<SCITEGIC>MOL_PROPERTY
Bond
SciTegic.value.DoubleValue
0.107

@<SCITEGIC>MOL_PROPERTY
Angle
SciTegic.value.DoubleValue
2.469

@<SCITEGIC>MOL_PROPERTY
Pdih
SciTegic.value.DoubleValue
4.157

@<SCITEGIC>MOL_PROPERTY
Idih
SciTegic.value.DoubleValue
0.001

@<SCITEGIC>MOL_PROPERTY
Tether
SciTegic.value.DoubleValue
0.000

@<TRIPOS>MOLECULE
guest-s18_confgen4.mol2 : confsearch ligand conformer 295
          16          15           1
SMALL
USER_CHARGES
 
@<TRIPOS>ATOM
       1    C1      18.709363   20.481156   23.417729 C.2        1 MOL1         0.6075
       2    O1      19.041104   20.537485   24.585255 O.co2      1 MOL1        -0.6830
       3    O2      18.438976   21.458876   22.748985 O.co2      1 MOL1        -0.6830
       4    C2      18.604081   19.105558   22.764937 C.3        1 MOL1        -0.2050
       5    H1      17.979942   19.190466   21.866980 H          1 MOL1         0.0710
       6    H2      18.068116   18.451300   23.462734 H          1 MOL1         0.0710
       7    C3      19.972360   18.469366   22.407020 C.3        1 MOL1        -0.1947
       8    H3      20.596903   18.417025   23.309699 H          1 MOL1         0.0712
       9    H4      19.808661   17.435058   22.075403 H          1 MOL1         0.0712
      10    C4      20.717249   19.246555   21.300087 C.3        1 MOL1        -0.1921
      11    H5      20.904850   20.278157   21.629219 H          1 MOL1         0.0712
      12    H6      20.086605   19.308785   20.402428 H          1 MOL1         0.0712
      13    C5      22.057147   18.574675   20.940092 C.3        1 MOL1        -0.2936
      14    H7      22.719806   18.527489   21.814223 H          1 MOL1         0.0724
      15    H8      22.573737   19.139572   20.153235 H          1 MOL1         0.0724
      16    H9      21.898201   17.551759   20.574314 H          1 MOL1         0.0724
@<TRIPOS>BOND
    1     1     2    1
    2     1     3    2
    3     1     4    1
    4     4     5    1
    5     4     6    1
    6     4     7    1
    7     7     8    1
    8     7     9    1
    9     7    10    1
   10    10    11    1
   11    10    12    1
   12    10    13    1
   13    13    14    1
   14    13    15    1
   15    13    16    1
@<TRIPOS>SUBSTRUCTURE
       1 MOL1            1 RESIDUE      1      MOL     
@<SCITEGIC>MOL_PROPERTY
VConf Rank
SciTegic.value.IntegerValue
295

@<SCITEGIC>MOL_PROPERTY
Conf_Id
SciTegic.value.IntegerValue
19

@<SCITEGIC>MOL_PROPERTY
Delta U+W
SciTegic.value.DoubleValue
0.048

@<SCITEGIC>MOL_PROPERTY
U+W
SciTegic.value.DoubleValue
-56.856

@<SCITEGIC>MOL_PROPERTY
Grad RMS
SciTegic.value.DoubleValue
0.000000

@<SCITEGIC>MOL_PROPERTY
U
SciTegic.value.DoubleValue
8.276

@<SCITEGIC>MOL_PROPERTY
W
SciTegic.value.DoubleValue
-65.132

@<SCITEGIC>MOL_PROPERTY
W(PB)
SciTegic.value.DoubleValue
-67.031

@<SCITEGIC>MOL_PROPERTY
W(SA)
SciTegic.value.DoubleValue
1.899

@<SCITEGIC>MOL_PROPERTY
Valence
SciTegic.value.DoubleValue
6.513

@<SCITEGIC>MOL_PROPERTY
Coulomb
SciTegic.value.DoubleValue
1.428

@<SCITEGIC>MOL_PROPERTY
VdW
SciTegic.value.DoubleValue
0.335

@<SCITEGIC>MOL_PROPERTY
VdW6
SciTegic.value.DoubleValue
-5.021

@<SCITEGIC>MOL_PROPERTY
VdW12
SciTegic.value.DoubleValue
5.356

@<SCITEGIC>MOL_PROPERTY
Bond
SciTegic.value.DoubleValue
0.092

@<SCITEGIC>MOL_PROPERTY
Angle
SciTegic.value.DoubleValue
2.417

@<SCITEGIC>MOL_PROPERTY
Pdih
SciTegic.value.DoubleValue
4.003

@<SCITEGIC>MOL_PROPERTY
Idih
SciTegic.value.DoubleValue
0.001

@<SCITEGIC>MOL_PROPERTY
Tether
SciTegic.value.DoubleValue
0.000

@<TRIPOS>MOLECULE
guest-s18_confgen4.mol2 : confsearch ligand conformer 296
          16          15           1
SMALL
USER_CHARGES
 
@<TRIPOS>ATOM
       1    C1      19.322509   17.876931   20.176512 C.2        1 MOL1         0.6075
       2    O1      19.062777   18.548516   19.197811 O.co2      1 MOL1        -0.6830
       3    O2      18.627173   16.959161   20.564414 O.co2      1 MOL1        -0.6830
       4    C2      20.603706   18.189731   20.944750 C.3        1 MOL1        -0.2050
       5    H1      21.405140   18.318725   20.207663 H          1 MOL1         0.0710
       6    H2      20.869841   17.316595   21.552937 H          1 MOL1         0.0710
       7    C3      20.512982   19.455188   21.836620 C.3        1 MOL1        -0.1947
       8    H3      21.510420   19.680930   22.237514 H          1 MOL1         0.0712
       9    H4      20.218035   20.315277   21.219468 H          1 MOL1         0.0712
      10    C4      19.520415   19.286729   23.007355 C.3        1 MOL1        -0.1921
      11    H5      19.809469   18.419016   23.616372 H          1 MOL1         0.0712
      12    H6      18.513890   19.080544   22.617331 H          1 MOL1         0.0712
      13    C5      19.474674   20.545162   23.896515 C.3        1 MOL1        -0.2936
      14    H7      20.461289   20.756876   24.329161 H          1 MOL1         0.0724
      15    H8      18.764447   20.409277   24.722487 H          1 MOL1         0.0724
      16    H9      19.158031   21.423020   23.318109 H          1 MOL1         0.0724
@<TRIPOS>BOND
    1     1     2    1
    2     1     3    2
    3     1     4    1
    4     4     5    1
    5     4     6    1
    6     4     7    1
    7     7     8    1
    8     7     9    1
    9     7    10    1
   10    10    11    1
   11    10    12    1
   12    10    13    1
   13    13    14    1
   14    13    15    1
   15    13    16    1
@<TRIPOS>SUBSTRUCTURE
       1 MOL1            1 RESIDUE      1      MOL     
@<SCITEGIC>MOL_PROPERTY
VConf Rank
SciTegic.value.IntegerValue
296

@<SCITEGIC>MOL_PROPERTY
Conf_Id
SciTegic.value.IntegerValue
20

@<SCITEGIC>MOL_PROPERTY
Delta U+W
SciTegic.value.DoubleValue
-0.010

@<SCITEGIC>MOL_PROPERTY
U+W
SciTegic.value.DoubleValue
-56.914

@<SCITEGIC>MOL_PROPERTY
Grad RMS
SciTegic.value.DoubleValue
0.000000

@<SCITEGIC>MOL_PROPERTY
U
SciTegic.value.DoubleValue
8.277

@<SCITEGIC>MOL_PROPERTY
W
SciTegic.value.DoubleValue
-65.191

@<SCITEGIC>MOL_PROPERTY
W(PB)
SciTegic.value.DoubleValue
-67.081

@<SCITEGIC>MOL_PROPERTY
W(SA)
SciTegic.value.DoubleValue
1.890

@<SCITEGIC>MOL_PROPERTY
Valence
SciTegic.value.DoubleValue
6.513

@<SCITEGIC>MOL_PROPERTY
Coulomb
SciTegic.value.DoubleValue
1.429

@<SCITEGIC>MOL_PROPERTY
VdW
SciTegic.value.DoubleValue
0.335

@<SCITEGIC>MOL_PROPERTY
VdW6
SciTegic.value.DoubleValue
-5.021

@<SCITEGIC>MOL_PROPERTY
VdW12
SciTegic.value.DoubleValue
5.356

@<SCITEGIC>MOL_PROPERTY
Bond
SciTegic.value.DoubleValue
0.092

@<SCITEGIC>MOL_PROPERTY
Angle
SciTegic.value.DoubleValue
2.417

@<SCITEGIC>MOL_PROPERTY
Pdih
SciTegic.value.DoubleValue
4.002

@<SCITEGIC>MOL_PROPERTY
Idih
SciTegic.value.DoubleValue
0.001

@<SCITEGIC>MOL_PROPERTY
Tether
SciTegic.value.DoubleValue
0.000

@<TRIPOS>MOLECULE
guest-s18_confgen4.mol2 : confsearch ligand conformer 297
          16          15           1
SMALL
USER_CHARGES
 
@<TRIPOS>ATOM
       1    C1      18.386678   18.055035   23.274185 C.2        1 MOL1         0.6075
       2    O1      17.191202   18.232136   23.146673 O.co2      1 MOL1        -0.6830
       3    O2      18.939057   17.961058   24.352306 O.co2      1 MOL1        -0.6830
       4    C2      19.231366   17.909257   22.011253 C.3        1 MOL1        -0.2050
       5    H1      18.740977   17.162251   21.376131 H          1 MOL1         0.0710
       6    H2      20.206171   17.490465   22.286237 H          1 MOL1         0.0710
       7    C3      19.408413   19.227417   21.208889 C.3        1 MOL1        -0.1947
       8    H3      19.957079   19.013711   20.281706 H          1 MOL1         0.0712
       9    H4      18.417253   19.590348   20.903543 H          1 MOL1         0.0712
      10    C4      20.135898   20.352403   21.982944 C.3        1 MOL1        -0.1921
      11    H5      19.577497   20.600003   22.896442 H          1 MOL1         0.0712
      12    H6      20.137045   21.261202   21.365520 H          1 MOL1         0.0712
      13    C5      21.592828   19.996417   22.347737 C.3        1 MOL1        -0.2936
      14    H7      21.632150   19.166569   23.064879 H          1 MOL1         0.0724
      15    H8      22.093987   20.857194   22.809000 H          1 MOL1         0.0724
      16    H9      22.164000   19.710282   21.455014 H          1 MOL1         0.0724
@<TRIPOS>BOND
    1     1     2    1
    2     1     3    2
    3     1     4    1
    4     4     5    1
    5     4     6    1
    6     4     7    1
    7     7     8    1
    8     7     9    1
    9     7    10    1
   10    10    11    1
   11    10    12    1
   12    10    13    1
   13    13    14    1
   14    13    15    1
   15    13    16    1
@<TRIPOS>SUBSTRUCTURE
       1 MOL1            1 RESIDUE      1      MOL     
@<SCITEGIC>MOL_PROPERTY
VConf Rank
SciTegic.value.IntegerValue
297

@<SCITEGIC>MOL_PROPERTY
Conf_Id
SciTegic.value.IntegerValue
37

@<SCITEGIC>MOL_PROPERTY
Delta U+W
SciTegic.value.DoubleValue
1.063

@<SCITEGIC>MOL_PROPERTY
U+W
SciTegic.value.DoubleValue
-55.841

@<SCITEGIC>MOL_PROPERTY
Grad RMS
SciTegic.value.DoubleValue
0.000000

@<SCITEGIC>MOL_PROPERTY
U
SciTegic.value.DoubleValue
9.719

@<SCITEGIC>MOL_PROPERTY
W
SciTegic.value.DoubleValue
-65.560

@<SCITEGIC>MOL_PROPERTY
W(PB)
SciTegic.value.DoubleValue
-67.414

@<SCITEGIC>MOL_PROPERTY
W(SA)
SciTegic.value.DoubleValue
1.854

@<SCITEGIC>MOL_PROPERTY
Valence
SciTegic.value.DoubleValue
7.002

@<SCITEGIC>MOL_PROPERTY
Coulomb
SciTegic.value.DoubleValue
2.402

@<SCITEGIC>MOL_PROPERTY
VdW
SciTegic.value.DoubleValue
0.314

@<SCITEGIC>MOL_PROPERTY
VdW6
SciTegic.value.DoubleValue
-5.861

@<SCITEGIC>MOL_PROPERTY
VdW12
SciTegic.value.DoubleValue
6.175

@<SCITEGIC>MOL_PROPERTY
Bond
SciTegic.value.DoubleValue
0.134

@<SCITEGIC>MOL_PROPERTY
Angle
SciTegic.value.DoubleValue
2.733

@<SCITEGIC>MOL_PROPERTY
Pdih
SciTegic.value.DoubleValue
4.133

@<SCITEGIC>MOL_PROPERTY
Idih
SciTegic.value.DoubleValue
0.002

@<SCITEGIC>MOL_PROPERTY
Tether
SciTegic.value.DoubleValue
0.000

@<TRIPOS>MOLECULE
guest-s18_confgen4.mol2 : confsearch ligand conformer 298
          16          15           1
SMALL
USER_CHARGES
 
@<TRIPOS>ATOM
       1    C1      21.293226   17.582849   23.105645 C.2        1 MOL1         0.6075
       2    O1      20.953488   17.025482   24.130684 O.co2      1 MOL1        -0.6830
       3    O2      21.702717   16.992506   22.125792 O.co2      1 MOL1        -0.6830
       4    C2      21.234116   19.107426   23.061829 C.3        1 MOL1        -0.2050
       5    H1      21.816248   19.457622   22.201751 H          1 MOL1         0.0710
       6    H2      21.748091   19.478911   23.956094 H          1 MOL1         0.0710
       7    C3      19.793646   19.687103   23.020598 C.3        1 MOL1        -0.1947
       8    H3      19.256383   19.361356   23.922036 H          1 MOL1         0.0712
       9    H4      19.844883   20.783055   23.071922 H          1 MOL1         0.0712
      10    C4      18.975236   19.273707   21.774283 C.3        1 MOL1        -0.1921
      11    H5      17.952936   19.662338   21.879153 H          1 MOL1         0.0712
      12    H6      18.886897   18.179234   21.730421 H          1 MOL1         0.0712
      13    C5      19.573932   19.797774   20.451650 C.3        1 MOL1        -0.2936
      14    H7      19.705774   20.887132   20.483009 H          1 MOL1         0.0724
      15    H8      18.910427   19.560978   19.609897 H          1 MOL1         0.0724
      16    H9      20.548299   19.336674   20.245537 H          1 MOL1         0.0724
@<TRIPOS>BOND
    1     1     2    1
    2     1     3    2
    3     1     4    1
    4     4     5    1
    5     4     6    1
    6     4     7    1
    7     7     8    1
    8     7     9    1
    9     7    10    1
   10    10    11    1
   11    10    12    1
   12    10    13    1
   13    13    14    1
   14    13    15    1
   15    13    16    1
@<TRIPOS>SUBSTRUCTURE
       1 MOL1            1 RESIDUE      1      MOL     
@<SCITEGIC>MOL_PROPERTY
VConf Rank
SciTegic.value.IntegerValue
298

@<SCITEGIC>MOL_PROPERTY
Conf_Id
SciTegic.value.IntegerValue
39

@<SCITEGIC>MOL_PROPERTY
Delta U+W
SciTegic.value.DoubleValue
1.129

@<SCITEGIC>MOL_PROPERTY
U+W
SciTegic.value.DoubleValue
-55.775

@<SCITEGIC>MOL_PROPERTY
Grad RMS
SciTegic.value.DoubleValue
0.000000

@<SCITEGIC>MOL_PROPERTY
U
SciTegic.value.DoubleValue
9.718

@<SCITEGIC>MOL_PROPERTY
W
SciTegic.value.DoubleValue
-65.493

@<SCITEGIC>MOL_PROPERTY
W(PB)
SciTegic.value.DoubleValue
-67.361

@<SCITEGIC>MOL_PROPERTY
W(SA)
SciTegic.value.DoubleValue
1.869

@<SCITEGIC>MOL_PROPERTY
Valence
SciTegic.value.DoubleValue
7.002

@<SCITEGIC>MOL_PROPERTY
Coulomb
SciTegic.value.DoubleValue
2.402

@<SCITEGIC>MOL_PROPERTY
VdW
SciTegic.value.DoubleValue
0.314

@<SCITEGIC>MOL_PROPERTY
VdW6
SciTegic.value.DoubleValue
-5.861

@<SCITEGIC>MOL_PROPERTY
VdW12
SciTegic.value.DoubleValue
6.175

@<SCITEGIC>MOL_PROPERTY
Bond
SciTegic.value.DoubleValue
0.134

@<SCITEGIC>MOL_PROPERTY
Angle
SciTegic.value.DoubleValue
2.734

@<SCITEGIC>MOL_PROPERTY
Pdih
SciTegic.value.DoubleValue
4.133

@<SCITEGIC>MOL_PROPERTY
Idih
SciTegic.value.DoubleValue
0.002

@<SCITEGIC>MOL_PROPERTY
Tether
SciTegic.value.DoubleValue
0.000

@<TRIPOS>MOLECULE
guest-s18_confgen4.mol2 : confsearch ligand conformer 299
          16          15           1
SMALL
USER_CHARGES
 
@<TRIPOS>ATOM
       1    C1      19.396831   17.608702   21.018813 C.2        1 MOL1         0.6075
       2    O1      19.682557   17.889793   19.871569 O.co2      1 MOL1        -0.6830
       3    O2      18.312505   17.170594   21.349655 O.co2      1 MOL1        -0.6830
       4    C2      20.486311   17.727752   22.083012 C.3        1 MOL1        -0.2050
       5    H1      21.416731   18.058646   21.605721 H          1 MOL1         0.0710
       6    H2      20.668360   16.712204   22.453512 H          1 MOL1         0.0710
       7    C3      20.141731   18.649761   23.286401 C.3        1 MOL1        -0.1947
       8    H3      19.118247   18.447937   23.631782 H          1 MOL1         0.0712
       9    H4      20.801899   18.378375   24.121254 H          1 MOL1         0.0712
      10    C4      20.322199   20.162772   23.014756 C.3        1 MOL1        -0.1921
      11    H5      21.345908   20.360046   22.667863 H          1 MOL1         0.0712
      12    H6      20.209402   20.702142   23.965361 H          1 MOL1         0.0712
      13    C5      19.310940   20.739822   22.002503 C.3        1 MOL1        -0.2936
      14    H7      19.491367   20.352195   20.992458 H          1 MOL1         0.0724
      15    H8      19.395558   21.833192   21.956125 H          1 MOL1         0.0724
      16    H9      18.280742   20.490888   22.288956 H          1 MOL1         0.0724
@<TRIPOS>BOND
    1     1     2    1
    2     1     3    2
    3     1     4    1
    4     4     5    1
    5     4     6    1
    6     4     7    1
    7     7     8    1
    8     7     9    1
    9     7    10    1
   10    10    11    1
   11    10    12    1
   12    10    13    1
   13    13    14    1
   14    13    15    1
   15    13    16    1
@<TRIPOS>SUBSTRUCTURE
       1 MOL1            1 RESIDUE      1      MOL     
@<SCITEGIC>MOL_PROPERTY
VConf Rank
SciTegic.value.IntegerValue
299

@<SCITEGIC>MOL_PROPERTY
Conf_Id
SciTegic.value.IntegerValue
47

@<SCITEGIC>MOL_PROPERTY
Delta U+W
SciTegic.value.DoubleValue
2.301

@<SCITEGIC>MOL_PROPERTY
U+W
SciTegic.value.DoubleValue
-54.603

@<SCITEGIC>MOL_PROPERTY
Grad RMS
SciTegic.value.DoubleValue
0.000000

@<SCITEGIC>MOL_PROPERTY
U
SciTegic.value.DoubleValue
11.258

@<SCITEGIC>MOL_PROPERTY
W
SciTegic.value.DoubleValue
-65.861

@<SCITEGIC>MOL_PROPERTY
W(PB)
SciTegic.value.DoubleValue
-67.702

@<SCITEGIC>MOL_PROPERTY
W(SA)
SciTegic.value.DoubleValue
1.841

@<SCITEGIC>MOL_PROPERTY
Valence
SciTegic.value.DoubleValue
8.169

@<SCITEGIC>MOL_PROPERTY
Coulomb
SciTegic.value.DoubleValue
2.735

@<SCITEGIC>MOL_PROPERTY
VdW
SciTegic.value.DoubleValue
0.355

@<SCITEGIC>MOL_PROPERTY
VdW6
SciTegic.value.DoubleValue
-6.245

@<SCITEGIC>MOL_PROPERTY
VdW12
SciTegic.value.DoubleValue
6.600

@<SCITEGIC>MOL_PROPERTY
Bond
SciTegic.value.DoubleValue
0.149

@<SCITEGIC>MOL_PROPERTY
Angle
SciTegic.value.DoubleValue
3.168

@<SCITEGIC>MOL_PROPERTY
Pdih
SciTegic.value.DoubleValue
4.840

@<SCITEGIC>MOL_PROPERTY
Idih
SciTegic.value.DoubleValue
0.011

@<SCITEGIC>MOL_PROPERTY
Tether
SciTegic.value.DoubleValue
0.000

@<TRIPOS>MOLECULE
guest-s18_confgen4.mol2 : confsearch ligand conformer 300
          16          15           1
SMALL
USER_CHARGES
 
@<TRIPOS>ATOM
       1    C1      20.779896   19.265072   20.492911 C.2        1 MOL1         0.6075
       2    O1      20.477839   20.330962   19.993112 O.co2      1 MOL1        -0.6830
       3    O2      20.746197   18.210499   19.889953 O.co2      1 MOL1        -0.6830
       4    C2      21.315081   19.260825   21.923724 C.3        1 MOL1        -0.2050
       5    H1      22.231497   19.862327   21.912420 H          1 MOL1         0.0710
       6    H2      21.613827   18.239620   22.189938 H          1 MOL1         0.0710
       7    C3      20.347666   19.835156   22.996683 C.3        1 MOL1        -0.1947
       8    H3      20.944012   20.115434   23.875472 H          1 MOL1         0.0712
       9    H4      19.892214   20.765761   22.630518 H          1 MOL1         0.0712
      10    C4      19.246851   18.853994   23.466883 C.3        1 MOL1        -0.1921
      11    H5      18.729279   19.299405   24.327709 H          1 MOL1         0.0712
      12    H6      19.706117   17.924392   23.830402 H          1 MOL1         0.0712
      13    C5      18.199133   18.525933   22.382932 C.3        1 MOL1        -0.2936
      14    H7      17.373494   17.942952   22.810976 H          1 MOL1         0.0724
      15    H8      18.636460   17.931343   21.571633 H          1 MOL1         0.0724
      16    H9      17.778592   19.443340   21.950683 H          1 MOL1         0.0724
@<TRIPOS>BOND
    1     1     2    1
    2     1     3    2
    3     1     4    1
    4     4     5    1
    5     4     6    1
    6     4     7    1
    7     7     8    1
    8     7     9    1
    9     7    10    1
   10    10    11    1
   11    10    12    1
   12    10    13    1
   13    13    14    1
   14    13    15    1
   15    13    16    1
@<TRIPOS>SUBSTRUCTURE
       1 MOL1            1 RESIDUE      1      MOL     
@<SCITEGIC>MOL_PROPERTY
VConf Rank
SciTegic.value.IntegerValue
300

@<SCITEGIC>MOL_PROPERTY
Conf_Id
SciTegic.value.IntegerValue
45

@<SCITEGIC>MOL_PROPERTY
Delta U+W
SciTegic.value.DoubleValue
2.303

@<SCITEGIC>MOL_PROPERTY
U+W
SciTegic.value.DoubleValue
-54.601

@<SCITEGIC>MOL_PROPERTY
Grad RMS
SciTegic.value.DoubleValue
0.000000

@<SCITEGIC>MOL_PROPERTY
U
SciTegic.value.DoubleValue
11.258

@<SCITEGIC>MOL_PROPERTY
W
SciTegic.value.DoubleValue
-65.860

@<SCITEGIC>MOL_PROPERTY
W(PB)
SciTegic.value.DoubleValue
-67.709

@<SCITEGIC>MOL_PROPERTY
W(SA)
SciTegic.value.DoubleValue
1.849

@<SCITEGIC>MOL_PROPERTY
Valence
SciTegic.value.DoubleValue
8.169

@<SCITEGIC>MOL_PROPERTY
Coulomb
SciTegic.value.DoubleValue
2.735

@<SCITEGIC>MOL_PROPERTY
VdW
SciTegic.value.DoubleValue
0.355

@<SCITEGIC>MOL_PROPERTY
VdW6
SciTegic.value.DoubleValue
-6.245

@<SCITEGIC>MOL_PROPERTY
VdW12
SciTegic.value.DoubleValue
6.600

@<SCITEGIC>MOL_PROPERTY
Bond
SciTegic.value.DoubleValue
0.149

@<SCITEGIC>MOL_PROPERTY
Angle
SciTegic.value.DoubleValue
3.168

@<SCITEGIC>MOL_PROPERTY
Pdih
SciTegic.value.DoubleValue
4.840

@<SCITEGIC>MOL_PROPERTY
Idih
SciTegic.value.DoubleValue
0.011

@<SCITEGIC>MOL_PROPERTY
Tether
SciTegic.value.DoubleValue
0.000

@<TRIPOS>MOLECULE
guest-s18_confgen4.mol2 : confsearch ligand conformer 301
          16          15           1
SMALL
USER_CHARGES
 
@<TRIPOS>ATOM
       1    C1      22.539972   18.056056   21.791942 C.2        1 MOL1         0.6075
       2    O1      22.191153   16.935282   22.108116 O.co2      1 MOL1        -0.6830
       3    O2      23.693976   18.346503   21.548574 O.co2      1 MOL1        -0.6830
       4    C2      21.501478   19.174300   21.687273 C.3        1 MOL1        -0.2050
       5    H1      21.555861   19.577143   20.668980 H          1 MOL1         0.0710
       6    H2      21.814387   19.976134   22.366474 H          1 MOL1         0.0710
       7    C3      20.041643   18.756571   22.007794 C.3        1 MOL1        -0.1947
       8    H3      19.735671   17.949396   21.327855 H          1 MOL1         0.0712
       9    H4      19.994464   18.348815   23.027097 H          1 MOL1         0.0712
      10    C4      19.063854   19.943280   21.877758 C.3        1 MOL1        -0.1921
      11    H5      19.108768   20.350897   20.858282 H          1 MOL1         0.0712
      12    H6      19.367707   20.750565   22.558539 H          1 MOL1         0.0712
      13    C5      17.615843   19.522184   22.197262 C.3        1 MOL1        -0.2936
      14    H7      17.274659   18.736596   21.510301 H          1 MOL1         0.0724
      15    H8      16.933990   20.377046   22.100156 H          1 MOL1         0.0724
      16    H9      17.535503   19.139212   23.223102 H          1 MOL1         0.0724
@<TRIPOS>BOND
    1     1     2    1
    2     1     3    2
    3     1     4    1
    4     4     5    1
    5     4     6    1
    6     4     7    1
    7     7     8    1
    8     7     9    1
    9     7    10    1
   10    10    11    1
   11    10    12    1
   12    10    13    1
   13    13    14    1
   14    13    15    1
   15    13    16    1
@<TRIPOS>SUBSTRUCTURE
       1 MOL1            1 RESIDUE      1      MOL     
@<SCITEGIC>MOL_PROPERTY
VConf Rank
SciTegic.value.IntegerValue
301

@<SCITEGIC>MOL_PROPERTY
Conf_Id
SciTegic.value.IntegerValue
0

@<SCITEGIC>MOL_PROPERTY
Delta U+W
SciTegic.value.DoubleValue
0.000

@<SCITEGIC>MOL_PROPERTY
U+W
SciTegic.value.DoubleValue
-56.904

@<SCITEGIC>MOL_PROPERTY
Grad RMS
SciTegic.value.DoubleValue
0.000000

@<SCITEGIC>MOL_PROPERTY
U
SciTegic.value.DoubleValue
7.329

@<SCITEGIC>MOL_PROPERTY
W
SciTegic.value.DoubleValue
-64.233

@<SCITEGIC>MOL_PROPERTY
W(PB)
SciTegic.value.DoubleValue
-66.148

@<SCITEGIC>MOL_PROPERTY
W(SA)
SciTegic.value.DoubleValue
1.915

@<SCITEGIC>MOL_PROPERTY
Valence
SciTegic.value.DoubleValue
6.755

@<SCITEGIC>MOL_PROPERTY
Coulomb
SciTegic.value.DoubleValue
-0.421

@<SCITEGIC>MOL_PROPERTY
VdW
SciTegic.value.DoubleValue
0.995

@<SCITEGIC>MOL_PROPERTY
VdW6
SciTegic.value.DoubleValue
-4.495

@<SCITEGIC>MOL_PROPERTY
VdW12
SciTegic.value.DoubleValue
5.490

@<SCITEGIC>MOL_PROPERTY
Bond
SciTegic.value.DoubleValue
0.106

@<SCITEGIC>MOL_PROPERTY
Angle
SciTegic.value.DoubleValue
2.715

@<SCITEGIC>MOL_PROPERTY
Pdih
SciTegic.value.DoubleValue
3.934

@<SCITEGIC>MOL_PROPERTY
Idih
SciTegic.value.DoubleValue
0.000

@<SCITEGIC>MOL_PROPERTY
Tether
SciTegic.value.DoubleValue
0.000

@<TRIPOS>MOLECULE
guest-s18_confgen4.mol2 : confsearch ligand conformer 302
          16          15           1
SMALL
USER_CHARGES
 
@<TRIPOS>ATOM
       1    C1      18.557574   21.194918   22.933418 C.2        1 MOL1         0.6075
       2    O1      19.139873   21.898691   23.734339 O.co2      1 MOL1        -0.6830
       3    O2      17.688328   21.601793   22.188630 O.co2      1 MOL1        -0.6830
       4    C2      18.951872   19.724752   22.845533 C.3        1 MOL1        -0.2050
       5    H1      18.060109   19.148287   22.571130 H          1 MOL1         0.0710
       6    H2      19.256936   19.393097   23.845428 H          1 MOL1         0.0710
       7    C3      20.089259   19.465616   21.827074 C.3        1 MOL1        -0.1947
       8    H3      19.773575   19.814076   20.833862 H          1 MOL1         0.0712
       9    H4      20.970443   20.058951   22.108176 H          1 MOL1         0.0712
      10    C4      20.468651   17.971686   21.757811 C.3        1 MOL1        -0.1921
      11    H5      19.587868   17.378072   21.476063 H          1 MOL1         0.0712
      12    H6      20.785011   17.622998   22.750722 H          1 MOL1         0.0712
      13    C5      21.601049   17.721298   20.742390 C.3        1 MOL1        -0.2936
      14    H7      22.505799   18.279145   21.017536 H          1 MOL1         0.0724
      15    H8      21.299821   18.032433   19.733466 H          1 MOL1         0.0724
      16    H9      21.858575   16.654778   20.705444 H          1 MOL1         0.0724
@<TRIPOS>BOND
    1     1     2    1
    2     1     3    2
    3     1     4    1
    4     4     5    1
    5     4     6    1
    6     4     7    1
    7     7     8    1
    8     7     9    1
    9     7    10    1
   10    10    11    1
   11    10    12    1
   12    10    13    1
   13    13    14    1
   14    13    15    1
   15    13    16    1
@<TRIPOS>SUBSTRUCTURE
       1 MOL1            1 RESIDUE      1      MOL     
@<SCITEGIC>MOL_PROPERTY
VConf Rank
SciTegic.value.IntegerValue
302

@<SCITEGIC>MOL_PROPERTY
Conf_Id
SciTegic.value.IntegerValue
22

@<SCITEGIC>MOL_PROPERTY
Delta U+W
SciTegic.value.DoubleValue
-1.185

@<SCITEGIC>MOL_PROPERTY
U+W
SciTegic.value.DoubleValue
-58.089

@<SCITEGIC>MOL_PROPERTY
Grad RMS
SciTegic.value.DoubleValue
0.000000

@<SCITEGIC>MOL_PROPERTY
U
SciTegic.value.DoubleValue
6.298

@<SCITEGIC>MOL_PROPERTY
W
SciTegic.value.DoubleValue
-64.387

@<SCITEGIC>MOL_PROPERTY
W(PB)
SciTegic.value.DoubleValue
-66.329

@<SCITEGIC>MOL_PROPERTY
W(SA)
SciTegic.value.DoubleValue
1.942

@<SCITEGIC>MOL_PROPERTY
Valence
SciTegic.value.DoubleValue
6.246

@<SCITEGIC>MOL_PROPERTY
Coulomb
SciTegic.value.DoubleValue
-0.408

@<SCITEGIC>MOL_PROPERTY
VdW
SciTegic.value.DoubleValue
0.460

@<SCITEGIC>MOL_PROPERTY
VdW6
SciTegic.value.DoubleValue
-4.207

@<SCITEGIC>MOL_PROPERTY
VdW12
SciTegic.value.DoubleValue
4.667

@<SCITEGIC>MOL_PROPERTY
Bond
SciTegic.value.DoubleValue
0.072

@<SCITEGIC>MOL_PROPERTY
Angle
SciTegic.value.DoubleValue
2.246

@<SCITEGIC>MOL_PROPERTY
Pdih
SciTegic.value.DoubleValue
3.928

@<SCITEGIC>MOL_PROPERTY
Idih
SciTegic.value.DoubleValue
0.001

@<SCITEGIC>MOL_PROPERTY
Tether
SciTegic.value.DoubleValue
0.000

@<TRIPOS>MOLECULE
guest-s18_confgen4.mol2 : confsearch ligand conformer 303
          16          15           1
SMALL
USER_CHARGES
 
@<TRIPOS>ATOM
       1    C1      21.694113   17.930467   23.482519 C.2        1 MOL1         0.6075
       2    O1      22.205082   16.876439   23.160136 O.co2      1 MOL1        -0.6830
       3    O2      21.639959   18.327403   24.629456 O.co2      1 MOL1        -0.6830
       4    C2      21.069325   18.791965   22.390715 C.3        1 MOL1        -0.2050
       5    H1      21.644833   18.643920   21.469065 H          1 MOL1         0.0710
       6    H2      21.188612   19.841334   22.683481 H          1 MOL1         0.0710
       7    C3      19.574140   18.461116   22.145863 C.3        1 MOL1        -0.1947
       8    H3      19.479405   17.385828   21.940415 H          1 MOL1         0.0712
       9    H4      19.001068   18.653794   23.063345 H          1 MOL1         0.0712
      10    C4      18.954549   19.248260   20.968188 C.3        1 MOL1        -0.1921
      11    H5      17.934956   18.877874   20.793393 H          1 MOL1         0.0712
      12    H6      19.520392   19.046493   20.048137 H          1 MOL1         0.0712
      13    C5      18.895128   20.770460   21.217811 C.3        1 MOL1        -0.2936
      14    H7      19.900236   21.205112   21.285763 H          1 MOL1         0.0724
      15    H8      18.358374   20.995274   22.148726 H          1 MOL1         0.0724
      16    H9      18.370545   21.273833   20.395354 H          1 MOL1         0.0724
@<TRIPOS>BOND
    1     1     2    1
    2     1     3    2
    3     1     4    1
    4     4     5    1
    5     4     6    1
    6     4     7    1
    7     7     8    1
    8     7     9    1
    9     7    10    1
   10    10    11    1
   11    10    12    1
   12    10    13    1
   13    13    14    1
   14    13    15    1
   15    13    16    1
@<TRIPOS>SUBSTRUCTURE
       1 MOL1            1 RESIDUE      1      MOL     
@<SCITEGIC>MOL_PROPERTY
VConf Rank
SciTegic.value.IntegerValue
303

@<SCITEGIC>MOL_PROPERTY
Conf_Id
SciTegic.value.IntegerValue
36

@<SCITEGIC>MOL_PROPERTY
Delta U+W
SciTegic.value.DoubleValue
-0.427

@<SCITEGIC>MOL_PROPERTY
U+W
SciTegic.value.DoubleValue
-57.331

@<SCITEGIC>MOL_PROPERTY
Grad RMS
SciTegic.value.DoubleValue
0.000000

@<SCITEGIC>MOL_PROPERTY
U
SciTegic.value.DoubleValue
7.263

@<SCITEGIC>MOL_PROPERTY
W
SciTegic.value.DoubleValue
-64.594

@<SCITEGIC>MOL_PROPERTY
W(PB)
SciTegic.value.DoubleValue
-66.513

@<SCITEGIC>MOL_PROPERTY
W(SA)
SciTegic.value.DoubleValue
1.920

@<SCITEGIC>MOL_PROPERTY
Valence
SciTegic.value.DoubleValue
6.734

@<SCITEGIC>MOL_PROPERTY
Coulomb
SciTegic.value.DoubleValue
-0.068

@<SCITEGIC>MOL_PROPERTY
VdW
SciTegic.value.DoubleValue
0.598

@<SCITEGIC>MOL_PROPERTY
VdW6
SciTegic.value.DoubleValue
-4.819

@<SCITEGIC>MOL_PROPERTY
VdW12
SciTegic.value.DoubleValue
5.417

@<SCITEGIC>MOL_PROPERTY
Bond
SciTegic.value.DoubleValue
0.107

@<SCITEGIC>MOL_PROPERTY
Angle
SciTegic.value.DoubleValue
2.469

@<SCITEGIC>MOL_PROPERTY
Pdih
SciTegic.value.DoubleValue
4.157

@<SCITEGIC>MOL_PROPERTY
Idih
SciTegic.value.DoubleValue
0.001

@<SCITEGIC>MOL_PROPERTY
Tether
SciTegic.value.DoubleValue
0.000

@<TRIPOS>MOLECULE
guest-s18_confgen4.mol2 : confsearch ligand conformer 304
          16          15           1
SMALL
USER_CHARGES
 
@<TRIPOS>ATOM
       1    C1      19.319281   18.996220   24.491829 C.2        1 MOL1         0.6075
       2    O1      18.831066   17.915951   24.757579 O.co2      1 MOL1        -0.6830
       3    O2      19.184451   19.983370   25.187062 O.co2      1 MOL1        -0.6830
       4    C2      20.128317   19.125581   23.206022 C.3        1 MOL1        -0.2050
       5    H1      20.626357   18.166007   23.026323 H          1 MOL1         0.0710
       6    H2      20.913095   19.873494   23.371297 H          1 MOL1         0.0710
       7    C3      19.258244   19.524852   21.985960 C.3        1 MOL1        -0.1947
       8    H3      18.503226   18.747561   21.804093 H          1 MOL1         0.0712
       9    H4      18.706296   20.442842   22.231065 H          1 MOL1         0.0712
      10    C4      20.078631   19.767457   20.698126 C.3        1 MOL1        -0.1921
      11    H5      20.825948   20.553028   20.876390 H          1 MOL1         0.0712
      12    H6      19.406164   20.149701   19.917751 H          1 MOL1         0.0712
      13    C5      20.777866   18.495276   20.173193 C.3        1 MOL1        -0.2936
      14    H7      21.543593   18.140402   20.874271 H          1 MOL1         0.0724
      15    H8      21.273327   18.697647   19.214772 H          1 MOL1         0.0724
      16    H9      20.053425   17.685751   20.014748 H          1 MOL1         0.0724
@<TRIPOS>BOND
    1     1     2    1
    2     1     3    2
    3     1     4    1
    4     4     5    1
    5     4     6    1
    6     4     7    1
    7     7     8    1
    8     7     9    1
    9     7    10    1
   10    10    11    1
   11    10    12    1
   12    10    13    1
   13    13    14    1
   14    13    15    1
   15    13    16    1
@<TRIPOS>SUBSTRUCTURE
       1 MOL1            1 RESIDUE      1      MOL     
@<SCITEGIC>MOL_PROPERTY
VConf Rank
SciTegic.value.IntegerValue
304

@<SCITEGIC>MOL_PROPERTY
Conf_Id
SciTegic.value.IntegerValue
17

@<SCITEGIC>MOL_PROPERTY
Delta U+W
SciTegic.value.DoubleValue
-0.432

@<SCITEGIC>MOL_PROPERTY
U+W
SciTegic.value.DoubleValue
-57.336

@<SCITEGIC>MOL_PROPERTY
Grad RMS
SciTegic.value.DoubleValue
0.000000

@<SCITEGIC>MOL_PROPERTY
U
SciTegic.value.DoubleValue
7.263

@<SCITEGIC>MOL_PROPERTY
W
SciTegic.value.DoubleValue
-64.599

@<SCITEGIC>MOL_PROPERTY
W(PB)
SciTegic.value.DoubleValue
-66.503

@<SCITEGIC>MOL_PROPERTY
W(SA)
SciTegic.value.DoubleValue
1.904

@<SCITEGIC>MOL_PROPERTY
Valence
SciTegic.value.DoubleValue
6.734

@<SCITEGIC>MOL_PROPERTY
Coulomb
SciTegic.value.DoubleValue
-0.068

@<SCITEGIC>MOL_PROPERTY
VdW
SciTegic.value.DoubleValue
0.598

@<SCITEGIC>MOL_PROPERTY
VdW6
SciTegic.value.DoubleValue
-4.819

@<SCITEGIC>MOL_PROPERTY
VdW12
SciTegic.value.DoubleValue
5.417

@<SCITEGIC>MOL_PROPERTY
Bond
SciTegic.value.DoubleValue
0.107

@<SCITEGIC>MOL_PROPERTY
Angle
SciTegic.value.DoubleValue
2.469

@<SCITEGIC>MOL_PROPERTY
Pdih
SciTegic.value.DoubleValue
4.157

@<SCITEGIC>MOL_PROPERTY
Idih
SciTegic.value.DoubleValue
0.001

@<SCITEGIC>MOL_PROPERTY
Tether
SciTegic.value.DoubleValue
0.000

@<TRIPOS>MOLECULE
guest-s18_confgen4.mol2 : confsearch ligand conformer 305
          16          15           1
SMALL
USER_CHARGES
 
@<TRIPOS>ATOM
       1    C1      22.240135   18.574278   23.020166 C.2        1 MOL1         0.6075
       2    O1      22.420434   17.377542   23.128136 O.co2      1 MOL1        -0.6830
       3    O2      23.048857   19.332621   22.523029 O.co2      1 MOL1        -0.6830
       4    C2      20.937292   19.157528   23.560456 C.3        1 MOL1        -0.2050
       5    H1      21.070880   20.236082   23.708647 H          1 MOL1         0.0710
       6    H2      20.767945   18.720028   24.551490 H          1 MOL1         0.0710
       7    C3      19.703563   18.890213   22.659629 C.3        1 MOL1        -0.1947
       8    H3      19.599194   17.808472   22.496630 H          1 MOL1         0.0712
       9    H4      18.798474   19.219109   23.188024 H          1 MOL1         0.0712
      10    C4      19.791797   19.617734   21.300545 C.3        1 MOL1        -0.1921
      11    H5      20.683525   19.281073   20.753550 H          1 MOL1         0.0712
      12    H6      19.908601   20.697830   21.465249 H          1 MOL1         0.0712
      13    C5      18.538967   19.362689   20.439317 C.3        1 MOL1        -0.2936
      14    H7      18.415700   18.291284   20.233534 H          1 MOL1         0.0724
      15    H8      18.618116   19.885687   19.477379 H          1 MOL1         0.0724
      16    H9      17.633619   19.721111   20.946558 H          1 MOL1         0.0724
@<TRIPOS>BOND
    1     1     2    1
    2     1     3    2
    3     1     4    1
    4     4     5    1
    5     4     6    1
    6     4     7    1
    7     7     8    1
    8     7     9    1
    9     7    10    1
   10    10    11    1
   11    10    12    1
   12    10    13    1
   13    13    14    1
   14    13    15    1
   15    13    16    1
@<TRIPOS>SUBSTRUCTURE
       1 MOL1            1 RESIDUE      1      MOL     
@<SCITEGIC>MOL_PROPERTY
VConf Rank
SciTegic.value.IntegerValue
305

@<SCITEGIC>MOL_PROPERTY
Conf_Id
SciTegic.value.IntegerValue
19

@<SCITEGIC>MOL_PROPERTY
Delta U+W
SciTegic.value.DoubleValue
0.048

@<SCITEGIC>MOL_PROPERTY
U+W
SciTegic.value.DoubleValue
-56.856

@<SCITEGIC>MOL_PROPERTY
Grad RMS
SciTegic.value.DoubleValue
0.000000

@<SCITEGIC>MOL_PROPERTY
U
SciTegic.value.DoubleValue
8.276

@<SCITEGIC>MOL_PROPERTY
W
SciTegic.value.DoubleValue
-65.132

@<SCITEGIC>MOL_PROPERTY
W(PB)
SciTegic.value.DoubleValue
-67.031

@<SCITEGIC>MOL_PROPERTY
W(SA)
SciTegic.value.DoubleValue
1.899

@<SCITEGIC>MOL_PROPERTY
Valence
SciTegic.value.DoubleValue
6.513

@<SCITEGIC>MOL_PROPERTY
Coulomb
SciTegic.value.DoubleValue
1.428

@<SCITEGIC>MOL_PROPERTY
VdW
SciTegic.value.DoubleValue
0.335

@<SCITEGIC>MOL_PROPERTY
VdW6
SciTegic.value.DoubleValue
-5.021

@<SCITEGIC>MOL_PROPERTY
VdW12
SciTegic.value.DoubleValue
5.356

@<SCITEGIC>MOL_PROPERTY
Bond
SciTegic.value.DoubleValue
0.092

@<SCITEGIC>MOL_PROPERTY
Angle
SciTegic.value.DoubleValue
2.417

@<SCITEGIC>MOL_PROPERTY
Pdih
SciTegic.value.DoubleValue
4.003

@<SCITEGIC>MOL_PROPERTY
Idih
SciTegic.value.DoubleValue
0.001

@<SCITEGIC>MOL_PROPERTY
Tether
SciTegic.value.DoubleValue
0.000

@<TRIPOS>MOLECULE
guest-s18_confgen4.mol2 : confsearch ligand conformer 306
          16          15           1
SMALL
USER_CHARGES
 
@<TRIPOS>ATOM
       1    C1      19.250841   17.153622   23.185093 C.2        1 MOL1         0.6075
       2    O1      19.603630   17.105815   24.346814 O.co2      1 MOL1        -0.6830
       3    O2      19.440892   16.256033   22.388553 O.co2      1 MOL1        -0.6830
       4    C2      18.508532   18.399321   22.708954 C.3        1 MOL1        -0.2050
       5    H1      17.751605   18.639361   23.465048 H          1 MOL1         0.0710
       6    H2      17.968427   18.154345   21.786262 H          1 MOL1         0.0710
       7    C3      19.422242   19.631788   22.482674 C.3        1 MOL1        -0.1947
       8    H3      18.793375   20.509176   22.279514 H          1 MOL1         0.0712
       9    H4      19.977720   19.847713   23.405953 H          1 MOL1         0.0712
      10    C4      20.409943   19.432034   21.312745 C.3        1 MOL1        -0.1921
      11    H5      19.853731   19.204015   20.392955 H          1 MOL1         0.0712
      12    H6      21.058706   18.568273   21.514604 H          1 MOL1         0.0712
      13    C5      21.282058   20.683142   21.088029 C.3        1 MOL1        -0.2936
      14    H7      20.661737   21.557106   20.849693 H          1 MOL1         0.0724
      15    H8      21.978442   20.524283   20.254404 H          1 MOL1         0.0724
      16    H9      21.872917   20.915651   21.983727 H          1 MOL1         0.0724
@<TRIPOS>BOND
    1     1     2    1
    2     1     3    2
    3     1     4    1
    4     4     5    1
    5     4     6    1
    6     4     7    1
    7     7     8    1
    8     7     9    1
    9     7    10    1
   10    10    11    1
   11    10    12    1
   12    10    13    1
   13    13    14    1
   14    13    15    1
   15    13    16    1
@<TRIPOS>SUBSTRUCTURE
       1 MOL1            1 RESIDUE      1      MOL     
@<SCITEGIC>MOL_PROPERTY
VConf Rank
SciTegic.value.IntegerValue
306

@<SCITEGIC>MOL_PROPERTY
Conf_Id
SciTegic.value.IntegerValue
20

@<SCITEGIC>MOL_PROPERTY
Delta U+W
SciTegic.value.DoubleValue
-0.010

@<SCITEGIC>MOL_PROPERTY
U+W
SciTegic.value.DoubleValue
-56.914

@<SCITEGIC>MOL_PROPERTY
Grad RMS
SciTegic.value.DoubleValue
0.000000

@<SCITEGIC>MOL_PROPERTY
U
SciTegic.value.DoubleValue
8.277

@<SCITEGIC>MOL_PROPERTY
W
SciTegic.value.DoubleValue
-65.191

@<SCITEGIC>MOL_PROPERTY
W(PB)
SciTegic.value.DoubleValue
-67.081

@<SCITEGIC>MOL_PROPERTY
W(SA)
SciTegic.value.DoubleValue
1.890

@<SCITEGIC>MOL_PROPERTY
Valence
SciTegic.value.DoubleValue
6.513

@<SCITEGIC>MOL_PROPERTY
Coulomb
SciTegic.value.DoubleValue
1.429

@<SCITEGIC>MOL_PROPERTY
VdW
SciTegic.value.DoubleValue
0.335

@<SCITEGIC>MOL_PROPERTY
VdW6
SciTegic.value.DoubleValue
-5.021

@<SCITEGIC>MOL_PROPERTY
VdW12
SciTegic.value.DoubleValue
5.356

@<SCITEGIC>MOL_PROPERTY
Bond
SciTegic.value.DoubleValue
0.092

@<SCITEGIC>MOL_PROPERTY
Angle
SciTegic.value.DoubleValue
2.417

@<SCITEGIC>MOL_PROPERTY
Pdih
SciTegic.value.DoubleValue
4.002

@<SCITEGIC>MOL_PROPERTY
Idih
SciTegic.value.DoubleValue
0.001

@<SCITEGIC>MOL_PROPERTY
Tether
SciTegic.value.DoubleValue
0.000

@<TRIPOS>MOLECULE
guest-s18_confgen4.mol2 : confsearch ligand conformer 307
          16          15           1
SMALL
USER_CHARGES
 
@<TRIPOS>ATOM
       1    C1      18.229960   20.469745   22.661831 C.2        1 MOL1         0.6075
       2    O1      17.311082   20.699403   21.900447 O.co2      1 MOL1        -0.6830
       3    O2      18.816308   21.332911   23.284278 O.co2      1 MOL1        -0.6830
       4    C2      18.644862   19.015872   22.871247 C.3        1 MOL1        -0.2050
       5    H1      17.734981   18.446756   23.095088 H          1 MOL1         0.0710
       6    H2      19.276153   18.955310   23.765143 H          1 MOL1         0.0710
       7    C3      19.361721   18.376913   21.650378 C.3        1 MOL1        -0.1947
       8    H3      19.550165   17.315068   21.858577 H          1 MOL1         0.0712
       9    H4      18.682078   18.405667   20.787468 H          1 MOL1         0.0712
      10    C4      20.692719   19.063237   21.261285 C.3        1 MOL1        -0.1921
      11    H5      20.511996   20.119187   21.016528 H          1 MOL1         0.0712
      12    H6      21.075993   18.594669   20.344403 H          1 MOL1         0.0712
      13    C5      21.772445   18.964330   22.359853 C.3        1 MOL1        -0.2936
      14    H7      21.481287   19.527210   23.255889 H          1 MOL1         0.0724
      15    H8      22.723186   19.379886   22.001711 H          1 MOL1         0.0724
      16    H9      21.946664   17.919585   22.648335 H          1 MOL1         0.0724
@<TRIPOS>BOND
    1     1     2    1
    2     1     3    2
    3     1     4    1
    4     4     5    1
    5     4     6    1
    6     4     7    1
    7     7     8    1
    8     7     9    1
    9     7    10    1
   10    10    11    1
   11    10    12    1
   12    10    13    1
   13    13    14    1
   14    13    15    1
   15    13    16    1
@<TRIPOS>SUBSTRUCTURE
       1 MOL1            1 RESIDUE      1      MOL     
@<SCITEGIC>MOL_PROPERTY
VConf Rank
SciTegic.value.IntegerValue
307

@<SCITEGIC>MOL_PROPERTY
Conf_Id
SciTegic.value.IntegerValue
37

@<SCITEGIC>MOL_PROPERTY
Delta U+W
SciTegic.value.DoubleValue
1.063

@<SCITEGIC>MOL_PROPERTY
U+W
SciTegic.value.DoubleValue
-55.841

@<SCITEGIC>MOL_PROPERTY
Grad RMS
SciTegic.value.DoubleValue
0.000000

@<SCITEGIC>MOL_PROPERTY
U
SciTegic.value.DoubleValue
9.719

@<SCITEGIC>MOL_PROPERTY
W
SciTegic.value.DoubleValue
-65.560

@<SCITEGIC>MOL_PROPERTY
W(PB)
SciTegic.value.DoubleValue
-67.414

@<SCITEGIC>MOL_PROPERTY
W(SA)
SciTegic.value.DoubleValue
1.854

@<SCITEGIC>MOL_PROPERTY
Valence
SciTegic.value.DoubleValue
7.002

@<SCITEGIC>MOL_PROPERTY
Coulomb
SciTegic.value.DoubleValue
2.402

@<SCITEGIC>MOL_PROPERTY
VdW
SciTegic.value.DoubleValue
0.314

@<SCITEGIC>MOL_PROPERTY
VdW6
SciTegic.value.DoubleValue
-5.861

@<SCITEGIC>MOL_PROPERTY
VdW12
SciTegic.value.DoubleValue
6.175

@<SCITEGIC>MOL_PROPERTY
Bond
SciTegic.value.DoubleValue
0.134

@<SCITEGIC>MOL_PROPERTY
Angle
SciTegic.value.DoubleValue
2.733

@<SCITEGIC>MOL_PROPERTY
Pdih
SciTegic.value.DoubleValue
4.133

@<SCITEGIC>MOL_PROPERTY
Idih
SciTegic.value.DoubleValue
0.002

@<SCITEGIC>MOL_PROPERTY
Tether
SciTegic.value.DoubleValue
0.000

@<TRIPOS>MOLECULE
guest-s18_confgen4.mol2 : confsearch ligand conformer 308
          16          15           1
SMALL
USER_CHARGES
 
@<TRIPOS>ATOM
       1    C1      19.023146   17.430725   21.488399 C.2        1 MOL1         0.6075
       2    O1      19.548250   16.412912   21.082067 O.co2      1 MOL1        -0.6830
       3    O2      18.098238   17.439224   22.276291 O.co2      1 MOL1        -0.6830
       4    C2      19.531642   18.766333   20.952368 C.3        1 MOL1        -0.2050
       5    H1      18.797729   19.544209   21.192221 H          1 MOL1         0.0710
       6    H2      19.556492   18.690023   19.859006 H          1 MOL1         0.0710
       7    C3      20.940750   19.164602   21.470513 C.3        1 MOL1        -0.1947
       8    H3      21.659843   18.391296   21.166776 H          1 MOL1         0.0712
       9    H4      21.258010   20.091838   20.974580 H          1 MOL1         0.0712
      10    C4      21.026839   19.352457   23.003905 C.3        1 MOL1        -0.1921
      11    H5      22.072795   19.549142   23.276704 H          1 MOL1         0.0712
      12    H6      20.745054   18.419630   23.511870 H          1 MOL1         0.0712
      13    C5      20.149972   20.510715   23.525426 C.3        1 MOL1        -0.2936
      14    H7      20.387628   21.449028   23.007589 H          1 MOL1         0.0724
      15    H8      20.317041   20.664777   24.599303 H          1 MOL1         0.0724
      16    H9      19.082869   20.297237   23.383281 H          1 MOL1         0.0724
@<TRIPOS>BOND
    1     1     2    1
    2     1     3    2
    3     1     4    1
    4     4     5    1
    5     4     6    1
    6     4     7    1
    7     7     8    1
    8     7     9    1
    9     7    10    1
   10    10    11    1
   11    10    12    1
   12    10    13    1
   13    13    14    1
   14    13    15    1
   15    13    16    1
@<TRIPOS>SUBSTRUCTURE
       1 MOL1            1 RESIDUE      1      MOL     
@<SCITEGIC>MOL_PROPERTY
VConf Rank
SciTegic.value.IntegerValue
308

@<SCITEGIC>MOL_PROPERTY
Conf_Id
SciTegic.value.IntegerValue
39

@<SCITEGIC>MOL_PROPERTY
Delta U+W
SciTegic.value.DoubleValue
1.129

@<SCITEGIC>MOL_PROPERTY
U+W
SciTegic.value.DoubleValue
-55.775

@<SCITEGIC>MOL_PROPERTY
Grad RMS
SciTegic.value.DoubleValue
0.000000

@<SCITEGIC>MOL_PROPERTY
U
SciTegic.value.DoubleValue
9.718

@<SCITEGIC>MOL_PROPERTY
W
SciTegic.value.DoubleValue
-65.493

@<SCITEGIC>MOL_PROPERTY
W(PB)
SciTegic.value.DoubleValue
-67.361

@<SCITEGIC>MOL_PROPERTY
W(SA)
SciTegic.value.DoubleValue
1.869

@<SCITEGIC>MOL_PROPERTY
Valence
SciTegic.value.DoubleValue
7.002

@<SCITEGIC>MOL_PROPERTY
Coulomb
SciTegic.value.DoubleValue
2.402

@<SCITEGIC>MOL_PROPERTY
VdW
SciTegic.value.DoubleValue
0.314

@<SCITEGIC>MOL_PROPERTY
VdW6
SciTegic.value.DoubleValue
-5.861

@<SCITEGIC>MOL_PROPERTY
VdW12
SciTegic.value.DoubleValue
6.175

@<SCITEGIC>MOL_PROPERTY
Bond
SciTegic.value.DoubleValue
0.134

@<SCITEGIC>MOL_PROPERTY
Angle
SciTegic.value.DoubleValue
2.734

@<SCITEGIC>MOL_PROPERTY
Pdih
SciTegic.value.DoubleValue
4.133

@<SCITEGIC>MOL_PROPERTY
Idih
SciTegic.value.DoubleValue
0.002

@<SCITEGIC>MOL_PROPERTY
Tether
SciTegic.value.DoubleValue
0.000

@<TRIPOS>MOLECULE
guest-s18_confgen4.mol2 : confsearch ligand conformer 309
          16          15           1
SMALL
USER_CHARGES
 
@<TRIPOS>ATOM
       1    C1      21.289551   19.759797   23.528586 C.2        1 MOL1         0.6075
       2    O1      21.109885   19.335292   24.653013 O.co2      1 MOL1        -0.6830
       3    O2      21.498222   20.931389   23.281627 O.co2      1 MOL1        -0.6830
       4    C2      21.345058   18.755264   22.379026 C.3        1 MOL1        -0.2050
       5    H1      21.217048   17.743526   22.782732 H          1 MOL1         0.0710
       6    H2      22.362799   18.804651   21.974659 H          1 MOL1         0.0710
       7    C3      20.331641   19.006933   21.227230 C.3        1 MOL1        -0.1947
       8    H3      20.319835   20.074077   20.965305 H          1 MOL1         0.0712
       9    H4      20.695361   18.480238   20.334620 H          1 MOL1         0.0712
      10    C4      18.892502   18.513846   21.512370 C.3        1 MOL1        -0.1921
      11    H5      18.908868   17.447251   21.775693 H          1 MOL1         0.0712
      12    H6      18.308001   18.593695   20.585399 H          1 MOL1         0.0712
      13    C5      18.167654   19.310152   22.617259 C.3        1 MOL1        -0.2936
      14    H7      18.618521   19.129893   23.600735 H          1 MOL1         0.0724
      15    H8      17.113495   19.010399   22.677804 H          1 MOL1         0.0724
      16    H9      18.202847   20.388413   22.413682 H          1 MOL1         0.0724
@<TRIPOS>BOND
    1     1     2    1
    2     1     3    2
    3     1     4    1
    4     4     5    1
    5     4     6    1
    6     4     7    1
    7     7     8    1
    8     7     9    1
    9     7    10    1
   10    10    11    1
   11    10    12    1
   12    10    13    1
   13    13    14    1
   14    13    15    1
   15    13    16    1
@<TRIPOS>SUBSTRUCTURE
       1 MOL1            1 RESIDUE      1      MOL     
@<SCITEGIC>MOL_PROPERTY
VConf Rank
SciTegic.value.IntegerValue
309

@<SCITEGIC>MOL_PROPERTY
Conf_Id
SciTegic.value.IntegerValue
47

@<SCITEGIC>MOL_PROPERTY
Delta U+W
SciTegic.value.DoubleValue
2.301

@<SCITEGIC>MOL_PROPERTY
U+W
SciTegic.value.DoubleValue
-54.603

@<SCITEGIC>MOL_PROPERTY
Grad RMS
SciTegic.value.DoubleValue
0.000000

@<SCITEGIC>MOL_PROPERTY
U
SciTegic.value.DoubleValue
11.258

@<SCITEGIC>MOL_PROPERTY
W
SciTegic.value.DoubleValue
-65.861

@<SCITEGIC>MOL_PROPERTY
W(PB)
SciTegic.value.DoubleValue
-67.702

@<SCITEGIC>MOL_PROPERTY
W(SA)
SciTegic.value.DoubleValue
1.841

@<SCITEGIC>MOL_PROPERTY
Valence
SciTegic.value.DoubleValue
8.169

@<SCITEGIC>MOL_PROPERTY
Coulomb
SciTegic.value.DoubleValue
2.735

@<SCITEGIC>MOL_PROPERTY
VdW
SciTegic.value.DoubleValue
0.355

@<SCITEGIC>MOL_PROPERTY
VdW6
SciTegic.value.DoubleValue
-6.245

@<SCITEGIC>MOL_PROPERTY
VdW12
SciTegic.value.DoubleValue
6.600

@<SCITEGIC>MOL_PROPERTY
Bond
SciTegic.value.DoubleValue
0.149

@<SCITEGIC>MOL_PROPERTY
Angle
SciTegic.value.DoubleValue
3.168

@<SCITEGIC>MOL_PROPERTY
Pdih
SciTegic.value.DoubleValue
4.840

@<SCITEGIC>MOL_PROPERTY
Idih
SciTegic.value.DoubleValue
0.011

@<SCITEGIC>MOL_PROPERTY
Tether
SciTegic.value.DoubleValue
0.000

@<TRIPOS>MOLECULE
guest-s18_confgen4.mol2 : confsearch ligand conformer 310
          16          15           1
SMALL
USER_CHARGES
 
@<TRIPOS>ATOM
       1    C1      19.226579   20.885004   21.617755 C.2        1 MOL1         0.6075
       2    O1      20.180452   21.628883   21.499729 O.co2      1 MOL1        -0.6830
       3    O2      18.194048   21.204849   22.173090 O.co2      1 MOL1        -0.6830
       4    C2      19.293604   19.509436   20.956705 C.3        1 MOL1        -0.2050
       5    H1      19.408479   19.688874   19.881366 H          1 MOL1         0.0710
       6    H2      18.329819   19.002788   21.088630 H          1 MOL1         0.0710
       7    C3      20.453027   18.594642   21.442377 C.3        1 MOL1        -0.1947
       8    H3      20.621755   17.825755   20.676350 H          1 MOL1         0.0712
       9    H4      21.385910   19.172304   21.502176 H          1 MOL1         0.0712
      10    C4      20.188234   17.872469   22.785475 C.3        1 MOL1        -0.1921
      11    H5      20.990461   17.139880   22.949915 H          1 MOL1         0.0712
      12    H6      19.253965   17.297695   22.722171 H          1 MOL1         0.0712
      13    C5      20.133813   18.819014   24.002594 C.3        1 MOL1        -0.2936
      14    H7      20.084504   18.242554   24.935349 H          1 MOL1         0.0724
      15    H8      19.247988   19.464811   23.967092 H          1 MOL1         0.0724
      16    H9      21.025517   19.458059   24.045172 H          1 MOL1         0.0724
@<TRIPOS>BOND
    1     1     2    1
    2     1     3    2
    3     1     4    1
    4     4     5    1
    5     4     6    1
    6     4     7    1
    7     7     8    1
    8     7     9    1
    9     7    10    1
   10    10    11    1
   11    10    12    1
   12    10    13    1
   13    13    14    1
   14    13    15    1
   15    13    16    1
@<TRIPOS>SUBSTRUCTURE
       1 MOL1            1 RESIDUE      1      MOL     
@<SCITEGIC>MOL_PROPERTY
VConf Rank
SciTegic.value.IntegerValue
310

@<SCITEGIC>MOL_PROPERTY
Conf_Id
SciTegic.value.IntegerValue
45

@<SCITEGIC>MOL_PROPERTY
Delta U+W
SciTegic.value.DoubleValue
2.303

@<SCITEGIC>MOL_PROPERTY
U+W
SciTegic.value.DoubleValue
-54.601

@<SCITEGIC>MOL_PROPERTY
Grad RMS
SciTegic.value.DoubleValue
0.000000

@<SCITEGIC>MOL_PROPERTY
U
SciTegic.value.DoubleValue
11.258

@<SCITEGIC>MOL_PROPERTY
W
SciTegic.value.DoubleValue
-65.860

@<SCITEGIC>MOL_PROPERTY
W(PB)
SciTegic.value.DoubleValue
-67.709

@<SCITEGIC>MOL_PROPERTY
W(SA)
SciTegic.value.DoubleValue
1.849

@<SCITEGIC>MOL_PROPERTY
Valence
SciTegic.value.DoubleValue
8.169

@<SCITEGIC>MOL_PROPERTY
Coulomb
SciTegic.value.DoubleValue
2.735

@<SCITEGIC>MOL_PROPERTY
VdW
SciTegic.value.DoubleValue
0.355

@<SCITEGIC>MOL_PROPERTY
VdW6
SciTegic.value.DoubleValue
-6.245

@<SCITEGIC>MOL_PROPERTY
VdW12
SciTegic.value.DoubleValue
6.600

@<SCITEGIC>MOL_PROPERTY
Bond
SciTegic.value.DoubleValue
0.149

@<SCITEGIC>MOL_PROPERTY
Angle
SciTegic.value.DoubleValue
3.168

@<SCITEGIC>MOL_PROPERTY
Pdih
SciTegic.value.DoubleValue
4.840

@<SCITEGIC>MOL_PROPERTY
Idih
SciTegic.value.DoubleValue
0.011

@<SCITEGIC>MOL_PROPERTY
Tether
SciTegic.value.DoubleValue
0.000

@<TRIPOS>MOLECULE
guest-s18_confgen4.mol2 : confsearch ligand conformer 311
          16          15           1
SMALL
USER_CHARGES
 
@<TRIPOS>ATOM
       1    C1      22.103450   18.521953   20.248588 C.2        1 MOL1         0.6075
       2    O1      21.684026   17.418157   19.959636 O.co2      1 MOL1        -0.6830
       3    O2      23.139154   18.974223   19.803524 O.co2      1 MOL1        -0.6830
       4    C2      21.313588   19.406357   21.214943 C.3        1 MOL1        -0.2050
       5    H1      21.092341   20.344934   20.693135 H          1 MOL1         0.0710
       6    H2      21.978859   19.653261   22.050775 H          1 MOL1         0.0710
       7    C3      19.998510   18.786621   21.757938 C.3        1 MOL1        -0.1947
       8    H3      19.338415   18.536368   20.915847 H          1 MOL1         0.0712
       9    H4      20.225850   17.843996   22.274896 H          1 MOL1         0.0712
      10    C4      19.268581   19.744654   22.722632 C.3        1 MOL1        -0.1921
      11    H5      19.039065   20.687126   22.206329 H          1 MOL1         0.0712
      12    H6      19.927024   19.994349   23.566198 H          1 MOL1         0.0712
      13    C5      17.963456   19.123621   23.258458 C.3        1 MOL1        -0.2936
      14    H7      17.272424   18.892483   22.437166 H          1 MOL1         0.0724
      15    H8      17.457256   19.817282   23.942372 H          1 MOL1         0.0724
      16    H9      18.166929   18.194594   23.807070 H          1 MOL1         0.0724
@<TRIPOS>BOND
    1     1     2    1
    2     1     3    2
    3     1     4    1
    4     4     5    1
    5     4     6    1
    6     4     7    1
    7     7     8    1
    8     7     9    1
    9     7    10    1
   10    10    11    1
   11    10    12    1
   12    10    13    1
   13    13    14    1
   14    13    15    1
   15    13    16    1
@<TRIPOS>SUBSTRUCTURE
       1 MOL1            1 RESIDUE      1      MOL     
@<SCITEGIC>MOL_PROPERTY
VConf Rank
SciTegic.value.IntegerValue
311

@<SCITEGIC>MOL_PROPERTY
Conf_Id
SciTegic.value.IntegerValue
0

@<SCITEGIC>MOL_PROPERTY
Delta U+W
SciTegic.value.DoubleValue
0.000

@<SCITEGIC>MOL_PROPERTY
U+W
SciTegic.value.DoubleValue
-56.904

@<SCITEGIC>MOL_PROPERTY
Grad RMS
SciTegic.value.DoubleValue
0.000000

@<SCITEGIC>MOL_PROPERTY
U
SciTegic.value.DoubleValue
7.329

@<SCITEGIC>MOL_PROPERTY
W
SciTegic.value.DoubleValue
-64.233

@<SCITEGIC>MOL_PROPERTY
W(PB)
SciTegic.value.DoubleValue
-66.148

@<SCITEGIC>MOL_PROPERTY
W(SA)
SciTegic.value.DoubleValue
1.915

@<SCITEGIC>MOL_PROPERTY
Valence
SciTegic.value.DoubleValue
6.755

@<SCITEGIC>MOL_PROPERTY
Coulomb
SciTegic.value.DoubleValue
-0.421

@<SCITEGIC>MOL_PROPERTY
VdW
SciTegic.value.DoubleValue
0.995

@<SCITEGIC>MOL_PROPERTY
VdW6
SciTegic.value.DoubleValue
-4.495

@<SCITEGIC>MOL_PROPERTY
VdW12
SciTegic.value.DoubleValue
5.490

@<SCITEGIC>MOL_PROPERTY
Bond
SciTegic.value.DoubleValue
0.106

@<SCITEGIC>MOL_PROPERTY
Angle
SciTegic.value.DoubleValue
2.715

@<SCITEGIC>MOL_PROPERTY
Pdih
SciTegic.value.DoubleValue
3.934

@<SCITEGIC>MOL_PROPERTY
Idih
SciTegic.value.DoubleValue
0.000

@<SCITEGIC>MOL_PROPERTY
Tether
SciTegic.value.DoubleValue
0.000

@<TRIPOS>MOLECULE
guest-s18_confgen4.mol2 : confsearch ligand conformer 312
          16          15           1
SMALL
USER_CHARGES
 
@<TRIPOS>ATOM
       1    C1      19.436200   19.471566   24.584668 C.2        1 MOL1         0.6075
       2    O1      18.667532   18.650927   25.044606 O.co2      1 MOL1        -0.6830
       3    O2      20.303422   20.018999   25.235887 O.co2      1 MOL1        -0.6830
       4    C2      19.317765   19.820052   23.105102 C.3        1 MOL1        -0.2050
       5    H1      19.610416   20.869282   22.977353 H          1 MOL1         0.0710
       6    H2      18.261761   19.741269   22.819623 H          1 MOL1         0.0710
       7    C3      20.184635   18.910141   22.200304 C.3        1 MOL1        -0.1947
       8    H3      21.236973   18.990497   22.506373 H          1 MOL1         0.0712
       9    H4      19.888306   17.862418   22.348683 H          1 MOL1         0.0712
      10    C4      20.046539   19.283616   20.709664 C.3        1 MOL1        -0.1921
      11    H5      20.343436   20.331098   20.560760 H          1 MOL1         0.0712
      12    H6      18.994407   19.202763   20.403038 H          1 MOL1         0.0712
      13    C5      20.911884   18.374037   19.815269 C.3        1 MOL1        -0.2936
      14    H7      20.615120   17.322248   19.920828 H          1 MOL1         0.0724
      15    H8      21.974112   18.458900   20.079733 H          1 MOL1         0.0724
      16    H9      20.802234   18.652779   18.759130 H          1 MOL1         0.0724
@<TRIPOS>BOND
    1     1     2    1
    2     1     3    2
    3     1     4    1
    4     4     5    1
    5     4     6    1
    6     4     7    1
    7     7     8    1
    8     7     9    1
    9     7    10    1
   10    10    11    1
   11    10    12    1
   12    10    13    1
   13    13    14    1
   14    13    15    1
   15    13    16    1
@<TRIPOS>SUBSTRUCTURE
       1 MOL1            1 RESIDUE      1      MOL     
@<SCITEGIC>MOL_PROPERTY
VConf Rank
SciTegic.value.IntegerValue
312

@<SCITEGIC>MOL_PROPERTY
Conf_Id
SciTegic.value.IntegerValue
22

@<SCITEGIC>MOL_PROPERTY
Delta U+W
SciTegic.value.DoubleValue
-1.185

@<SCITEGIC>MOL_PROPERTY
U+W
SciTegic.value.DoubleValue
-58.089

@<SCITEGIC>MOL_PROPERTY
Grad RMS
SciTegic.value.DoubleValue
0.000000

@<SCITEGIC>MOL_PROPERTY
U
SciTegic.value.DoubleValue
6.298

@<SCITEGIC>MOL_PROPERTY
W
SciTegic.value.DoubleValue
-64.387

@<SCITEGIC>MOL_PROPERTY
W(PB)
SciTegic.value.DoubleValue
-66.329

@<SCITEGIC>MOL_PROPERTY
W(SA)
SciTegic.value.DoubleValue
1.942

@<SCITEGIC>MOL_PROPERTY
Valence
SciTegic.value.DoubleValue
6.246

@<SCITEGIC>MOL_PROPERTY
Coulomb
SciTegic.value.DoubleValue
-0.408

@<SCITEGIC>MOL_PROPERTY
VdW
SciTegic.value.DoubleValue
0.460

@<SCITEGIC>MOL_PROPERTY
VdW6
SciTegic.value.DoubleValue
-4.207

@<SCITEGIC>MOL_PROPERTY
VdW12
SciTegic.value.DoubleValue
4.667

@<SCITEGIC>MOL_PROPERTY
Bond
SciTegic.value.DoubleValue
0.072

@<SCITEGIC>MOL_PROPERTY
Angle
SciTegic.value.DoubleValue
2.246

@<SCITEGIC>MOL_PROPERTY
Pdih
SciTegic.value.DoubleValue
3.928

@<SCITEGIC>MOL_PROPERTY
Idih
SciTegic.value.DoubleValue
0.001

@<SCITEGIC>MOL_PROPERTY
Tether
SciTegic.value.DoubleValue
0.000

@<TRIPOS>MOLECULE
guest-s18_confgen4.mol2 : confsearch ligand conformer 313
          16          15           1
SMALL
USER_CHARGES
 
@<TRIPOS>ATOM
       1    C1      20.303126   19.056449   19.424407 C.2        1 MOL1         0.6075
       2    O1      19.487253   19.506352   18.644706 O.co2      1 MOL1        -0.6830
       3    O2      21.136294   18.226348   19.119906 O.co2      1 MOL1        -0.6830
       4    C2      20.266077   19.545533   20.868012 C.3        1 MOL1        -0.2050
       5    H1      19.927784   20.588662   20.865545 H          1 MOL1         0.0710
       6    H2      21.293206   19.537751   21.250193 H          1 MOL1         0.0710
       7    C3      19.342429   18.686502   21.770195 C.3        1 MOL1        -0.1947
       8    H3      18.343771   18.643418   21.313846 H          1 MOL1         0.0712
       9    H4      19.715741   17.653485   21.798869 H          1 MOL1         0.0712
      10    C4      19.207344   19.233076   23.210132 C.3        1 MOL1        -0.1921
      11    H5      18.456866   18.635441   23.745786 H          1 MOL1         0.0712
      12    H6      18.822871   20.262047   23.182189 H          1 MOL1         0.0712
      13    C5      20.531702   19.195073   24.002322 C.3        1 MOL1        -0.2936
      14    H7      21.279294   19.869295   23.566074 H          1 MOL1         0.0724
      15    H8      20.950398   18.180353   24.019262 H          1 MOL1         0.0724
      16    H9      20.366560   19.509789   25.040922 H          1 MOL1         0.0724
@<TRIPOS>BOND
    1     1     2    1
    2     1     3    2
    3     1     4    1
    4     4     5    1
    5     4     6    1
    6     4     7    1
    7     7     8    1
    8     7     9    1
    9     7    10    1
   10    10    11    1
   11    10    12    1
   12    10    13    1
   13    13    14    1
   14    13    15    1
   15    13    16    1
@<TRIPOS>SUBSTRUCTURE
       1 MOL1            1 RESIDUE      1      MOL     
@<SCITEGIC>MOL_PROPERTY
VConf Rank
SciTegic.value.IntegerValue
313

@<SCITEGIC>MOL_PROPERTY
Conf_Id
SciTegic.value.IntegerValue
36

@<SCITEGIC>MOL_PROPERTY
Delta U+W
SciTegic.value.DoubleValue
-0.427

@<SCITEGIC>MOL_PROPERTY
U+W
SciTegic.value.DoubleValue
-57.331

@<SCITEGIC>MOL_PROPERTY
Grad RMS
SciTegic.value.DoubleValue
0.000000

@<SCITEGIC>MOL_PROPERTY
U
SciTegic.value.DoubleValue
7.263

@<SCITEGIC>MOL_PROPERTY
W
SciTegic.value.DoubleValue
-64.594

@<SCITEGIC>MOL_PROPERTY
W(PB)
SciTegic.value.DoubleValue
-66.513

@<SCITEGIC>MOL_PROPERTY
W(SA)
SciTegic.value.DoubleValue
1.920

@<SCITEGIC>MOL_PROPERTY
Valence
SciTegic.value.DoubleValue
6.734

@<SCITEGIC>MOL_PROPERTY
Coulomb
SciTegic.value.DoubleValue
-0.068

@<SCITEGIC>MOL_PROPERTY
VdW
SciTegic.value.DoubleValue
0.598

@<SCITEGIC>MOL_PROPERTY
VdW6
SciTegic.value.DoubleValue
-4.819

@<SCITEGIC>MOL_PROPERTY
VdW12
SciTegic.value.DoubleValue
5.417

@<SCITEGIC>MOL_PROPERTY
Bond
SciTegic.value.DoubleValue
0.107

@<SCITEGIC>MOL_PROPERTY
Angle
SciTegic.value.DoubleValue
2.469

@<SCITEGIC>MOL_PROPERTY
Pdih
SciTegic.value.DoubleValue
4.157

@<SCITEGIC>MOL_PROPERTY
Idih
SciTegic.value.DoubleValue
0.001

@<SCITEGIC>MOL_PROPERTY
Tether
SciTegic.value.DoubleValue
0.000

@<TRIPOS>MOLECULE
guest-s18_confgen4.mol2 : confsearch ligand conformer 314
          16          15           1
SMALL
USER_CHARGES
 
@<TRIPOS>ATOM
       1    C1      21.831227   19.334116   20.207001 C.2        1 MOL1         0.6075
       2    O1      22.375745   20.419010   20.256646 O.co2      1 MOL1        -0.6830
       3    O2      21.887570   18.598025   19.242123 O.co2      1 MOL1        -0.6830
       4    C2      21.016304   18.880098   21.412961 C.3        1 MOL1        -0.2050
       5    H1      21.494156   19.286476   22.311644 H          1 MOL1         0.0710
       6    H2      21.081257   17.787218   21.475896 H          1 MOL1         0.0710
       7    C3      19.532202   19.323571   21.337013 C.3        1 MOL1        -0.1947
       8    H3      19.478047   20.420839   21.317532 H          1 MOL1         0.0712
       9    H4      19.107555   18.974591   20.385532 H          1 MOL1         0.0712
      10    C4      18.666979   18.778551   22.496648 C.3        1 MOL1        -0.1921
      11    H5      18.711623   17.680720   22.509053 H          1 MOL1         0.0712
      12    H6      17.617472   19.044716   22.309565 H          1 MOL1         0.0712
      13    C5      19.081945   19.330610   23.877214 C.3        1 MOL1        -0.2936
      14    H7      20.087587   18.993527   24.158004 H          1 MOL1         0.0724
      15    H8      18.386974   18.984665   24.653323 H          1 MOL1         0.0724
      16    H9      19.072645   20.428406   23.880324 H          1 MOL1         0.0724
@<TRIPOS>BOND
    1     1     2    1
    2     1     3    2
    3     1     4    1
    4     4     5    1
    5     4     6    1
    6     4     7    1
    7     7     8    1
    8     7     9    1
    9     7    10    1
   10    10    11    1
   11    10    12    1
   12    10    13    1
   13    13    14    1
   14    13    15    1
   15    13    16    1
@<TRIPOS>SUBSTRUCTURE
       1 MOL1            1 RESIDUE      1      MOL     
@<SCITEGIC>MOL_PROPERTY
VConf Rank
SciTegic.value.IntegerValue
314

@<SCITEGIC>MOL_PROPERTY
Conf_Id
SciTegic.value.IntegerValue
17

@<SCITEGIC>MOL_PROPERTY
Delta U+W
SciTegic.value.DoubleValue
-0.432

@<SCITEGIC>MOL_PROPERTY
U+W
SciTegic.value.DoubleValue
-57.336

@<SCITEGIC>MOL_PROPERTY
Grad RMS
SciTegic.value.DoubleValue
0.000000

@<SCITEGIC>MOL_PROPERTY
U
SciTegic.value.DoubleValue
7.263

@<SCITEGIC>MOL_PROPERTY
W
SciTegic.value.DoubleValue
-64.599

@<SCITEGIC>MOL_PROPERTY
W(PB)
SciTegic.value.DoubleValue
-66.503

@<SCITEGIC>MOL_PROPERTY
W(SA)
SciTegic.value.DoubleValue
1.904

@<SCITEGIC>MOL_PROPERTY
Valence
SciTegic.value.DoubleValue
6.734

@<SCITEGIC>MOL_PROPERTY
Coulomb
SciTegic.value.DoubleValue
-0.068

@<SCITEGIC>MOL_PROPERTY
VdW
SciTegic.value.DoubleValue
0.598

@<SCITEGIC>MOL_PROPERTY
VdW6
SciTegic.value.DoubleValue
-4.819

@<SCITEGIC>MOL_PROPERTY
VdW12
SciTegic.value.DoubleValue
5.417

@<SCITEGIC>MOL_PROPERTY
Bond
SciTegic.value.DoubleValue
0.107

@<SCITEGIC>MOL_PROPERTY
Angle
SciTegic.value.DoubleValue
2.469

@<SCITEGIC>MOL_PROPERTY
Pdih
SciTegic.value.DoubleValue
4.157

@<SCITEGIC>MOL_PROPERTY
Idih
SciTegic.value.DoubleValue
0.001

@<SCITEGIC>MOL_PROPERTY
Tether
SciTegic.value.DoubleValue
0.000

@<TRIPOS>MOLECULE
guest-s18_confgen4.mol2 : confsearch ligand conformer 315
          16          15           1
SMALL
USER_CHARGES
 
@<TRIPOS>ATOM
       1    C1      19.244391   16.962985   22.390546 C.2        1 MOL1         0.6075
       2    O1      18.405034   16.898252   23.266692 O.co2      1 MOL1        -0.6830
       3    O2      19.090970   16.498033   21.278546 O.co2      1 MOL1        -0.6830
       4    C2      20.571321   17.644300   22.713905 C.3        1 MOL1        -0.2050
       5    H1      21.319121   17.322035   21.979042 H          1 MOL1         0.0710
       6    H2      20.903517   17.269572   23.689333 H          1 MOL1         0.0710
       7    C3      20.493578   19.192647   22.754057 C.3        1 MOL1        -0.1947
       8    H3      19.721242   19.499980   23.472852 H          1 MOL1         0.0712
       9    H4      21.448069   19.587870   23.127290 H          1 MOL1         0.0712
      10    C4      20.194508   19.808327   21.369977 C.3        1 MOL1        -0.1921
      11    H5      19.230997   19.435495   20.995322 H          1 MOL1         0.0712
      12    H6      20.960621   19.490111   20.649430 H          1 MOL1         0.0712
      13    C5      20.156204   21.348163   21.431472 C.3        1 MOL1        -0.2936
      14    H7      19.376478   21.694004   22.122754 H          1 MOL1         0.0724
      15    H8      19.941875   21.769391   20.440640 H          1 MOL1         0.0724
      16    H9      21.119174   21.752116   21.770482 H          1 MOL1         0.0724
@<TRIPOS>BOND
    1     1     2    1
    2     1     3    2
    3     1     4    1
    4     4     5    1
    5     4     6    1
    6     4     7    1
    7     7     8    1
    8     7     9    1
    9     7    10    1
   10    10    11    1
   11    10    12    1
   12    10    13    1
   13    13    14    1
   14    13    15    1
   15    13    16    1
@<TRIPOS>SUBSTRUCTURE
       1 MOL1            1 RESIDUE      1      MOL     
@<SCITEGIC>MOL_PROPERTY
VConf Rank
SciTegic.value.IntegerValue
315

@<SCITEGIC>MOL_PROPERTY
Conf_Id
SciTegic.value.IntegerValue
19

@<SCITEGIC>MOL_PROPERTY
Delta U+W
SciTegic.value.DoubleValue
0.048

@<SCITEGIC>MOL_PROPERTY
U+W
SciTegic.value.DoubleValue
-56.856

@<SCITEGIC>MOL_PROPERTY
Grad RMS
SciTegic.value.DoubleValue
0.000000

@<SCITEGIC>MOL_PROPERTY
U
SciTegic.value.DoubleValue
8.276

@<SCITEGIC>MOL_PROPERTY
W
SciTegic.value.DoubleValue
-65.132

@<SCITEGIC>MOL_PROPERTY
W(PB)
SciTegic.value.DoubleValue
-67.031

@<SCITEGIC>MOL_PROPERTY
W(SA)
SciTegic.value.DoubleValue
1.899

@<SCITEGIC>MOL_PROPERTY
Valence
SciTegic.value.DoubleValue
6.513

@<SCITEGIC>MOL_PROPERTY
Coulomb
SciTegic.value.DoubleValue
1.428

@<SCITEGIC>MOL_PROPERTY
VdW
SciTegic.value.DoubleValue
0.335

@<SCITEGIC>MOL_PROPERTY
VdW6
SciTegic.value.DoubleValue
-5.021

@<SCITEGIC>MOL_PROPERTY
VdW12
SciTegic.value.DoubleValue
5.356

@<SCITEGIC>MOL_PROPERTY
Bond
SciTegic.value.DoubleValue
0.092

@<SCITEGIC>MOL_PROPERTY
Angle
SciTegic.value.DoubleValue
2.417

@<SCITEGIC>MOL_PROPERTY
Pdih
SciTegic.value.DoubleValue
4.003

@<SCITEGIC>MOL_PROPERTY
Idih
SciTegic.value.DoubleValue
0.001

@<SCITEGIC>MOL_PROPERTY
Tether
SciTegic.value.DoubleValue
0.000

@<TRIPOS>MOLECULE
guest-s18_confgen4.mol2 : confsearch ligand conformer 316
          16          15           1
SMALL
USER_CHARGES
 
@<TRIPOS>ATOM
       1    C1      18.435613   19.014865   23.972506 C.2        1 MOL1         0.6075
       2    O1      17.266165   18.855457   23.683850 O.co2      1 MOL1        -0.6830
       3    O2      18.823478   19.850923   24.764232 O.co2      1 MOL1        -0.6830
       4    C2      19.468857   18.098983   23.322072 C.3        1 MOL1        -0.2050
       5    H1      19.081508   17.074789   23.378850 H          1 MOL1         0.0710
       6    H2      20.386860   18.124458   23.921827 H          1 MOL1         0.0710
       7    C3      19.784938   18.451035   21.845185 C.3        1 MOL1        -0.1947
       8    H3      20.424277   17.665277   21.420463 H          1 MOL1         0.0712
       9    H4      18.852921   18.449568   21.262977 H          1 MOL1         0.0712
      10    C4      20.491213   19.816226   21.698149 C.3        1 MOL1        -0.1921
      11    H5      21.416558   19.820504   22.290681 H          1 MOL1         0.0712
      12    H6      19.851402   20.613455   22.101624 H          1 MOL1         0.0712
      13    C5      20.823861   20.125962   20.225139 C.3        1 MOL1        -0.2936
      14    H7      21.491452   19.362807   19.804032 H          1 MOL1         0.0724
      15    H8      21.324191   21.099222   20.138229 H          1 MOL1         0.0724
      16    H9      19.911505   20.158147   19.615204 H          1 MOL1         0.0724
@<TRIPOS>BOND
    1     1     2    1
    2     1     3    2
    3     1     4    1
    4     4     5    1
    5     4     6    1
    6     4     7    1
    7     7     8    1
    8     7     9    1
    9     7    10    1
   10    10    11    1
   11    10    12    1
   12    10    13    1
   13    13    14    1
   14    13    15    1
   15    13    16    1
@<TRIPOS>SUBSTRUCTURE
       1 MOL1            1 RESIDUE      1      MOL     
@<SCITEGIC>MOL_PROPERTY
VConf Rank
SciTegic.value.IntegerValue
316

@<SCITEGIC>MOL_PROPERTY
Conf_Id
SciTegic.value.IntegerValue
20

@<SCITEGIC>MOL_PROPERTY
Delta U+W
SciTegic.value.DoubleValue
-0.010

@<SCITEGIC>MOL_PROPERTY
U+W
SciTegic.value.DoubleValue
-56.914

@<SCITEGIC>MOL_PROPERTY
Grad RMS
SciTegic.value.DoubleValue
0.000000

@<SCITEGIC>MOL_PROPERTY
U
SciTegic.value.DoubleValue
8.277

@<SCITEGIC>MOL_PROPERTY
W
SciTegic.value.DoubleValue
-65.191

@<SCITEGIC>MOL_PROPERTY
W(PB)
SciTegic.value.DoubleValue
-67.081

@<SCITEGIC>MOL_PROPERTY
W(SA)
SciTegic.value.DoubleValue
1.890

@<SCITEGIC>MOL_PROPERTY
Valence
SciTegic.value.DoubleValue
6.513

@<SCITEGIC>MOL_PROPERTY
Coulomb
SciTegic.value.DoubleValue
1.429

@<SCITEGIC>MOL_PROPERTY
VdW
SciTegic.value.DoubleValue
0.335

@<SCITEGIC>MOL_PROPERTY
VdW6
SciTegic.value.DoubleValue
-5.021

@<SCITEGIC>MOL_PROPERTY
VdW12
SciTegic.value.DoubleValue
5.356

@<SCITEGIC>MOL_PROPERTY
Bond
SciTegic.value.DoubleValue
0.092

@<SCITEGIC>MOL_PROPERTY
Angle
SciTegic.value.DoubleValue
2.417

@<SCITEGIC>MOL_PROPERTY
Pdih
SciTegic.value.DoubleValue
4.002

@<SCITEGIC>MOL_PROPERTY
Idih
SciTegic.value.DoubleValue
0.001

@<SCITEGIC>MOL_PROPERTY
Tether
SciTegic.value.DoubleValue
0.000

@<TRIPOS>MOLECULE
guest-s18_confgen4.mol2 : confsearch ligand conformer 317
          16          15           1
SMALL
USER_CHARGES
 
@<TRIPOS>ATOM
       1    C1      21.385390   19.732885   20.767404 C.2        1 MOL1         0.6075
       2    O1      22.310782   20.467468   21.051699 O.co2      1 MOL1        -0.6830
       3    O2      20.720743   19.852339   19.757318 O.co2      1 MOL1        -0.6830
       4    C2      21.065101   18.579343   21.714243 C.3        1 MOL1        -0.2050
       5    H1      22.004217   18.048706   21.910119 H          1 MOL1         0.0710
       6    H2      20.410433   17.869691   21.195542 H          1 MOL1         0.0710
       7    C3      20.434568   19.020407   23.063527 C.3        1 MOL1        -0.1947
       8    H3      20.313073   18.140135   23.709076 H          1 MOL1         0.0712
       9    H4      21.138622   19.686830   23.580774 H          1 MOL1         0.0712
      10    C4      19.072918   19.742103   22.925497 C.3        1 MOL1        -0.1921
      11    H5      19.188324   20.644920   22.309705 H          1 MOL1         0.0712
      12    H6      18.753242   20.084613   23.919289 H          1 MOL1         0.0712
      13    C5      17.967039   18.846288   22.328010 C.3        1 MOL1        -0.2936
      14    H7      18.189048   18.581178   21.286416 H          1 MOL1         0.0724
      15    H8      17.002193   19.369569   22.338460 H          1 MOL1         0.0724
      16    H9      17.855908   17.919273   22.905383 H          1 MOL1         0.0724
@<TRIPOS>BOND
    1     1     2    1
    2     1     3    2
    3     1     4    1
    4     4     5    1
    5     4     6    1
    6     4     7    1
    7     7     8    1
    8     7     9    1
    9     7    10    1
   10    10    11    1
   11    10    12    1
   12    10    13    1
   13    13    14    1
   14    13    15    1
   15    13    16    1
@<TRIPOS>SUBSTRUCTURE
       1 MOL1            1 RESIDUE      1      MOL     
@<SCITEGIC>MOL_PROPERTY
VConf Rank
SciTegic.value.IntegerValue
317

@<SCITEGIC>MOL_PROPERTY
Conf_Id
SciTegic.value.IntegerValue
37

@<SCITEGIC>MOL_PROPERTY
Delta U+W
SciTegic.value.DoubleValue
1.063

@<SCITEGIC>MOL_PROPERTY
U+W
SciTegic.value.DoubleValue
-55.841

@<SCITEGIC>MOL_PROPERTY
Grad RMS
SciTegic.value.DoubleValue
0.000000

@<SCITEGIC>MOL_PROPERTY
U
SciTegic.value.DoubleValue
9.719

@<SCITEGIC>MOL_PROPERTY
W
SciTegic.value.DoubleValue
-65.560

@<SCITEGIC>MOL_PROPERTY
W(PB)
SciTegic.value.DoubleValue
-67.414

@<SCITEGIC>MOL_PROPERTY
W(SA)
SciTegic.value.DoubleValue
1.854

@<SCITEGIC>MOL_PROPERTY
Valence
SciTegic.value.DoubleValue
7.002

@<SCITEGIC>MOL_PROPERTY
Coulomb
SciTegic.value.DoubleValue
2.402

@<SCITEGIC>MOL_PROPERTY
VdW
SciTegic.value.DoubleValue
0.314

@<SCITEGIC>MOL_PROPERTY
VdW6
SciTegic.value.DoubleValue
-5.861

@<SCITEGIC>MOL_PROPERTY
VdW12
SciTegic.value.DoubleValue
6.175

@<SCITEGIC>MOL_PROPERTY
Bond
SciTegic.value.DoubleValue
0.134

@<SCITEGIC>MOL_PROPERTY
Angle
SciTegic.value.DoubleValue
2.733

@<SCITEGIC>MOL_PROPERTY
Pdih
SciTegic.value.DoubleValue
4.133

@<SCITEGIC>MOL_PROPERTY
Idih
SciTegic.value.DoubleValue
0.002

@<SCITEGIC>MOL_PROPERTY
Tether
SciTegic.value.DoubleValue
0.000

@<TRIPOS>MOLECULE
guest-s18_confgen4.mol2 : confsearch ligand conformer 318
          16          15           1
SMALL
USER_CHARGES
 
@<TRIPOS>ATOM
       1    C1      19.946818   20.751367   23.577300 C.2        1 MOL1         0.6075
       2    O1      19.355750   20.647602   24.634020 O.co2      1 MOL1        -0.6830
       3    O2      21.040654   21.269194   23.469225 O.co2      1 MOL1        -0.6830
       4    C2      19.261319   20.234114   22.315442 C.3        1 MOL1        -0.2050
       5    H1      19.782379   20.639426   21.440532 H          1 MOL1         0.0710
       6    H2      18.250106   20.657214   22.297645 H          1 MOL1         0.0710
       7    C3      19.170672   18.685833   22.230074 C.3        1 MOL1        -0.1947
       8    H3      18.597152   18.317993   23.092119 H          1 MOL1         0.0712
       9    H4      18.595881   18.407466   21.336486 H          1 MOL1         0.0712
      10    C4      20.540722   17.967549   22.198086 C.3        1 MOL1        -0.1921
      11    H5      20.370369   16.882398   22.221658 H          1 MOL1         0.0712
      12    H6      21.112186   18.210517   23.104724 H          1 MOL1         0.0712
      13    C5      21.380005   18.312826   20.949556 C.3        1 MOL1        -0.2936
      14    H7      20.817329   18.112190   20.028574 H          1 MOL1         0.0724
      15    H8      22.296630   17.709467   20.924715 H          1 MOL1         0.0724
      16    H9      21.678326   19.368994   20.950143 H          1 MOL1         0.0724
@<TRIPOS>BOND
    1     1     2    1
    2     1     3    2
    3     1     4    1
    4     4     5    1
    5     4     6    1
    6     4     7    1
    7     7     8    1
    8     7     9    1
    9     7    10    1
   10    10    11    1
   11    10    12    1
   12    10    13    1
   13    13    14    1
   14    13    15    1
   15    13    16    1
@<TRIPOS>SUBSTRUCTURE
       1 MOL1            1 RESIDUE      1      MOL     
@<SCITEGIC>MOL_PROPERTY
VConf Rank
SciTegic.value.IntegerValue
318

@<SCITEGIC>MOL_PROPERTY
Conf_Id
SciTegic.value.IntegerValue
39

@<SCITEGIC>MOL_PROPERTY
Delta U+W
SciTegic.value.DoubleValue
1.129

@<SCITEGIC>MOL_PROPERTY
U+W
SciTegic.value.DoubleValue
-55.775

@<SCITEGIC>MOL_PROPERTY
Grad RMS
SciTegic.value.DoubleValue
0.000000

@<SCITEGIC>MOL_PROPERTY
U
SciTegic.value.DoubleValue
9.718

@<SCITEGIC>MOL_PROPERTY
W
SciTegic.value.DoubleValue
-65.493

@<SCITEGIC>MOL_PROPERTY
W(PB)
SciTegic.value.DoubleValue
-67.361

@<SCITEGIC>MOL_PROPERTY
W(SA)
SciTegic.value.DoubleValue
1.869

@<SCITEGIC>MOL_PROPERTY
Valence
SciTegic.value.DoubleValue
7.002

@<SCITEGIC>MOL_PROPERTY
Coulomb
SciTegic.value.DoubleValue
2.402

@<SCITEGIC>MOL_PROPERTY
VdW
SciTegic.value.DoubleValue
0.314

@<SCITEGIC>MOL_PROPERTY
VdW6
SciTegic.value.DoubleValue
-5.861

@<SCITEGIC>MOL_PROPERTY
VdW12
SciTegic.value.DoubleValue
6.175

@<SCITEGIC>MOL_PROPERTY
Bond
SciTegic.value.DoubleValue
0.134

@<SCITEGIC>MOL_PROPERTY
Angle
SciTegic.value.DoubleValue
2.734

@<SCITEGIC>MOL_PROPERTY
Pdih
SciTegic.value.DoubleValue
4.133

@<SCITEGIC>MOL_PROPERTY
Idih
SciTegic.value.DoubleValue
0.002

@<SCITEGIC>MOL_PROPERTY
Tether
SciTegic.value.DoubleValue
0.000

@<TRIPOS>MOLECULE
guest-s18_confgen4.mol2 : confsearch ligand conformer 319
          16          15           1
SMALL
USER_CHARGES
 
@<TRIPOS>ATOM
       1    C1      19.824425   17.739088   20.793864 C.2        1 MOL1         0.6075
       2    O1      18.688755   17.345816   20.613835 O.co2      1 MOL1        -0.6830
       3    O2      20.781022   16.996272   20.895378 O.co2      1 MOL1        -0.6830
       4    C2      20.072548   19.246409   20.802567 C.3        1 MOL1        -0.2050
       5    H1      19.123526   19.765336   20.620770 H          1 MOL1         0.0710
       6    H2      20.715606   19.458487   19.940448 H          1 MOL1         0.0710
       7    C3      20.751174   19.800664   22.086798 C.3        1 MOL1        -0.1947
       8    H3      21.586555   19.149599   22.379705 H          1 MOL1         0.0712
       9    H4      21.197565   20.773752   21.841267 H          1 MOL1         0.0712
      10    C4      19.794575   20.009363   23.285516 C.3        1 MOL1        -0.1921
      11    H5      18.959928   20.659070   22.988064 H          1 MOL1         0.0712
      12    H6      20.338371   20.547512   24.074169 H          1 MOL1         0.0712
      13    C5      19.243956   18.696544   23.880168 C.3        1 MOL1        -0.2936
      14    H7      18.556234   18.200452   23.184517 H          1 MOL1         0.0724
      15    H8      18.688961   18.897332   24.805605 H          1 MOL1         0.0724
      16    H9      20.058088   17.999123   24.117070 H          1 MOL1         0.0724
@<TRIPOS>BOND
    1     1     2    1
    2     1     3    2
    3     1     4    1
    4     4     5    1
    5     4     6    1
    6     4     7    1
    7     7     8    1
    8     7     9    1
    9     7    10    1
   10    10    11    1
   11    10    12    1
   12    10    13    1
   13    13    14    1
   14    13    15    1
   15    13    16    1
@<TRIPOS>SUBSTRUCTURE
       1 MOL1            1 RESIDUE      1      MOL     
@<SCITEGIC>MOL_PROPERTY
VConf Rank
SciTegic.value.IntegerValue
319

@<SCITEGIC>MOL_PROPERTY
Conf_Id
SciTegic.value.IntegerValue
47

@<SCITEGIC>MOL_PROPERTY
Delta U+W
SciTegic.value.DoubleValue
2.301

@<SCITEGIC>MOL_PROPERTY
U+W
SciTegic.value.DoubleValue
-54.603

@<SCITEGIC>MOL_PROPERTY
Grad RMS
SciTegic.value.DoubleValue
0.000000

@<SCITEGIC>MOL_PROPERTY
U
SciTegic.value.DoubleValue
11.258

@<SCITEGIC>MOL_PROPERTY
W
SciTegic.value.DoubleValue
-65.861

@<SCITEGIC>MOL_PROPERTY
W(PB)
SciTegic.value.DoubleValue
-67.702

@<SCITEGIC>MOL_PROPERTY
W(SA)
SciTegic.value.DoubleValue
1.841

@<SCITEGIC>MOL_PROPERTY
Valence
SciTegic.value.DoubleValue
8.169

@<SCITEGIC>MOL_PROPERTY
Coulomb
SciTegic.value.DoubleValue
2.735

@<SCITEGIC>MOL_PROPERTY
VdW
SciTegic.value.DoubleValue
0.355

@<SCITEGIC>MOL_PROPERTY
VdW6
SciTegic.value.DoubleValue
-6.245

@<SCITEGIC>MOL_PROPERTY
VdW12
SciTegic.value.DoubleValue
6.600

@<SCITEGIC>MOL_PROPERTY
Bond
SciTegic.value.DoubleValue
0.149

@<SCITEGIC>MOL_PROPERTY
Angle
SciTegic.value.DoubleValue
3.168

@<SCITEGIC>MOL_PROPERTY
Pdih
SciTegic.value.DoubleValue
4.840

@<SCITEGIC>MOL_PROPERTY
Idih
SciTegic.value.DoubleValue
0.011

@<SCITEGIC>MOL_PROPERTY
Tether
SciTegic.value.DoubleValue
0.000

@<TRIPOS>MOLECULE
guest-s18_confgen4.mol2 : confsearch ligand conformer 320
          16          15           1
SMALL
USER_CHARGES
 
@<TRIPOS>ATOM
       1    C1      20.687706   19.709975   20.543035 C.2        1 MOL1         0.6075
       2    O1      21.207076   18.751580   20.005547 O.co2      1 MOL1        -0.6830
       3    O2      21.237342   20.786861   20.665648 O.co2      1 MOL1        -0.6830
       4    C2      19.238093   19.583191   21.008023 C.3        1 MOL1        -0.2050
       5    H1      18.642809   19.377803   20.110692 H          1 MOL1         0.0710
       6    H2      18.900582   20.553300   21.392671 H          1 MOL1         0.0710
       7    C3      18.971911   18.466735   22.056670 C.3        1 MOL1        -0.1947
       8    H3      17.899231   18.231367   22.036317 H          1 MOL1         0.0712
       9    H4      19.490037   17.543913   21.760891 H          1 MOL1         0.0712
      10    C4      19.344953   18.842762   23.510976 C.3        1 MOL1        -0.1921
      11    H5      18.971152   18.055400   24.180026 H          1 MOL1         0.0712
      12    H6      18.826460   19.766675   23.802147 H          1 MOL1         0.0712
      13    C5      20.861555   19.003080   23.744428 C.3        1 MOL1        -0.2936
      14    H7      21.074093   19.129921   24.813777 H          1 MOL1         0.0724
      15    H8      21.254933   19.884460   23.223445 H          1 MOL1         0.0724
      16    H9      21.410223   18.119993   23.391654 H          1 MOL1         0.0724
@<TRIPOS>BOND
    1     1     2    1
    2     1     3    2
    3     1     4    1
    4     4     5    1
    5     4     6    1
    6     4     7    1
    7     7     8    1
    8     7     9    1
    9     7    10    1
   10    10    11    1
   11    10    12    1
   12    10    13    1
   13    13    14    1
   14    13    15    1
   15    13    16    1
@<TRIPOS>SUBSTRUCTURE
       1 MOL1            1 RESIDUE      1      MOL     
@<SCITEGIC>MOL_PROPERTY
VConf Rank
SciTegic.value.IntegerValue
320

@<SCITEGIC>MOL_PROPERTY
Conf_Id
SciTegic.value.IntegerValue
45

@<SCITEGIC>MOL_PROPERTY
Delta U+W
SciTegic.value.DoubleValue
2.303

@<SCITEGIC>MOL_PROPERTY
U+W
SciTegic.value.DoubleValue
-54.601

@<SCITEGIC>MOL_PROPERTY
Grad RMS
SciTegic.value.DoubleValue
0.000000

@<SCITEGIC>MOL_PROPERTY
U
SciTegic.value.DoubleValue
11.258

@<SCITEGIC>MOL_PROPERTY
W
SciTegic.value.DoubleValue
-65.860

@<SCITEGIC>MOL_PROPERTY
W(PB)
SciTegic.value.DoubleValue
-67.709

@<SCITEGIC>MOL_PROPERTY
W(SA)
SciTegic.value.DoubleValue
1.849

@<SCITEGIC>MOL_PROPERTY
Valence
SciTegic.value.DoubleValue
8.169

@<SCITEGIC>MOL_PROPERTY
Coulomb
SciTegic.value.DoubleValue
2.735

@<SCITEGIC>MOL_PROPERTY
VdW
SciTegic.value.DoubleValue
0.355

@<SCITEGIC>MOL_PROPERTY
VdW6
SciTegic.value.DoubleValue
-6.245

@<SCITEGIC>MOL_PROPERTY
VdW12
SciTegic.value.DoubleValue
6.600

@<SCITEGIC>MOL_PROPERTY
Bond
SciTegic.value.DoubleValue
0.149

@<SCITEGIC>MOL_PROPERTY
Angle
SciTegic.value.DoubleValue
3.168

@<SCITEGIC>MOL_PROPERTY
Pdih
SciTegic.value.DoubleValue
4.840

@<SCITEGIC>MOL_PROPERTY
Idih
SciTegic.value.DoubleValue
0.011

@<SCITEGIC>MOL_PROPERTY
Tether
SciTegic.value.DoubleValue
0.000

@<TRIPOS>MOLECULE
guest-s18_confgen4.mol2 : confsearch ligand conformer 321
          16          15           1
SMALL
USER_CHARGES
 
@<TRIPOS>ATOM
       1    C1      20.577652   21.463414   20.589688 C.2        1 MOL1         0.6075
       2    O1      21.631550   21.057931   20.139512 O.co2      1 MOL1        -0.6830
       3    O2      20.148605   22.578176   20.369379 O.co2      1 MOL1        -0.6830
       4    C2      19.729642   20.551817   21.478375 C.3        1 MOL1        -0.2050
       5    H1      18.742887   20.462789   21.008747 H          1 MOL1         0.0710
       6    H2      19.584446   21.069354   22.434009 H          1 MOL1         0.0710
       7    C3      20.317973   19.138440   21.732502 C.3        1 MOL1        -0.1947
       8    H3      20.466295   18.626961   20.771326 H          1 MOL1         0.0712
       9    H4      21.308708   19.234154   22.198068 H          1 MOL1         0.0712
      10    C4      19.399758   18.288998   22.636154 C.3        1 MOL1        -0.1921
      11    H5      18.409107   18.191024   22.170845 H          1 MOL1         0.0712
      12    H6      19.252016   18.798573   23.598446 H          1 MOL1         0.0712
      13    C5      19.989359   16.886619   22.884842 C.3        1 MOL1        -0.2936
      14    H7      20.118601   16.341813   21.940410 H          1 MOL1         0.0724
      15    H8      19.324599   16.296079   23.528656 H          1 MOL1         0.0724
      16    H9      20.967729   16.953838   23.378545 H          1 MOL1         0.0724
@<TRIPOS>BOND
    1     1     2    1
    2     1     3    2
    3     1     4    1
    4     4     5    1
    5     4     6    1
    6     4     7    1
    7     7     8    1
    8     7     9    1
    9     7    10    1
   10    10    11    1
   11    10    12    1
   12    10    13    1
   13    13    14    1
   14    13    15    1
   15    13    16    1
@<TRIPOS>SUBSTRUCTURE
       1 MOL1            1 RESIDUE      1      MOL     
@<SCITEGIC>MOL_PROPERTY
VConf Rank
SciTegic.value.IntegerValue
321

@<SCITEGIC>MOL_PROPERTY
Conf_Id
SciTegic.value.IntegerValue
0

@<SCITEGIC>MOL_PROPERTY
Delta U+W
SciTegic.value.DoubleValue
0.000

@<SCITEGIC>MOL_PROPERTY
U+W
SciTegic.value.DoubleValue
-56.904

@<SCITEGIC>MOL_PROPERTY
Grad RMS
SciTegic.value.DoubleValue
0.000000

@<SCITEGIC>MOL_PROPERTY
U
SciTegic.value.DoubleValue
7.329

@<SCITEGIC>MOL_PROPERTY
W
SciTegic.value.DoubleValue
-64.233

@<SCITEGIC>MOL_PROPERTY
W(PB)
SciTegic.value.DoubleValue
-66.148

@<SCITEGIC>MOL_PROPERTY
W(SA)
SciTegic.value.DoubleValue
1.915

@<SCITEGIC>MOL_PROPERTY
Valence
SciTegic.value.DoubleValue
6.755

@<SCITEGIC>MOL_PROPERTY
Coulomb
SciTegic.value.DoubleValue
-0.421

@<SCITEGIC>MOL_PROPERTY
VdW
SciTegic.value.DoubleValue
0.995

@<SCITEGIC>MOL_PROPERTY
VdW6
SciTegic.value.DoubleValue
-4.495

@<SCITEGIC>MOL_PROPERTY
VdW12
SciTegic.value.DoubleValue
5.490

@<SCITEGIC>MOL_PROPERTY
Bond
SciTegic.value.DoubleValue
0.106

@<SCITEGIC>MOL_PROPERTY
Angle
SciTegic.value.DoubleValue
2.715

@<SCITEGIC>MOL_PROPERTY
Pdih
SciTegic.value.DoubleValue
3.934

@<SCITEGIC>MOL_PROPERTY
Idih
SciTegic.value.DoubleValue
0.000

@<SCITEGIC>MOL_PROPERTY
Tether
SciTegic.value.DoubleValue
0.000

@<TRIPOS>MOLECULE
guest-s18_confgen4.mol2 : confsearch ligand conformer 322
          16          15           1
SMALL
USER_CHARGES
 
@<TRIPOS>ATOM
       1    C1      18.490984   19.833894   19.804119 C.2        1 MOL1         0.6075
       2    O1      19.110065   20.087521   18.790090 O.co2      1 MOL1        -0.6830
       3    O2      17.370521   19.364432   19.807673 O.co2      1 MOL1        -0.6830
       4    C2      19.164019   20.102533   21.145550 C.3        1 MOL1        -0.2050
       5    H1      18.386287   20.377324   21.868373 H          1 MOL1         0.0710
       6    H2      19.820522   20.973374   21.029411 H          1 MOL1         0.0710
       7    C3      19.973298   18.889780   21.667432 C.3        1 MOL1        -0.1947
       8    H3      19.305130   18.023026   21.766627 H          1 MOL1         0.0712
       9    H4      20.739393   18.619054   20.927596 H          1 MOL1         0.0712
      10    C4      20.643467   19.187920   23.024836 C.3        1 MOL1        -0.1921
      11    H5      19.877615   19.458030   23.765139 H          1 MOL1         0.0712
      12    H6      21.312224   20.054242   22.925899 H          1 MOL1         0.0712
      13    C5      21.447042   17.976715   23.538015 C.3        1 MOL1        -0.2936
      14    H7      22.241262   17.704052   22.830667 H          1 MOL1         0.0724
      15    H8      20.796059   17.103429   23.676083 H          1 MOL1         0.0724
      16    H9      21.916858   18.205268   24.503513 H          1 MOL1         0.0724
@<TRIPOS>BOND
    1     1     2    1
    2     1     3    2
    3     1     4    1
    4     4     5    1
    5     4     6    1
    6     4     7    1
    7     7     8    1
    8     7     9    1
    9     7    10    1
   10    10    11    1
   11    10    12    1
   12    10    13    1
   13    13    14    1
   14    13    15    1
   15    13    16    1
@<TRIPOS>SUBSTRUCTURE
       1 MOL1            1 RESIDUE      1      MOL     
@<SCITEGIC>MOL_PROPERTY
VConf Rank
SciTegic.value.IntegerValue
322

@<SCITEGIC>MOL_PROPERTY
Conf_Id
SciTegic.value.IntegerValue
22

@<SCITEGIC>MOL_PROPERTY
Delta U+W
SciTegic.value.DoubleValue
-1.185

@<SCITEGIC>MOL_PROPERTY
U+W
SciTegic.value.DoubleValue
-58.089

@<SCITEGIC>MOL_PROPERTY
Grad RMS
SciTegic.value.DoubleValue
0.000000

@<SCITEGIC>MOL_PROPERTY
U
SciTegic.value.DoubleValue
6.298

@<SCITEGIC>MOL_PROPERTY
W
SciTegic.value.DoubleValue
-64.387

@<SCITEGIC>MOL_PROPERTY
W(PB)
SciTegic.value.DoubleValue
-66.329

@<SCITEGIC>MOL_PROPERTY
W(SA)
SciTegic.value.DoubleValue
1.942

@<SCITEGIC>MOL_PROPERTY
Valence
SciTegic.value.DoubleValue
6.246

@<SCITEGIC>MOL_PROPERTY
Coulomb
SciTegic.value.DoubleValue
-0.408

@<SCITEGIC>MOL_PROPERTY
VdW
SciTegic.value.DoubleValue
0.460

@<SCITEGIC>MOL_PROPERTY
VdW6
SciTegic.value.DoubleValue
-4.207

@<SCITEGIC>MOL_PROPERTY
VdW12
SciTegic.value.DoubleValue
4.667

@<SCITEGIC>MOL_PROPERTY
Bond
SciTegic.value.DoubleValue
0.072

@<SCITEGIC>MOL_PROPERTY
Angle
SciTegic.value.DoubleValue
2.246

@<SCITEGIC>MOL_PROPERTY
Pdih
SciTegic.value.DoubleValue
3.928

@<SCITEGIC>MOL_PROPERTY
Idih
SciTegic.value.DoubleValue
0.001

@<SCITEGIC>MOL_PROPERTY
Tether
SciTegic.value.DoubleValue
0.000

@<TRIPOS>MOLECULE
guest-s18_confgen4.mol2 : confsearch ligand conformer 323
          16          15           1
SMALL
USER_CHARGES
 
@<TRIPOS>ATOM
       1    C1      18.401165   17.466121   23.186759 C.2        1 MOL1         0.6075
       2    O1      17.214761   17.389802   22.936529 O.co2      1 MOL1        -0.6830
       3    O2      18.896212   17.066451   24.221723 O.co2      1 MOL1        -0.6830
       4    C2      19.314859   18.116974   22.154227 C.3        1 MOL1        -0.2050
       5    H1      18.908832   17.904202   21.158016 H          1 MOL1         0.0710
       6    H2      20.293391   17.627537   22.217827 H          1 MOL1         0.0710
       7    C3      19.457023   19.647825   22.357394 C.3        1 MOL1        -0.1947
       8    H3      18.454072   20.096379   22.375225 H          1 MOL1         0.0712
       9    H4      19.904015   19.847087   23.341163 H          1 MOL1         0.0712
      10    C4      20.291172   20.340074   21.254944 C.3        1 MOL1        -0.1921
      11    H5      20.250802   21.426885   21.411535 H          1 MOL1         0.0712
      12    H6      19.837676   20.150722   20.272158 H          1 MOL1         0.0712
      13    C5      21.768921   19.894036   21.239399 C.3        1 MOL1        -0.2936
      14    H7      21.864930   18.833912   20.973503 H          1 MOL1         0.0724
      15    H8      22.235875   20.047151   22.221111 H          1 MOL1         0.0724
      16    H9      22.337010   20.474415   20.500857 H          1 MOL1         0.0724
@<TRIPOS>BOND
    1     1     2    1
    2     1     3    2
    3     1     4    1
    4     4     5    1
    5     4     6    1
    6     4     7    1
    7     7     8    1
    8     7     9    1
    9     7    10    1
   10    10    11    1
   11    10    12    1
   12    10    13    1
   13    13    14    1
   14    13    15    1
   15    13    16    1
@<TRIPOS>SUBSTRUCTURE
       1 MOL1            1 RESIDUE      1      MOL     
@<SCITEGIC>MOL_PROPERTY
VConf Rank
SciTegic.value.IntegerValue
323

@<SCITEGIC>MOL_PROPERTY
Conf_Id
SciTegic.value.IntegerValue
36

@<SCITEGIC>MOL_PROPERTY
Delta U+W
SciTegic.value.DoubleValue
-0.427

@<SCITEGIC>MOL_PROPERTY
U+W
SciTegic.value.DoubleValue
-57.331

@<SCITEGIC>MOL_PROPERTY
Grad RMS
SciTegic.value.DoubleValue
0.000000

@<SCITEGIC>MOL_PROPERTY
U
SciTegic.value.DoubleValue
7.263

@<SCITEGIC>MOL_PROPERTY
W
SciTegic.value.DoubleValue
-64.594

@<SCITEGIC>MOL_PROPERTY
W(PB)
SciTegic.value.DoubleValue
-66.513

@<SCITEGIC>MOL_PROPERTY
W(SA)
SciTegic.value.DoubleValue
1.920

@<SCITEGIC>MOL_PROPERTY
Valence
SciTegic.value.DoubleValue
6.734

@<SCITEGIC>MOL_PROPERTY
Coulomb
SciTegic.value.DoubleValue
-0.068

@<SCITEGIC>MOL_PROPERTY
VdW
SciTegic.value.DoubleValue
0.598

@<SCITEGIC>MOL_PROPERTY
VdW6
SciTegic.value.DoubleValue
-4.819

@<SCITEGIC>MOL_PROPERTY
VdW12
SciTegic.value.DoubleValue
5.417

@<SCITEGIC>MOL_PROPERTY
Bond
SciTegic.value.DoubleValue
0.107

@<SCITEGIC>MOL_PROPERTY
Angle
SciTegic.value.DoubleValue
2.469

@<SCITEGIC>MOL_PROPERTY
Pdih
SciTegic.value.DoubleValue
4.157

@<SCITEGIC>MOL_PROPERTY
Idih
SciTegic.value.DoubleValue
0.001

@<SCITEGIC>MOL_PROPERTY
Tether
SciTegic.value.DoubleValue
0.000

@<TRIPOS>MOLECULE
guest-s18_confgen4.mol2 : confsearch ligand conformer 324
          16          15           1
SMALL
USER_CHARGES
 
@<TRIPOS>ATOM
       1    C1      21.904258   19.279868   23.697296 C.2        1 MOL1         0.6075
       2    O1      22.345827   18.176815   23.950767 O.co2      1 MOL1        -0.6830
       3    O2      22.080694   20.252411   24.403714 O.co2      1 MOL1        -0.6830
       4    C2      21.066376   19.448888   22.434776 C.3        1 MOL1        -0.2050
       5    H1      21.454382   18.754867   21.680519 H          1 MOL1         0.0710
       6    H2      21.225206   20.465008   22.054197 H          1 MOL1         0.0710
       7    C3      19.555218   19.199798   22.678397 C.3        1 MOL1        -0.1947
       8    H3      19.404277   18.165912   23.018404 H          1 MOL1         0.0712
       9    H4      19.217968   19.848897   23.498374 H          1 MOL1         0.0712
      10    C4      18.678081   19.473930   21.435059 C.3        1 MOL1        -0.1921
      11    H5      18.820015   20.511356   21.101921 H          1 MOL1         0.0712
      12    H6      17.621226   19.381292   21.721037 H          1 MOL1         0.0712
      13    C5      18.963279   18.509114   20.264280 C.3        1 MOL1        -0.2936
      14    H7      19.977564   18.646842   19.869264 H          1 MOL1         0.0724
      15    H8      18.259300   18.686485   19.440896 H          1 MOL1         0.0724
      16    H9      18.855616   17.463657   20.581579 H          1 MOL1         0.0724
@<TRIPOS>BOND
    1     1     2    1
    2     1     3    2
    3     1     4    1
    4     4     5    1
    5     4     6    1
    6     4     7    1
    7     7     8    1
    8     7     9    1
    9     7    10    1
   10    10    11    1
   11    10    12    1
   12    10    13    1
   13    13    14    1
   14    13    15    1
   15    13    16    1
@<TRIPOS>SUBSTRUCTURE
       1 MOL1            1 RESIDUE      1      MOL     
@<SCITEGIC>MOL_PROPERTY
VConf Rank
SciTegic.value.IntegerValue
324

@<SCITEGIC>MOL_PROPERTY
Conf_Id
SciTegic.value.IntegerValue
17

@<SCITEGIC>MOL_PROPERTY
Delta U+W
SciTegic.value.DoubleValue
-0.432

@<SCITEGIC>MOL_PROPERTY
U+W
SciTegic.value.DoubleValue
-57.336

@<SCITEGIC>MOL_PROPERTY
Grad RMS
SciTegic.value.DoubleValue
0.000000

@<SCITEGIC>MOL_PROPERTY
U
SciTegic.value.DoubleValue
7.263

@<SCITEGIC>MOL_PROPERTY
W
SciTegic.value.DoubleValue
-64.599

@<SCITEGIC>MOL_PROPERTY
W(PB)
SciTegic.value.DoubleValue
-66.503

@<SCITEGIC>MOL_PROPERTY
W(SA)
SciTegic.value.DoubleValue
1.904

@<SCITEGIC>MOL_PROPERTY
Valence
SciTegic.value.DoubleValue
6.734

@<SCITEGIC>MOL_PROPERTY
Coulomb
SciTegic.value.DoubleValue
-0.068

@<SCITEGIC>MOL_PROPERTY
VdW
SciTegic.value.DoubleValue
0.598

@<SCITEGIC>MOL_PROPERTY
VdW6
SciTegic.value.DoubleValue
-4.819

@<SCITEGIC>MOL_PROPERTY
VdW12
SciTegic.value.DoubleValue
5.417

@<SCITEGIC>MOL_PROPERTY
Bond
SciTegic.value.DoubleValue
0.107

@<SCITEGIC>MOL_PROPERTY
Angle
SciTegic.value.DoubleValue
2.469

@<SCITEGIC>MOL_PROPERTY
Pdih
SciTegic.value.DoubleValue
4.157

@<SCITEGIC>MOL_PROPERTY
Idih
SciTegic.value.DoubleValue
0.001

@<SCITEGIC>MOL_PROPERTY
Tether
SciTegic.value.DoubleValue
0.000

@<TRIPOS>MOLECULE
guest-s18_confgen4.mol2 : confsearch ligand conformer 325
          16          15           1
SMALL
USER_CHARGES
 
@<TRIPOS>ATOM
       1    C1      18.457619   17.863994   23.173106 C.2        1 MOL1         0.6075
       2    O1      17.328501   18.165947   22.841053 O.co2      1 MOL1        -0.6830
       3    O2      18.863183   16.719216   23.208648 O.co2      1 MOL1        -0.6830
       4    C2      19.408501   18.982476   23.590615 C.3        1 MOL1        -0.2050
       5    H1      20.227495   18.546291   24.175485 H          1 MOL1         0.0710
       6    H2      18.856589   19.647716   24.265213 H          1 MOL1         0.0710
       7    C3      19.976887   19.804466   22.404738 C.3        1 MOL1        -0.1947
       8    H3      19.145687   20.211123   21.811980 H          1 MOL1         0.0712
       9    H4      20.532876   20.664740   22.801430 H          1 MOL1         0.0712
      10    C4      20.908039   18.971700   21.497193 C.3        1 MOL1        -0.1921
      11    H5      20.356349   18.118751   21.077859 H          1 MOL1         0.0712
      12    H6      21.731726   18.555541   22.093624 H          1 MOL1         0.0712
      13    C5      21.485328   19.820519   20.347155 C.3        1 MOL1        -0.2936
      14    H7      20.682628   20.224004   19.716028 H          1 MOL1         0.0724
      15    H8      22.143638   19.213908   19.711727 H          1 MOL1         0.0724
      16    H9      22.072053   20.662890   20.736487 H          1 MOL1         0.0724
@<TRIPOS>BOND
    1     1     2    1
    2     1     3    2
    3     1     4    1
    4     4     5    1
    5     4     6    1
    6     4     7    1
    7     7     8    1
    8     7     9    1
    9     7    10    1
   10    10    11    1
   11    10    12    1
   12    10    13    1
   13    13    14    1
   14    13    15    1
   15    13    16    1
@<TRIPOS>SUBSTRUCTURE
       1 MOL1            1 RESIDUE      1      MOL     
@<SCITEGIC>MOL_PROPERTY
VConf Rank
SciTegic.value.IntegerValue
325

@<SCITEGIC>MOL_PROPERTY
Conf_Id
SciTegic.value.IntegerValue
19

@<SCITEGIC>MOL_PROPERTY
Delta U+W
SciTegic.value.DoubleValue
0.048

@<SCITEGIC>MOL_PROPERTY
U+W
SciTegic.value.DoubleValue
-56.856

@<SCITEGIC>MOL_PROPERTY
Grad RMS
SciTegic.value.DoubleValue
0.000000

@<SCITEGIC>MOL_PROPERTY
U
SciTegic.value.DoubleValue
8.276

@<SCITEGIC>MOL_PROPERTY
W
SciTegic.value.DoubleValue
-65.132

@<SCITEGIC>MOL_PROPERTY
W(PB)
SciTegic.value.DoubleValue
-67.031

@<SCITEGIC>MOL_PROPERTY
W(SA)
SciTegic.value.DoubleValue
1.899

@<SCITEGIC>MOL_PROPERTY
Valence
SciTegic.value.DoubleValue
6.513

@<SCITEGIC>MOL_PROPERTY
Coulomb
SciTegic.value.DoubleValue
1.428

@<SCITEGIC>MOL_PROPERTY
VdW
SciTegic.value.DoubleValue
0.335

@<SCITEGIC>MOL_PROPERTY
VdW6
SciTegic.value.DoubleValue
-5.021

@<SCITEGIC>MOL_PROPERTY
VdW12
SciTegic.value.DoubleValue
5.356

@<SCITEGIC>MOL_PROPERTY
Bond
SciTegic.value.DoubleValue
0.092

@<SCITEGIC>MOL_PROPERTY
Angle
SciTegic.value.DoubleValue
2.417

@<SCITEGIC>MOL_PROPERTY
Pdih
SciTegic.value.DoubleValue
4.003

@<SCITEGIC>MOL_PROPERTY
Idih
SciTegic.value.DoubleValue
0.001

@<SCITEGIC>MOL_PROPERTY
Tether
SciTegic.value.DoubleValue
0.000

@<TRIPOS>MOLECULE
guest-s18_confgen4.mol2 : confsearch ligand conformer 326
          16          15           1
SMALL
USER_CHARGES
 
@<TRIPOS>ATOM
       1    C1      22.122418   19.682930   22.577018 C.2        1 MOL1         0.6075
       2    O1      22.638601   18.918113   23.367556 O.co2      1 MOL1        -0.6830
       3    O2      22.181763   20.892376   22.676916 O.co2      1 MOL1        -0.6830
       4    C2      21.380009   19.090485   21.382306 C.3        1 MOL1        -0.2050
       5    H1      22.012275   18.299077   20.962607 H          1 MOL1         0.0710
       6    H2      21.285185   19.863551   20.609995 H          1 MOL1         0.0710
       7    C3      19.985423   18.508114   21.730179 C.3        1 MOL1        -0.1947
       8    H3      19.588406   17.984108   20.850205 H          1 MOL1         0.0712
       9    H4      20.092569   17.756222   22.524409 H          1 MOL1         0.0712
      10    C4      18.981113   19.594948   22.171025 C.3        1 MOL1        -0.1921
      11    H5      18.884381   20.352540   21.381041 H          1 MOL1         0.0712
      12    H6      19.358645   20.112719   23.063832 H          1 MOL1         0.0712
      13    C5      17.595080   18.994128   22.478073 C.3        1 MOL1        -0.2936
      14    H7      17.176381   18.498720   21.592253 H          1 MOL1         0.0724
      15    H8      16.894103   19.779066   22.790517 H          1 MOL1         0.0724
      16    H9      17.658446   18.254580   23.287088 H          1 MOL1         0.0724
@<TRIPOS>BOND
    1     1     2    1
    2     1     3    2
    3     1     4    1
    4     4     5    1
    5     4     6    1
    6     4     7    1
    7     7     8    1
    8     7     9    1
    9     7    10    1
   10    10    11    1
   11    10    12    1
   12    10    13    1
   13    13    14    1
   14    13    15    1
   15    13    16    1
@<TRIPOS>SUBSTRUCTURE
       1 MOL1            1 RESIDUE      1      MOL     
@<SCITEGIC>MOL_PROPERTY
VConf Rank
SciTegic.value.IntegerValue
326

@<SCITEGIC>MOL_PROPERTY
Conf_Id
SciTegic.value.IntegerValue
20

@<SCITEGIC>MOL_PROPERTY
Delta U+W
SciTegic.value.DoubleValue
-0.010

@<SCITEGIC>MOL_PROPERTY
U+W
SciTegic.value.DoubleValue
-56.914

@<SCITEGIC>MOL_PROPERTY
Grad RMS
SciTegic.value.DoubleValue
0.000000

@<SCITEGIC>MOL_PROPERTY
U
SciTegic.value.DoubleValue
8.277

@<SCITEGIC>MOL_PROPERTY
W
SciTegic.value.DoubleValue
-65.191

@<SCITEGIC>MOL_PROPERTY
W(PB)
SciTegic.value.DoubleValue
-67.081

@<SCITEGIC>MOL_PROPERTY
W(SA)
SciTegic.value.DoubleValue
1.890

@<SCITEGIC>MOL_PROPERTY
Valence
SciTegic.value.DoubleValue
6.513

@<SCITEGIC>MOL_PROPERTY
Coulomb
SciTegic.value.DoubleValue
1.429

@<SCITEGIC>MOL_PROPERTY
VdW
SciTegic.value.DoubleValue
0.335

@<SCITEGIC>MOL_PROPERTY
VdW6
SciTegic.value.DoubleValue
-5.021

@<SCITEGIC>MOL_PROPERTY
VdW12
SciTegic.value.DoubleValue
5.356

@<SCITEGIC>MOL_PROPERTY
Bond
SciTegic.value.DoubleValue
0.092

@<SCITEGIC>MOL_PROPERTY
Angle
SciTegic.value.DoubleValue
2.417

@<SCITEGIC>MOL_PROPERTY
Pdih
SciTegic.value.DoubleValue
4.002

@<SCITEGIC>MOL_PROPERTY
Idih
SciTegic.value.DoubleValue
0.001

@<SCITEGIC>MOL_PROPERTY
Tether
SciTegic.value.DoubleValue
0.000

@<TRIPOS>MOLECULE
guest-s18_confgen4.mol2 : confsearch ligand conformer 327
          16          15           1
SMALL
USER_CHARGES
 
@<TRIPOS>ATOM
       1    C1      21.517087   19.844082   20.982259 C.2        1 MOL1         0.6075
       2    O1      21.491374   19.881714   19.767883 O.co2      1 MOL1        -0.6830
       3    O2      22.448929   19.394452   21.619286 O.co2      1 MOL1        -0.6830
       4    C2      20.329387   20.424137   21.745574 C.3        1 MOL1        -0.2050
       5    H1      20.139228   21.424794   21.340105 H          1 MOL1         0.0710
       6    H2      20.618860   20.564096   22.793364 H          1 MOL1         0.0710
       7    C3      19.032539   19.575223   21.644533 C.3        1 MOL1        -0.1947
       8    H3      18.215045   20.104714   22.152188 H          1 MOL1         0.0712
       9    H4      18.741455   19.500260   20.587648 H          1 MOL1         0.0712
      10    C4      19.156662   18.148848   22.231079 C.3        1 MOL1        -0.1921
      11    H5      19.948995   17.596185   21.707274 H          1 MOL1         0.0712
      12    H6      18.221379   17.605688   22.037812 H          1 MOL1         0.0712
      13    C5      19.434701   18.137092   23.749301 C.3        1 MOL1        -0.2936
      14    H7      20.420887   18.561658   23.976610 H          1 MOL1         0.0724
      15    H8      19.419645   17.109172   24.134026 H          1 MOL1         0.0724
      16    H9      18.675428   18.713631   24.293519 H          1 MOL1         0.0724
@<TRIPOS>BOND
    1     1     2    1
    2     1     3    2
    3     1     4    1
    4     4     5    1
    5     4     6    1
    6     4     7    1
    7     7     8    1
    8     7     9    1
    9     7    10    1
   10    10    11    1
   11    10    12    1
   12    10    13    1
   13    13    14    1
   14    13    15    1
   15    13    16    1
@<TRIPOS>SUBSTRUCTURE
       1 MOL1            1 RESIDUE      1      MOL     
@<SCITEGIC>MOL_PROPERTY
VConf Rank
SciTegic.value.IntegerValue
327

@<SCITEGIC>MOL_PROPERTY
Conf_Id
SciTegic.value.IntegerValue
37

@<SCITEGIC>MOL_PROPERTY
Delta U+W
SciTegic.value.DoubleValue
1.063

@<SCITEGIC>MOL_PROPERTY
U+W
SciTegic.value.DoubleValue
-55.841

@<SCITEGIC>MOL_PROPERTY
Grad RMS
SciTegic.value.DoubleValue
0.000000

@<SCITEGIC>MOL_PROPERTY
U
SciTegic.value.DoubleValue
9.719

@<SCITEGIC>MOL_PROPERTY
W
SciTegic.value.DoubleValue
-65.560

@<SCITEGIC>MOL_PROPERTY
W(PB)
SciTegic.value.DoubleValue
-67.414

@<SCITEGIC>MOL_PROPERTY
W(SA)
SciTegic.value.DoubleValue
1.854

@<SCITEGIC>MOL_PROPERTY
Valence
SciTegic.value.DoubleValue
7.002

@<SCITEGIC>MOL_PROPERTY
Coulomb
SciTegic.value.DoubleValue
2.402

@<SCITEGIC>MOL_PROPERTY
VdW
SciTegic.value.DoubleValue
0.314

@<SCITEGIC>MOL_PROPERTY
VdW6
SciTegic.value.DoubleValue
-5.861

@<SCITEGIC>MOL_PROPERTY
VdW12
SciTegic.value.DoubleValue
6.175

@<SCITEGIC>MOL_PROPERTY
Bond
SciTegic.value.DoubleValue
0.134

@<SCITEGIC>MOL_PROPERTY
Angle
SciTegic.value.DoubleValue
2.733

@<SCITEGIC>MOL_PROPERTY
Pdih
SciTegic.value.DoubleValue
4.133

@<SCITEGIC>MOL_PROPERTY
Idih
SciTegic.value.DoubleValue
0.002

@<SCITEGIC>MOL_PROPERTY
Tether
SciTegic.value.DoubleValue
0.000

@<TRIPOS>MOLECULE
guest-s18_confgen4.mol2 : confsearch ligand conformer 328
          16          15           1
SMALL
USER_CHARGES
 
@<TRIPOS>ATOM
       1    C1      19.314491   20.853085   23.169120 C.2        1 MOL1         0.6075
       2    O1      19.801173   21.336476   24.172245 O.co2      1 MOL1        -0.6830
       3    O2      18.955032   21.512352   22.213894 O.co2      1 MOL1        -0.6830
       4    C2      19.113404   19.340723   23.123611 C.3        1 MOL1        -0.2050
       5    H1      18.432494   19.100884   22.298936 H          1 MOL1         0.0710
       6    H2      18.596087   19.053249   24.046445 H          1 MOL1         0.0710
       7    C3      20.430942   18.527408   22.999951 C.3        1 MOL1        -0.1947
       8    H3      21.065941   18.750335   23.868532 H          1 MOL1         0.0712
       9    H4      20.198881   17.455283   23.055328 H          1 MOL1         0.0712
      10    C4      21.234812   18.808040   21.708041 C.3        1 MOL1        -0.1921
      11    H5      22.181355   18.252110   21.754163 H          1 MOL1         0.0712
      12    H6      21.503561   19.872401   21.657975 H          1 MOL1         0.0712
      13    C5      20.481926   18.403603   20.422726 C.3        1 MOL1        -0.2936
      14    H7      20.170516   17.351709   20.462815 H          1 MOL1         0.0724
      15    H8      21.126704   18.532708   19.543832 H          1 MOL1         0.0724
      16    H9      19.588980   19.023782   20.272685 H          1 MOL1         0.0724
@<TRIPOS>BOND
    1     1     2    1
    2     1     3    2
    3     1     4    1
    4     4     5    1
    5     4     6    1
    6     4     7    1
    7     7     8    1
    8     7     9    1
    9     7    10    1
   10    10    11    1
   11    10    12    1
   12    10    13    1
   13    13    14    1
   14    13    15    1
   15    13    16    1
@<TRIPOS>SUBSTRUCTURE
       1 MOL1            1 RESIDUE      1      MOL     
@<SCITEGIC>MOL_PROPERTY
VConf Rank
SciTegic.value.IntegerValue
328

@<SCITEGIC>MOL_PROPERTY
Conf_Id
SciTegic.value.IntegerValue
39

@<SCITEGIC>MOL_PROPERTY
Delta U+W
SciTegic.value.DoubleValue
1.129

@<SCITEGIC>MOL_PROPERTY
U+W
SciTegic.value.DoubleValue
-55.775

@<SCITEGIC>MOL_PROPERTY
Grad RMS
SciTegic.value.DoubleValue
0.000000

@<SCITEGIC>MOL_PROPERTY
U
SciTegic.value.DoubleValue
9.718

@<SCITEGIC>MOL_PROPERTY
W
SciTegic.value.DoubleValue
-65.493

@<SCITEGIC>MOL_PROPERTY
W(PB)
SciTegic.value.DoubleValue
-67.361

@<SCITEGIC>MOL_PROPERTY
W(SA)
SciTegic.value.DoubleValue
1.869

@<SCITEGIC>MOL_PROPERTY
Valence
SciTegic.value.DoubleValue
7.002

@<SCITEGIC>MOL_PROPERTY
Coulomb
SciTegic.value.DoubleValue
2.402

@<SCITEGIC>MOL_PROPERTY
VdW
SciTegic.value.DoubleValue
0.314

@<SCITEGIC>MOL_PROPERTY
VdW6
SciTegic.value.DoubleValue
-5.861

@<SCITEGIC>MOL_PROPERTY
VdW12
SciTegic.value.DoubleValue
6.175

@<SCITEGIC>MOL_PROPERTY
Bond
SciTegic.value.DoubleValue
0.134

@<SCITEGIC>MOL_PROPERTY
Angle
SciTegic.value.DoubleValue
2.734

@<SCITEGIC>MOL_PROPERTY
Pdih
SciTegic.value.DoubleValue
4.133

@<SCITEGIC>MOL_PROPERTY
Idih
SciTegic.value.DoubleValue
0.002

@<SCITEGIC>MOL_PROPERTY
Tether
SciTegic.value.DoubleValue
0.000

@<TRIPOS>MOLECULE
guest-s18_confgen4.mol2 : confsearch ligand conformer 329
          16          15           1
SMALL
USER_CHARGES
 
@<TRIPOS>ATOM
       1    C1      18.808661   19.574664   20.672922 C.2        1 MOL1         0.6075
       2    O1      19.515674   19.804990   19.711724 O.co2      1 MOL1        -0.6830
       3    O2      17.906456   20.306562   21.030007 O.co2      1 MOL1        -0.6830
       4    C2      19.007420   18.253756   21.414106 C.3        1 MOL1        -0.2050
       5    H1      19.801757   17.682478   20.918476 H          1 MOL1         0.0710
       6    H2      18.081221   17.682614   21.281059 H          1 MOL1         0.0710
       7    C3      19.306468   18.383309   22.934227 C.3        1 MOL1        -0.1947
       8    H3      18.628799   19.119927   23.387769 H          1 MOL1         0.0712
       9    H4      19.069920   17.421678   23.409370 H          1 MOL1         0.0712
      10    C4      20.775211   18.730534   23.277437 C.3        1 MOL1        -0.1921
      11    H5      21.449473   17.993016   22.820633 H          1 MOL1         0.0712
      12    H6      20.908850   18.639005   24.364201 H          1 MOL1         0.0712
      13    C5      21.196040   20.152382   22.851363 C.3        1 MOL1        -0.2936
      14    H7      21.238757   20.245951   21.759384 H          1 MOL1         0.0724
      15    H8      22.193690   20.390753   23.242057 H          1 MOL1         0.0724
      16    H9      20.492891   20.903201   23.235006 H          1 MOL1         0.0724
@<TRIPOS>BOND
    1     1     2    1
    2     1     3    2
    3     1     4    1
    4     4     5    1
    5     4     6    1
    6     4     7    1
    7     7     8    1
    8     7     9    1
    9     7    10    1
   10    10    11    1
   11    10    12    1
   12    10    13    1
   13    13    14    1
   14    13    15    1
   15    13    16    1
@<TRIPOS>SUBSTRUCTURE
       1 MOL1            1 RESIDUE      1      MOL     
@<SCITEGIC>MOL_PROPERTY
VConf Rank
SciTegic.value.IntegerValue
329

@<SCITEGIC>MOL_PROPERTY
Conf_Id
SciTegic.value.IntegerValue
47

@<SCITEGIC>MOL_PROPERTY
Delta U+W
SciTegic.value.DoubleValue
2.301

@<SCITEGIC>MOL_PROPERTY
U+W
SciTegic.value.DoubleValue
-54.603

@<SCITEGIC>MOL_PROPERTY
Grad RMS
SciTegic.value.DoubleValue
0.000000

@<SCITEGIC>MOL_PROPERTY
U
SciTegic.value.DoubleValue
11.258

@<SCITEGIC>MOL_PROPERTY
W
SciTegic.value.DoubleValue
-65.861

@<SCITEGIC>MOL_PROPERTY
W(PB)
SciTegic.value.DoubleValue
-67.702

@<SCITEGIC>MOL_PROPERTY
W(SA)
SciTegic.value.DoubleValue
1.841

@<SCITEGIC>MOL_PROPERTY
Valence
SciTegic.value.DoubleValue
8.169

@<SCITEGIC>MOL_PROPERTY
Coulomb
SciTegic.value.DoubleValue
2.735

@<SCITEGIC>MOL_PROPERTY
VdW
SciTegic.value.DoubleValue
0.355

@<SCITEGIC>MOL_PROPERTY
VdW6
SciTegic.value.DoubleValue
-6.245

@<SCITEGIC>MOL_PROPERTY
VdW12
SciTegic.value.DoubleValue
6.600

@<SCITEGIC>MOL_PROPERTY
Bond
SciTegic.value.DoubleValue
0.149

@<SCITEGIC>MOL_PROPERTY
Angle
SciTegic.value.DoubleValue
3.168

@<SCITEGIC>MOL_PROPERTY
Pdih
SciTegic.value.DoubleValue
4.840

@<SCITEGIC>MOL_PROPERTY
Idih
SciTegic.value.DoubleValue
0.011

@<SCITEGIC>MOL_PROPERTY
Tether
SciTegic.value.DoubleValue
0.000

@<TRIPOS>MOLECULE
guest-s18_confgen4.mol2 : confsearch ligand conformer 330
          16          15           1
SMALL
USER_CHARGES
 
@<TRIPOS>ATOM
       1    C1      19.987890   17.950855   20.647158 C.2        1 MOL1         0.6075
       2    O1      20.770480   18.450905   19.863154 O.co2      1 MOL1        -0.6830
       3    O2      18.891141   17.537997   20.325432 O.co2      1 MOL1        -0.6830
       4    C2      20.439143   17.748279   22.092495 C.3        1 MOL1        -0.2050
       5    H1      21.303830   17.075500   22.054609 H          1 MOL1         0.0710
       6    H2      19.652105   17.216418   22.640833 H          1 MOL1         0.0710
       7    C3      20.841111   19.044492   22.850941 C.3        1 MOL1        -0.1947
       8    H3      21.470098   18.756726   23.704181 H          1 MOL1         0.0712
       9    H4      21.472184   19.673989   22.208274 H          1 MOL1         0.0712
      10    C4      19.651291   19.869005   23.398724 C.3        1 MOL1        -0.1921
      11    H5      20.048037   20.663748   24.045462 H          1 MOL1         0.0712
      12    H6      19.021942   19.235716   24.039110 H          1 MOL1         0.0712
      13    C5      18.784997   20.519681   22.300343 C.3        1 MOL1        -0.2936
      14    H7      18.047669   21.200000   22.745632 H          1 MOL1         0.0724
      15    H8      18.232951   19.764696   21.727417 H          1 MOL1         0.0724
      16    H9      19.403285   21.099008   21.602182 H          1 MOL1         0.0724
@<TRIPOS>BOND
    1     1     2    1
    2     1     3    2
    3     1     4    1
    4     4     5    1
    5     4     6    1
    6     4     7    1
    7     7     8    1
    8     7     9    1
    9     7    10    1
   10    10    11    1
   11    10    12    1
   12    10    13    1
   13    13    14    1
   14    13    15    1
   15    13    16    1
@<TRIPOS>SUBSTRUCTURE
       1 MOL1            1 RESIDUE      1      MOL     
@<SCITEGIC>MOL_PROPERTY
VConf Rank
SciTegic.value.IntegerValue
330

@<SCITEGIC>MOL_PROPERTY
Conf_Id
SciTegic.value.IntegerValue
45

@<SCITEGIC>MOL_PROPERTY
Delta U+W
SciTegic.value.DoubleValue
2.303

@<SCITEGIC>MOL_PROPERTY
U+W
SciTegic.value.DoubleValue
-54.601

@<SCITEGIC>MOL_PROPERTY
Grad RMS
SciTegic.value.DoubleValue
0.000000

@<SCITEGIC>MOL_PROPERTY
U
SciTegic.value.DoubleValue
11.258

@<SCITEGIC>MOL_PROPERTY
W
SciTegic.value.DoubleValue
-65.860

@<SCITEGIC>MOL_PROPERTY
W(PB)
SciTegic.value.DoubleValue
-67.709

@<SCITEGIC>MOL_PROPERTY
W(SA)
SciTegic.value.DoubleValue
1.849

@<SCITEGIC>MOL_PROPERTY
Valence
SciTegic.value.DoubleValue
8.169

@<SCITEGIC>MOL_PROPERTY
Coulomb
SciTegic.value.DoubleValue
2.735

@<SCITEGIC>MOL_PROPERTY
VdW
SciTegic.value.DoubleValue
0.355

@<SCITEGIC>MOL_PROPERTY
VdW6
SciTegic.value.DoubleValue
-6.245

@<SCITEGIC>MOL_PROPERTY
VdW12
SciTegic.value.DoubleValue
6.600

@<SCITEGIC>MOL_PROPERTY
Bond
SciTegic.value.DoubleValue
0.149

@<SCITEGIC>MOL_PROPERTY
Angle
SciTegic.value.DoubleValue
3.168

@<SCITEGIC>MOL_PROPERTY
Pdih
SciTegic.value.DoubleValue
4.840

@<SCITEGIC>MOL_PROPERTY
Idih
SciTegic.value.DoubleValue
0.011

@<SCITEGIC>MOL_PROPERTY
Tether
SciTegic.value.DoubleValue
0.000

@<TRIPOS>MOLECULE
guest-s18_confgen4.mol2 : confsearch ligand conformer 331
          16          15           1
SMALL
USER_CHARGES
 
@<TRIPOS>ATOM
       1    C1      18.682765   17.622793   20.021023 C.2        1 MOL1         0.6075
       2    O1      19.383597   16.640861   20.170762 O.co2      1 MOL1        -0.6830
       3    O2      17.768073   17.668105   19.223151 O.co2      1 MOL1        -0.6830
       4    C2      18.939428   18.875213   20.860941 C.3        1 MOL1        -0.2050
       5    H1      18.012550   19.102968   21.400557 H          1 MOL1         0.0710
       6    H2      19.117951   19.704339   20.166072 H          1 MOL1         0.0710
       7    C3      20.117859   18.770864   21.865311 C.3        1 MOL1        -0.1947
       8    H3      19.936005   17.935225   22.555315 H          1 MOL1         0.0712
       9    H4      21.042541   18.537232   21.319555 H          1 MOL1         0.0712
      10    C4      20.304498   20.075509   22.668009 C.3        1 MOL1        -0.1921
      11    H5      19.381001   20.309374   23.215695 H          1 MOL1         0.0712
      12    H6      20.488199   20.911751   21.979204 H          1 MOL1         0.0712
      13    C5      21.476154   19.965678   23.663651 C.3        1 MOL1        -0.2936
      14    H7      21.303931   19.156088   24.385020 H          1 MOL1         0.0724
      15    H8      21.595074   20.901068   24.225830 H          1 MOL1         0.0724
      16    H9      22.419302   19.762910   23.139411 H          1 MOL1         0.0724
@<TRIPOS>BOND
    1     1     2    1
    2     1     3    2
    3     1     4    1
    4     4     5    1
    5     4     6    1
    6     4     7    1
    7     7     8    1
    8     7     9    1
    9     7    10    1
   10    10    11    1
   11    10    12    1
   12    10    13    1
   13    13    14    1
   14    13    15    1
   15    13    16    1
@<TRIPOS>SUBSTRUCTURE
       1 MOL1            1 RESIDUE      1      MOL     
@<SCITEGIC>MOL_PROPERTY
VConf Rank
SciTegic.value.IntegerValue
331

@<SCITEGIC>MOL_PROPERTY
Conf_Id
SciTegic.value.IntegerValue
0

@<SCITEGIC>MOL_PROPERTY
Delta U+W
SciTegic.value.DoubleValue
0.000

@<SCITEGIC>MOL_PROPERTY
U+W
SciTegic.value.DoubleValue
-56.904

@<SCITEGIC>MOL_PROPERTY
Grad RMS
SciTegic.value.DoubleValue
0.000000

@<SCITEGIC>MOL_PROPERTY
U
SciTegic.value.DoubleValue
7.329

@<SCITEGIC>MOL_PROPERTY
W
SciTegic.value.DoubleValue
-64.233

@<SCITEGIC>MOL_PROPERTY
W(PB)
SciTegic.value.DoubleValue
-66.148

@<SCITEGIC>MOL_PROPERTY
W(SA)
SciTegic.value.DoubleValue
1.915

@<SCITEGIC>MOL_PROPERTY
Valence
SciTegic.value.DoubleValue
6.755

@<SCITEGIC>MOL_PROPERTY
Coulomb
SciTegic.value.DoubleValue
-0.421

@<SCITEGIC>MOL_PROPERTY
VdW
SciTegic.value.DoubleValue
0.995

@<SCITEGIC>MOL_PROPERTY
VdW6
SciTegic.value.DoubleValue
-4.495

@<SCITEGIC>MOL_PROPERTY
VdW12
SciTegic.value.DoubleValue
5.490

@<SCITEGIC>MOL_PROPERTY
Bond
SciTegic.value.DoubleValue
0.106

@<SCITEGIC>MOL_PROPERTY
Angle
SciTegic.value.DoubleValue
2.715

@<SCITEGIC>MOL_PROPERTY
Pdih
SciTegic.value.DoubleValue
3.934

@<SCITEGIC>MOL_PROPERTY
Idih
SciTegic.value.DoubleValue
0.000

@<SCITEGIC>MOL_PROPERTY
Tether
SciTegic.value.DoubleValue
0.000

@<TRIPOS>MOLECULE
guest-s18_confgen4.mol2 : confsearch ligand conformer 332
          16          15           1
SMALL
USER_CHARGES
 
@<TRIPOS>ATOM
       1    C1      18.102312   17.243558   22.380982 C.2        1 MOL1         0.6075
       2    O1      18.216895   16.230796   21.719903 O.co2      1 MOL1        -0.6830
       3    O2      17.610769   17.269001   23.491649 O.co2      1 MOL1        -0.6830
       4    C2      18.620160   18.551036   21.791985 C.3        1 MOL1        -0.2050
       5    H1      17.988725   19.366692   22.164602 H          1 MOL1         0.0710
       6    H2      18.488561   18.510709   20.703910 H          1 MOL1         0.0710
       7    C3      20.104293   18.823039   22.140447 C.3        1 MOL1        -0.1947
       8    H3      20.222027   18.848199   23.232718 H          1 MOL1         0.0712
       9    H4      20.721887   17.992141   21.772021 H          1 MOL1         0.0712
      10    C4      20.602732   20.150806   21.532867 C.3        1 MOL1        -0.1921
      11    H5      19.985802   20.982055   21.901597 H          1 MOL1         0.0712
      12    H6      20.485755   20.125790   20.440517 H          1 MOL1         0.0712
      13    C5      22.080322   20.414916   21.883687 C.3        1 MOL1        -0.2936
      14    H7      22.724679   19.613496   21.498980 H          1 MOL1         0.0724
      15    H8      22.221037   20.476061   22.970854 H          1 MOL1         0.0724
      16    H9      22.418787   21.362298   21.444302 H          1 MOL1         0.0724
@<TRIPOS>BOND
    1     1     2    1
    2     1     3    2
    3     1     4    1
    4     4     5    1
    5     4     6    1
    6     4     7    1
    7     7     8    1
    8     7     9    1
    9     7    10    1
   10    10    11    1
   11    10    12    1
   12    10    13    1
   13    13    14    1
   14    13    15    1
   15    13    16    1
@<TRIPOS>SUBSTRUCTURE
       1 MOL1            1 RESIDUE      1      MOL     
@<SCITEGIC>MOL_PROPERTY
VConf Rank
SciTegic.value.IntegerValue
332

@<SCITEGIC>MOL_PROPERTY
Conf_Id
SciTegic.value.IntegerValue
22

@<SCITEGIC>MOL_PROPERTY
Delta U+W
SciTegic.value.DoubleValue
-1.185

@<SCITEGIC>MOL_PROPERTY
U+W
SciTegic.value.DoubleValue
-58.089

@<SCITEGIC>MOL_PROPERTY
Grad RMS
SciTegic.value.DoubleValue
0.000000

@<SCITEGIC>MOL_PROPERTY
U
SciTegic.value.DoubleValue
6.298

@<SCITEGIC>MOL_PROPERTY
W
SciTegic.value.DoubleValue
-64.387

@<SCITEGIC>MOL_PROPERTY
W(PB)
SciTegic.value.DoubleValue
-66.329

@<SCITEGIC>MOL_PROPERTY
W(SA)
SciTegic.value.DoubleValue
1.942

@<SCITEGIC>MOL_PROPERTY
Valence
SciTegic.value.DoubleValue
6.246

@<SCITEGIC>MOL_PROPERTY
Coulomb
SciTegic.value.DoubleValue
-0.408

@<SCITEGIC>MOL_PROPERTY
VdW
SciTegic.value.DoubleValue
0.460

@<SCITEGIC>MOL_PROPERTY
VdW6
SciTegic.value.DoubleValue
-4.207

@<SCITEGIC>MOL_PROPERTY
VdW12
SciTegic.value.DoubleValue
4.667

@<SCITEGIC>MOL_PROPERTY
Bond
SciTegic.value.DoubleValue
0.072

@<SCITEGIC>MOL_PROPERTY
Angle
SciTegic.value.DoubleValue
2.246

@<SCITEGIC>MOL_PROPERTY
Pdih
SciTegic.value.DoubleValue
3.928

@<SCITEGIC>MOL_PROPERTY
Idih
SciTegic.value.DoubleValue
0.001

@<SCITEGIC>MOL_PROPERTY
Tether
SciTegic.value.DoubleValue
0.000

@<TRIPOS>MOLECULE
guest-s18_confgen4.mol2 : confsearch ligand conformer 333
          16          15           1
SMALL
USER_CHARGES
 
@<TRIPOS>ATOM
       1    C1      17.876951   18.983963   23.510618 C.2        1 MOL1         0.6075
       2    O1      16.782604   19.375618   23.157055 O.co2      1 MOL1        -0.6830
       3    O2      18.192099   18.831816   24.674013 O.co2      1 MOL1        -0.6830
       4    C2      18.917392   18.686605   22.436544 C.3        1 MOL1        -0.2050
       5    H1      18.392272   18.322646   21.545282 H          1 MOL1         0.0710
       6    H2      19.548057   17.867129   22.799638 H          1 MOL1         0.0710
       7    C3      19.782669   19.922959   22.079169 C.3        1 MOL1        -0.1947
       8    H3      19.116712   20.752215   21.803010 H          1 MOL1         0.0712
       9    H4      20.336475   20.252410   22.969152 H          1 MOL1         0.0712
      10    C4      20.768197   19.668707   20.915340 C.3        1 MOL1        -0.1921
      11    H5      21.259343   20.616502   20.655014 H          1 MOL1         0.0712
      12    H6      20.213455   19.350566   20.021793 H          1 MOL1         0.0712
      13    C5      21.852145   18.622821   21.253146 C.3        1 MOL1        -0.2936
      14    H7      21.415050   17.628784   21.410054 H          1 MOL1         0.0724
      15    H8      22.401423   18.905349   22.160738 H          1 MOL1         0.0724
      16    H9      22.575874   18.541480   20.431801 H          1 MOL1         0.0724
@<TRIPOS>BOND
    1     1     2    1
    2     1     3    2
    3     1     4    1
    4     4     5    1
    5     4     6    1
    6     4     7    1
    7     7     8    1
    8     7     9    1
    9     7    10    1
   10    10    11    1
   11    10    12    1
   12    10    13    1
   13    13    14    1
   14    13    15    1
   15    13    16    1
@<TRIPOS>SUBSTRUCTURE
       1 MOL1            1 RESIDUE      1      MOL     
@<SCITEGIC>MOL_PROPERTY
VConf Rank
SciTegic.value.IntegerValue
333

@<SCITEGIC>MOL_PROPERTY
Conf_Id
SciTegic.value.IntegerValue
36

@<SCITEGIC>MOL_PROPERTY
Delta U+W
SciTegic.value.DoubleValue
-0.427

@<SCITEGIC>MOL_PROPERTY
U+W
SciTegic.value.DoubleValue
-57.331

@<SCITEGIC>MOL_PROPERTY
Grad RMS
SciTegic.value.DoubleValue
0.000000

@<SCITEGIC>MOL_PROPERTY
U
SciTegic.value.DoubleValue
7.263

@<SCITEGIC>MOL_PROPERTY
W
SciTegic.value.DoubleValue
-64.594

@<SCITEGIC>MOL_PROPERTY
W(PB)
SciTegic.value.DoubleValue
-66.513

@<SCITEGIC>MOL_PROPERTY
W(SA)
SciTegic.value.DoubleValue
1.920

@<SCITEGIC>MOL_PROPERTY
Valence
SciTegic.value.DoubleValue
6.734

@<SCITEGIC>MOL_PROPERTY
Coulomb
SciTegic.value.DoubleValue
-0.068

@<SCITEGIC>MOL_PROPERTY
VdW
SciTegic.value.DoubleValue
0.598

@<SCITEGIC>MOL_PROPERTY
VdW6
SciTegic.value.DoubleValue
-4.819

@<SCITEGIC>MOL_PROPERTY
VdW12
SciTegic.value.DoubleValue
5.417

@<SCITEGIC>MOL_PROPERTY
Bond
SciTegic.value.DoubleValue
0.107

@<SCITEGIC>MOL_PROPERTY
Angle
SciTegic.value.DoubleValue
2.469

@<SCITEGIC>MOL_PROPERTY
Pdih
SciTegic.value.DoubleValue
4.157

@<SCITEGIC>MOL_PROPERTY
Idih
SciTegic.value.DoubleValue
0.001

@<SCITEGIC>MOL_PROPERTY
Tether
SciTegic.value.DoubleValue
0.000

@<TRIPOS>MOLECULE
guest-s18_confgen4.mol2 : confsearch ligand conformer 334
          16          15           1
SMALL
USER_CHARGES
 
@<TRIPOS>ATOM
       1    C1      20.559609   16.895212   20.849732 C.2        1 MOL1         0.6075
       2    O1      21.243056   17.071832   19.860963 O.co2      1 MOL1        -0.6830
       3    O2      19.938333   15.873150   21.062802 O.co2      1 MOL1        -0.6830
       4    C2      20.459829   18.024760   21.868917 C.3        1 MOL1        -0.2050
       5    H1      21.417242   18.558116   21.871800 H          1 MOL1         0.0710
       6    H2      20.333815   17.577137   22.862054 H          1 MOL1         0.0710
       7    C3      19.292743   19.001639   21.571239 C.3        1 MOL1        -0.1947
       8    H3      19.452018   19.475709   20.592874 H          1 MOL1         0.0712
       9    H4      18.361338   18.424465   21.488878 H          1 MOL1         0.0712
      10    C4      19.108974   20.089147   22.654734 C.3        1 MOL1        -0.1921
      11    H5      18.937978   19.615252   23.631241 H          1 MOL1         0.0712
      12    H6      18.202004   20.665740   22.426142 H          1 MOL1         0.0712
      13    C5      20.304978   21.060318   22.751333 C.3        1 MOL1        -0.2936
      14    H7      21.213136   20.545560   23.089056 H          1 MOL1         0.0724
      15    H8      20.090975   21.862061   23.469956 H          1 MOL1         0.0724
      16    H9      20.513260   21.525040   21.778758 H          1 MOL1         0.0724
@<TRIPOS>BOND
    1     1     2    1
    2     1     3    2
    3     1     4    1
    4     4     5    1
    5     4     6    1
    6     4     7    1
    7     7     8    1
    8     7     9    1
    9     7    10    1
   10    10    11    1
   11    10    12    1
   12    10    13    1
   13    13    14    1
   14    13    15    1
   15    13    16    1
@<TRIPOS>SUBSTRUCTURE
       1 MOL1            1 RESIDUE      1      MOL     
@<SCITEGIC>MOL_PROPERTY
VConf Rank
SciTegic.value.IntegerValue
334

@<SCITEGIC>MOL_PROPERTY
Conf_Id
SciTegic.value.IntegerValue
17

@<SCITEGIC>MOL_PROPERTY
Delta U+W
SciTegic.value.DoubleValue
-0.432

@<SCITEGIC>MOL_PROPERTY
U+W
SciTegic.value.DoubleValue
-57.336

@<SCITEGIC>MOL_PROPERTY
Grad RMS
SciTegic.value.DoubleValue
0.000000

@<SCITEGIC>MOL_PROPERTY
U
SciTegic.value.DoubleValue
7.263

@<SCITEGIC>MOL_PROPERTY
W
SciTegic.value.DoubleValue
-64.599

@<SCITEGIC>MOL_PROPERTY
W(PB)
SciTegic.value.DoubleValue
-66.503

@<SCITEGIC>MOL_PROPERTY
W(SA)
SciTegic.value.DoubleValue
1.904

@<SCITEGIC>MOL_PROPERTY
Valence
SciTegic.value.DoubleValue
6.734

@<SCITEGIC>MOL_PROPERTY
Coulomb
SciTegic.value.DoubleValue
-0.068

@<SCITEGIC>MOL_PROPERTY
VdW
SciTegic.value.DoubleValue
0.598

@<SCITEGIC>MOL_PROPERTY
VdW6
SciTegic.value.DoubleValue
-4.819

@<SCITEGIC>MOL_PROPERTY
VdW12
SciTegic.value.DoubleValue
5.417

@<SCITEGIC>MOL_PROPERTY
Bond
SciTegic.value.DoubleValue
0.107

@<SCITEGIC>MOL_PROPERTY
Angle
SciTegic.value.DoubleValue
2.469

@<SCITEGIC>MOL_PROPERTY
Pdih
SciTegic.value.DoubleValue
4.157

@<SCITEGIC>MOL_PROPERTY
Idih
SciTegic.value.DoubleValue
0.001

@<SCITEGIC>MOL_PROPERTY
Tether
SciTegic.value.DoubleValue
0.000

@<TRIPOS>MOLECULE
guest-s18_confgen4.mol2 : confsearch ligand conformer 335
          16          15           1
SMALL
USER_CHARGES
 
@<TRIPOS>ATOM
       1    C1      21.515916   17.243478   22.438961 C.2        1 MOL1         0.6075
       2    O1      22.515370   17.236493   21.748032 O.co2      1 MOL1        -0.6830
       3    O2      21.526943   17.041970   23.637099 O.co2      1 MOL1        -0.6830
       4    C2      20.172760   17.495354   21.759268 C.3        1 MOL1        -0.2050
       5    H1      19.373508   17.132311   22.416901 H          1 MOL1         0.0710
       6    H2      20.142557   16.878383   20.853360 H          1 MOL1         0.0710
       7    C3      19.923161   18.978964   21.382921 C.3        1 MOL1        -0.1947
       8    H3      20.745617   19.336958   20.748075 H          1 MOL1         0.0712
       9    H4      19.007075   19.044553   20.780390 H          1 MOL1         0.0712
      10    C4      19.783703   19.890437   22.621449 C.3        1 MOL1        -0.1921
      11    H5      20.703285   19.848671   23.221739 H          1 MOL1         0.0712
      12    H6      18.969147   19.524000   23.261447 H          1 MOL1         0.0712
      13    C5      19.502834   21.352083   22.220139 C.3        1 MOL1        -0.2936
      14    H7      20.318259   21.753522   21.604202 H          1 MOL1         0.0724
      15    H8      19.407410   21.986095   23.111228 H          1 MOL1         0.0724
      16    H9      18.569558   21.430010   21.647130 H          1 MOL1         0.0724
@<TRIPOS>BOND
    1     1     2    1
    2     1     3    2
    3     1     4    1
    4     4     5    1
    5     4     6    1
    6     4     7    1
    7     7     8    1
    8     7     9    1
    9     7    10    1
   10    10    11    1
   11    10    12    1
   12    10    13    1
   13    13    14    1
   14    13    15    1
   15    13    16    1
@<TRIPOS>SUBSTRUCTURE
       1 MOL1            1 RESIDUE      1      MOL     
@<SCITEGIC>MOL_PROPERTY
VConf Rank
SciTegic.value.IntegerValue
335

@<SCITEGIC>MOL_PROPERTY
Conf_Id
SciTegic.value.IntegerValue
19

@<SCITEGIC>MOL_PROPERTY
Delta U+W
SciTegic.value.DoubleValue
0.048

@<SCITEGIC>MOL_PROPERTY
U+W
SciTegic.value.DoubleValue
-56.856

@<SCITEGIC>MOL_PROPERTY
Grad RMS
SciTegic.value.DoubleValue
0.000000

@<SCITEGIC>MOL_PROPERTY
U
SciTegic.value.DoubleValue
8.276

@<SCITEGIC>MOL_PROPERTY
W
SciTegic.value.DoubleValue
-65.132

@<SCITEGIC>MOL_PROPERTY
W(PB)
SciTegic.value.DoubleValue
-67.031

@<SCITEGIC>MOL_PROPERTY
W(SA)
SciTegic.value.DoubleValue
1.899

@<SCITEGIC>MOL_PROPERTY
Valence
SciTegic.value.DoubleValue
6.513

@<SCITEGIC>MOL_PROPERTY
Coulomb
SciTegic.value.DoubleValue
1.428

@<SCITEGIC>MOL_PROPERTY
VdW
SciTegic.value.DoubleValue
0.335

@<SCITEGIC>MOL_PROPERTY
VdW6
SciTegic.value.DoubleValue
-5.021

@<SCITEGIC>MOL_PROPERTY
VdW12
SciTegic.value.DoubleValue
5.356

@<SCITEGIC>MOL_PROPERTY
Bond
SciTegic.value.DoubleValue
0.092

@<SCITEGIC>MOL_PROPERTY
Angle
SciTegic.value.DoubleValue
2.417

@<SCITEGIC>MOL_PROPERTY
Pdih
SciTegic.value.DoubleValue
4.003

@<SCITEGIC>MOL_PROPERTY
Idih
SciTegic.value.DoubleValue
0.001

@<SCITEGIC>MOL_PROPERTY
Tether
SciTegic.value.DoubleValue
0.000

@<TRIPOS>MOLECULE
guest-s18_confgen4.mol2 : confsearch ligand conformer 336
          16          15           1
SMALL
USER_CHARGES
 
@<TRIPOS>ATOM
       1    C1      21.684788   20.674426   22.026068 C.2        1 MOL1         0.6075
       2    O1      21.573828   21.532559   21.173051 O.co2      1 MOL1        -0.6830
       3    O2      22.689765   20.009757   22.182586 O.co2      1 MOL1        -0.6830
       4    C2      20.505565   20.436514   22.965392 C.3        1 MOL1        -0.2050
       5    H1      20.146453   21.418186   23.296443 H          1 MOL1         0.0710
       6    H2      20.868843   19.914018   23.858764 H          1 MOL1         0.0710
       7    C3      19.335083   19.647454   22.323209 C.3        1 MOL1        -0.1947
       8    H3      18.483759   19.644905   23.017326 H          1 MOL1         0.0712
       9    H4      19.000762   20.167204   21.414522 H          1 MOL1         0.0712
      10    C4      19.717402   18.190920   21.981845 C.3        1 MOL1        -0.1921
      11    H5      20.063183   17.676188   22.888963 H          1 MOL1         0.0712
      12    H6      20.555798   18.181233   21.271407 H          1 MOL1         0.0712
      13    C5      18.527468   17.420102   21.376661 C.3        1 MOL1        -0.2936
      14    H7      17.684686   17.383266   22.079354 H          1 MOL1         0.0724
      15    H8      18.816102   16.387923   21.139146 H          1 MOL1         0.0724
      16    H9      18.181313   17.897019   20.450282 H          1 MOL1         0.0724
@<TRIPOS>BOND
    1     1     2    1
    2     1     3    2
    3     1     4    1
    4     4     5    1
    5     4     6    1
    6     4     7    1
    7     7     8    1
    8     7     9    1
    9     7    10    1
   10    10    11    1
   11    10    12    1
   12    10    13    1
   13    13    14    1
   14    13    15    1
   15    13    16    1
@<TRIPOS>SUBSTRUCTURE
       1 MOL1            1 RESIDUE      1      MOL     
@<SCITEGIC>MOL_PROPERTY
VConf Rank
SciTegic.value.IntegerValue
336

@<SCITEGIC>MOL_PROPERTY
Conf_Id
SciTegic.value.IntegerValue
20

@<SCITEGIC>MOL_PROPERTY
Delta U+W
SciTegic.value.DoubleValue
-0.010

@<SCITEGIC>MOL_PROPERTY
U+W
SciTegic.value.DoubleValue
-56.914

@<SCITEGIC>MOL_PROPERTY
Grad RMS
SciTegic.value.DoubleValue
0.000000

@<SCITEGIC>MOL_PROPERTY
U
SciTegic.value.DoubleValue
8.277

@<SCITEGIC>MOL_PROPERTY
W
SciTegic.value.DoubleValue
-65.191

@<SCITEGIC>MOL_PROPERTY
W(PB)
SciTegic.value.DoubleValue
-67.081

@<SCITEGIC>MOL_PROPERTY
W(SA)
SciTegic.value.DoubleValue
1.890

@<SCITEGIC>MOL_PROPERTY
Valence
SciTegic.value.DoubleValue
6.513

@<SCITEGIC>MOL_PROPERTY
Coulomb
SciTegic.value.DoubleValue
1.429

@<SCITEGIC>MOL_PROPERTY
VdW
SciTegic.value.DoubleValue
0.335

@<SCITEGIC>MOL_PROPERTY
VdW6
SciTegic.value.DoubleValue
-5.021

@<SCITEGIC>MOL_PROPERTY
VdW12
SciTegic.value.DoubleValue
5.356

@<SCITEGIC>MOL_PROPERTY
Bond
SciTegic.value.DoubleValue
0.092

@<SCITEGIC>MOL_PROPERTY
Angle
SciTegic.value.DoubleValue
2.417

@<SCITEGIC>MOL_PROPERTY
Pdih
SciTegic.value.DoubleValue
4.002

@<SCITEGIC>MOL_PROPERTY
Idih
SciTegic.value.DoubleValue
0.001

@<SCITEGIC>MOL_PROPERTY
Tether
SciTegic.value.DoubleValue
0.000

@<TRIPOS>MOLECULE
guest-s18_confgen4.mol2 : confsearch ligand conformer 337
          16          15           1
SMALL
USER_CHARGES
 
@<TRIPOS>ATOM
       1    C1      19.546277   17.115755   22.748927 C.2        1 MOL1         0.6075
       2    O1      18.863466   16.791172   23.700348 O.co2      1 MOL1        -0.6830
       3    O2      20.644912   16.649012   22.522100 O.co2      1 MOL1        -0.6830
       4    C2      18.976714   18.139030   21.770024 C.3        1 MOL1        -0.2050
       5    H1      17.970589   17.801433   21.495032 H          1 MOL1         0.0710
       6    H2      19.573224   18.116665   20.850827 H          1 MOL1         0.0710
       7    C3      18.895990   19.583533   22.335329 C.3        1 MOL1        -0.1947
       8    H3      18.403446   20.231780   21.598072 H          1 MOL1         0.0712
       9    H4      18.248418   19.579262   23.223016 H          1 MOL1         0.0712
      10    C4      20.264351   20.196077   22.717911 C.3        1 MOL1        -0.1921
      11    H5      20.752489   19.574609   23.481519 H          1 MOL1         0.0712
      12    H6      20.093948   21.177733   23.180990 H          1 MOL1         0.0712
      13    C5      21.211058   20.372163   21.511602 C.3        1 MOL1        -0.2936
      14    H7      21.506853   19.401785   21.092844 H          1 MOL1         0.0724
      15    H8      22.126988   20.894930   21.815981 H          1 MOL1         0.0724
      16    H9      20.732876   20.960810   20.717938 H          1 MOL1         0.0724
@<TRIPOS>BOND
    1     1     2    1
    2     1     3    2
    3     1     4    1
    4     4     5    1
    5     4     6    1
    6     4     7    1
    7     7     8    1
    8     7     9    1
    9     7    10    1
   10    10    11    1
   11    10    12    1
   12    10    13    1
   13    13    14    1
   14    13    15    1
   15    13    16    1
@<TRIPOS>SUBSTRUCTURE
       1 MOL1            1 RESIDUE      1      MOL     
@<SCITEGIC>MOL_PROPERTY
VConf Rank
SciTegic.value.IntegerValue
337

@<SCITEGIC>MOL_PROPERTY
Conf_Id
SciTegic.value.IntegerValue
37

@<SCITEGIC>MOL_PROPERTY
Delta U+W
SciTegic.value.DoubleValue
1.063

@<SCITEGIC>MOL_PROPERTY
U+W
SciTegic.value.DoubleValue
-55.841

@<SCITEGIC>MOL_PROPERTY
Grad RMS
SciTegic.value.DoubleValue
0.000000

@<SCITEGIC>MOL_PROPERTY
U
SciTegic.value.DoubleValue
9.719

@<SCITEGIC>MOL_PROPERTY
W
SciTegic.value.DoubleValue
-65.560

@<SCITEGIC>MOL_PROPERTY
W(PB)
SciTegic.value.DoubleValue
-67.414

@<SCITEGIC>MOL_PROPERTY
W(SA)
SciTegic.value.DoubleValue
1.854

@<SCITEGIC>MOL_PROPERTY
Valence
SciTegic.value.DoubleValue
7.002

@<SCITEGIC>MOL_PROPERTY
Coulomb
SciTegic.value.DoubleValue
2.402

@<SCITEGIC>MOL_PROPERTY
VdW
SciTegic.value.DoubleValue
0.314

@<SCITEGIC>MOL_PROPERTY
VdW6
SciTegic.value.DoubleValue
-5.861

@<SCITEGIC>MOL_PROPERTY
VdW12
SciTegic.value.DoubleValue
6.175

@<SCITEGIC>MOL_PROPERTY
Bond
SciTegic.value.DoubleValue
0.134

@<SCITEGIC>MOL_PROPERTY
Angle
SciTegic.value.DoubleValue
2.733

@<SCITEGIC>MOL_PROPERTY
Pdih
SciTegic.value.DoubleValue
4.133

@<SCITEGIC>MOL_PROPERTY
Idih
SciTegic.value.DoubleValue
0.002

@<SCITEGIC>MOL_PROPERTY
Tether
SciTegic.value.DoubleValue
0.000

@<TRIPOS>MOLECULE
guest-s18_confgen4.mol2 : confsearch ligand conformer 338
          16          15           1
SMALL
USER_CHARGES
 
@<TRIPOS>ATOM
       1    C1      18.659303   19.339529   23.719708 C.2        1 MOL1         0.6075
       2    O1      17.497934   19.619395   23.496814 O.co2      1 MOL1        -0.6830
       3    O2      19.001606   18.449054   24.472160 O.co2      1 MOL1        -0.6830
       4    C2      19.743371   20.175065   23.044116 C.3        1 MOL1        -0.2050
       5    H1      20.698588   19.985116   23.546836 H          1 MOL1         0.0710
       6    H2      19.501997   21.229061   23.224985 H          1 MOL1         0.0710
       7    C3      19.871888   19.933773   21.515084 C.3        1 MOL1        -0.1947
       8    H3      18.915062   20.184766   21.036711 H          1 MOL1         0.0712
       9    H4      20.614524   20.629556   21.101866 H          1 MOL1         0.0712
      10    C4      20.259651   18.486740   21.128137 C.3        1 MOL1        -0.1921
      11    H5      20.243409   18.398361   20.033124 H          1 MOL1         0.0712
      12    H6      19.505097   17.783005   21.506295 H          1 MOL1         0.0712
      13    C5      21.655646   18.072991   21.640437 C.3        1 MOL1        -0.2936
      14    H7      22.424369   18.781388   21.305320 H          1 MOL1         0.0724
      15    H8      21.923744   17.078132   21.261967 H          1 MOL1         0.0724
      16    H9      21.680109   18.028215   22.736742 H          1 MOL1         0.0724
@<TRIPOS>BOND
    1     1     2    1
    2     1     3    2
    3     1     4    1
    4     4     5    1
    5     4     6    1
    6     4     7    1
    7     7     8    1
    8     7     9    1
    9     7    10    1
   10    10    11    1
   11    10    12    1
   12    10    13    1
   13    13    14    1
   14    13    15    1
   15    13    16    1
@<TRIPOS>SUBSTRUCTURE
       1 MOL1            1 RESIDUE      1      MOL     
@<SCITEGIC>MOL_PROPERTY
VConf Rank
SciTegic.value.IntegerValue
338

@<SCITEGIC>MOL_PROPERTY
Conf_Id
SciTegic.value.IntegerValue
39

@<SCITEGIC>MOL_PROPERTY
Delta U+W
SciTegic.value.DoubleValue
1.129

@<SCITEGIC>MOL_PROPERTY
U+W
SciTegic.value.DoubleValue
-55.775

@<SCITEGIC>MOL_PROPERTY
Grad RMS
SciTegic.value.DoubleValue
0.000000

@<SCITEGIC>MOL_PROPERTY
U
SciTegic.value.DoubleValue
9.718

@<SCITEGIC>MOL_PROPERTY
W
SciTegic.value.DoubleValue
-65.493

@<SCITEGIC>MOL_PROPERTY
W(PB)
SciTegic.value.DoubleValue
-67.361

@<SCITEGIC>MOL_PROPERTY
W(SA)
SciTegic.value.DoubleValue
1.869

@<SCITEGIC>MOL_PROPERTY
Valence
SciTegic.value.DoubleValue
7.002

@<SCITEGIC>MOL_PROPERTY
Coulomb
SciTegic.value.DoubleValue
2.402

@<SCITEGIC>MOL_PROPERTY
VdW
SciTegic.value.DoubleValue
0.314

@<SCITEGIC>MOL_PROPERTY
VdW6
SciTegic.value.DoubleValue
-5.861

@<SCITEGIC>MOL_PROPERTY
VdW12
SciTegic.value.DoubleValue
6.175

@<SCITEGIC>MOL_PROPERTY
Bond
SciTegic.value.DoubleValue
0.134

@<SCITEGIC>MOL_PROPERTY
Angle
SciTegic.value.DoubleValue
2.734

@<SCITEGIC>MOL_PROPERTY
Pdih
SciTegic.value.DoubleValue
4.133

@<SCITEGIC>MOL_PROPERTY
Idih
SciTegic.value.DoubleValue
0.002

@<SCITEGIC>MOL_PROPERTY
Tether
SciTegic.value.DoubleValue
0.000

@<TRIPOS>MOLECULE
guest-s18_confgen4.mol2 : confsearch ligand conformer 339
          16          15           1
SMALL
USER_CHARGES
 
@<TRIPOS>ATOM
       1    C1      21.107321   19.605947   20.771120 C.2        1 MOL1         0.6075
       2    O1      22.155148   20.057811   21.189087 O.co2      1 MOL1        -0.6830
       3    O2      20.443668   20.145463   19.907612 O.co2      1 MOL1        -0.6830
       4    C2      20.648913   18.245930   21.294449 C.3        1 MOL1        -0.2050
       5    H1      21.395832   17.865545   22.001836 H          1 MOL1         0.0710
       6    H2      20.656716   17.565672   20.434834 H          1 MOL1         0.0710
       7    C3      19.235542   18.225067   21.941696 C.3        1 MOL1        -0.1947
       8    H3      18.529432   18.790192   21.317531 H          1 MOL1         0.0712
       9    H4      18.877183   17.186786   21.939835 H          1 MOL1         0.0712
      10    C4      19.184348   18.739269   23.400647 C.3        1 MOL1        -0.1921
      11    H5      19.892961   18.173170   24.020833 H          1 MOL1         0.0712
      12    H6      18.184800   18.531876   23.807076 H          1 MOL1         0.0712
      13    C5      19.464675   20.250007   23.539845 C.3        1 MOL1        -0.2936
      14    H7      20.508956   20.486114   23.301664 H          1 MOL1         0.0724
      15    H8      19.278086   20.581836   24.569331 H          1 MOL1         0.0724
      16    H9      18.817708   20.834134   22.872344 H          1 MOL1         0.0724
@<TRIPOS>BOND
    1     1     2    1
    2     1     3    2
    3     1     4    1
    4     4     5    1
    5     4     6    1
    6     4     7    1
    7     7     8    1
    8     7     9    1
    9     7    10    1
   10    10    11    1
   11    10    12    1
   12    10    13    1
   13    13    14    1
   14    13    15    1
   15    13    16    1
@<TRIPOS>SUBSTRUCTURE
       1 MOL1            1 RESIDUE      1      MOL     
@<SCITEGIC>MOL_PROPERTY
VConf Rank
SciTegic.value.IntegerValue
339

@<SCITEGIC>MOL_PROPERTY
Conf_Id
SciTegic.value.IntegerValue
47

@<SCITEGIC>MOL_PROPERTY
Delta U+W
SciTegic.value.DoubleValue
2.301

@<SCITEGIC>MOL_PROPERTY
U+W
SciTegic.value.DoubleValue
-54.603

@<SCITEGIC>MOL_PROPERTY
Grad RMS
SciTegic.value.DoubleValue
0.000000

@<SCITEGIC>MOL_PROPERTY
U
SciTegic.value.DoubleValue
11.258

@<SCITEGIC>MOL_PROPERTY
W
SciTegic.value.DoubleValue
-65.861

@<SCITEGIC>MOL_PROPERTY
W(PB)
SciTegic.value.DoubleValue
-67.702

@<SCITEGIC>MOL_PROPERTY
W(SA)
SciTegic.value.DoubleValue
1.841

@<SCITEGIC>MOL_PROPERTY
Valence
SciTegic.value.DoubleValue
8.169

@<SCITEGIC>MOL_PROPERTY
Coulomb
SciTegic.value.DoubleValue
2.735

@<SCITEGIC>MOL_PROPERTY
VdW
SciTegic.value.DoubleValue
0.355

@<SCITEGIC>MOL_PROPERTY
VdW6
SciTegic.value.DoubleValue
-6.245

@<SCITEGIC>MOL_PROPERTY
VdW12
SciTegic.value.DoubleValue
6.600

@<SCITEGIC>MOL_PROPERTY
Bond
SciTegic.value.DoubleValue
0.149

@<SCITEGIC>MOL_PROPERTY
Angle
SciTegic.value.DoubleValue
3.168

@<SCITEGIC>MOL_PROPERTY
Pdih
SciTegic.value.DoubleValue
4.840

@<SCITEGIC>MOL_PROPERTY
Idih
SciTegic.value.DoubleValue
0.011

@<SCITEGIC>MOL_PROPERTY
Tether
SciTegic.value.DoubleValue
0.000

@<TRIPOS>MOLECULE
guest-s18_confgen4.mol2 : confsearch ligand conformer 340
          16          15           1
SMALL
USER_CHARGES
 
@<TRIPOS>ATOM
       1    C1      21.078782   17.897419   23.293815 C.2        1 MOL1         0.6075
       2    O1      20.970780   18.153938   24.476901 O.co2      1 MOL1        -0.6830
       3    O2      22.148895   17.760674   22.734372 O.co2      1 MOL1        -0.6830
       4    C2      19.806101   17.644968   22.487453 C.3        1 MOL1        -0.2050
       5    H1      19.318518   16.775792   22.944120 H          1 MOL1         0.0710
       6    H2      20.082330   17.349550   21.467941 H          1 MOL1         0.0710
       7    C3      18.797622   18.827578   22.450130 C.3        1 MOL1        -0.1947
       8    H3      17.813007   18.424899   22.176568 H          1 MOL1         0.0712
       9    H4      18.681778   19.252865   23.456734 H          1 MOL1         0.0712
      10    C4      19.148076   19.945106   21.438264 C.3        1 MOL1        -0.1921
      11    H5      18.298637   20.639614   21.379908 H          1 MOL1         0.0712
      12    H6      19.264834   19.515628   20.433700 H          1 MOL1         0.0712
      13    C5      20.411750   20.748721   21.809232 C.3        1 MOL1        -0.2936
      14    H7      20.530238   21.609219   21.138209 H          1 MOL1         0.0724
      15    H8      21.316112   20.134531   21.720350 H          1 MOL1         0.0724
      16    H9      20.350696   21.126513   22.838248 H          1 MOL1         0.0724
@<TRIPOS>BOND
    1     1     2    1
    2     1     3    2
    3     1     4    1
    4     4     5    1
    5     4     6    1
    6     4     7    1
    7     7     8    1
    8     7     9    1
    9     7    10    1
   10    10    11    1
   11    10    12    1
   12    10    13    1
   13    13    14    1
   14    13    15    1
   15    13    16    1
@<TRIPOS>SUBSTRUCTURE
       1 MOL1            1 RESIDUE      1      MOL     
@<SCITEGIC>MOL_PROPERTY
VConf Rank
SciTegic.value.IntegerValue
340

@<SCITEGIC>MOL_PROPERTY
Conf_Id
SciTegic.value.IntegerValue
45

@<SCITEGIC>MOL_PROPERTY
Delta U+W
SciTegic.value.DoubleValue
2.303

@<SCITEGIC>MOL_PROPERTY
U+W
SciTegic.value.DoubleValue
-54.601

@<SCITEGIC>MOL_PROPERTY
Grad RMS
SciTegic.value.DoubleValue
0.000000

@<SCITEGIC>MOL_PROPERTY
U
SciTegic.value.DoubleValue
11.258

@<SCITEGIC>MOL_PROPERTY
W
SciTegic.value.DoubleValue
-65.860

@<SCITEGIC>MOL_PROPERTY
W(PB)
SciTegic.value.DoubleValue
-67.709

@<SCITEGIC>MOL_PROPERTY
W(SA)
SciTegic.value.DoubleValue
1.849

@<SCITEGIC>MOL_PROPERTY
Valence
SciTegic.value.DoubleValue
8.169

@<SCITEGIC>MOL_PROPERTY
Coulomb
SciTegic.value.DoubleValue
2.735

@<SCITEGIC>MOL_PROPERTY
VdW
SciTegic.value.DoubleValue
0.355

@<SCITEGIC>MOL_PROPERTY
VdW6
SciTegic.value.DoubleValue
-6.245

@<SCITEGIC>MOL_PROPERTY
VdW12
SciTegic.value.DoubleValue
6.600

@<SCITEGIC>MOL_PROPERTY
Bond
SciTegic.value.DoubleValue
0.149

@<SCITEGIC>MOL_PROPERTY
Angle
SciTegic.value.DoubleValue
3.168

@<SCITEGIC>MOL_PROPERTY
Pdih
SciTegic.value.DoubleValue
4.840

@<SCITEGIC>MOL_PROPERTY
Idih
SciTegic.value.DoubleValue
0.011

@<SCITEGIC>MOL_PROPERTY
Tether
SciTegic.value.DoubleValue
0.000

@<TRIPOS>MOLECULE
guest-s18_confgen4.mol2 : confsearch ligand conformer 341
          16          15           1
SMALL
USER_CHARGES
 
@<TRIPOS>ATOM
       1    C1      18.064289   18.183424   20.197912 C.2        1 MOL1         0.6075
       2    O1      17.143892   18.720886   20.782533 O.co2      1 MOL1        -0.6830
       3    O2      17.910699   17.507655   19.200386 O.co2      1 MOL1        -0.6830
       4    C2      19.493672   18.346321   20.717743 C.3        1 MOL1        -0.2050
       5    H1      20.090265   18.777501   19.905141 H          1 MOL1         0.0710
       6    H2      19.889301   17.341562   20.907742 H          1 MOL1         0.0710
       7    C3      19.640658   19.216868   21.994023 C.3        1 MOL1        -0.1947
       8    H3      19.237718   20.220457   21.799293 H          1 MOL1         0.0712
       9    H4      19.036562   18.783029   22.802924 H          1 MOL1         0.0712
      10    C4      21.111761   19.327109   22.446750 C.3        1 MOL1        -0.1921
      11    H5      21.716706   19.762488   21.639294 H          1 MOL1         0.0712
      12    H6      21.515442   18.324204   22.643528 H          1 MOL1         0.0712
      13    C5      21.251241   20.192787   23.714539 C.3        1 MOL1        -0.2936
      14    H7      20.883397   21.211863   23.536649 H          1 MOL1         0.0724
      15    H8      22.302675   20.260857   24.022750 H          1 MOL1         0.0724
      16    H9      20.680649   19.762970   24.548297 H          1 MOL1         0.0724
@<TRIPOS>BOND
    1     1     2    1
    2     1     3    2
    3     1     4    1
    4     4     5    1
    5     4     6    1
    6     4     7    1
    7     7     8    1
    8     7     9    1
    9     7    10    1
   10    10    11    1
   11    10    12    1
   12    10    13    1
   13    13    14    1
   14    13    15    1
   15    13    16    1
@<TRIPOS>SUBSTRUCTURE
       1 MOL1            1 RESIDUE      1      MOL     
@<SCITEGIC>MOL_PROPERTY
VConf Rank
SciTegic.value.IntegerValue
341

@<SCITEGIC>MOL_PROPERTY
Conf_Id
SciTegic.value.IntegerValue
0

@<SCITEGIC>MOL_PROPERTY
Delta U+W
SciTegic.value.DoubleValue
0.000

@<SCITEGIC>MOL_PROPERTY
U+W
SciTegic.value.DoubleValue
-56.904

@<SCITEGIC>MOL_PROPERTY
Grad RMS
SciTegic.value.DoubleValue
0.000000

@<SCITEGIC>MOL_PROPERTY
U
SciTegic.value.DoubleValue
7.329

@<SCITEGIC>MOL_PROPERTY
W
SciTegic.value.DoubleValue
-64.233

@<SCITEGIC>MOL_PROPERTY
W(PB)
SciTegic.value.DoubleValue
-66.148

@<SCITEGIC>MOL_PROPERTY
W(SA)
SciTegic.value.DoubleValue
1.915

@<SCITEGIC>MOL_PROPERTY
Valence
SciTegic.value.DoubleValue
6.755

@<SCITEGIC>MOL_PROPERTY
Coulomb
SciTegic.value.DoubleValue
-0.421

@<SCITEGIC>MOL_PROPERTY
VdW
SciTegic.value.DoubleValue
0.995

@<SCITEGIC>MOL_PROPERTY
VdW6
SciTegic.value.DoubleValue
-4.495

@<SCITEGIC>MOL_PROPERTY
VdW12
SciTegic.value.DoubleValue
5.490

@<SCITEGIC>MOL_PROPERTY
Bond
SciTegic.value.DoubleValue
0.106

@<SCITEGIC>MOL_PROPERTY
Angle
SciTegic.value.DoubleValue
2.715

@<SCITEGIC>MOL_PROPERTY
Pdih
SciTegic.value.DoubleValue
3.934

@<SCITEGIC>MOL_PROPERTY
Idih
SciTegic.value.DoubleValue
0.000

@<SCITEGIC>MOL_PROPERTY
Tether
SciTegic.value.DoubleValue
0.000

@<TRIPOS>MOLECULE
guest-s18_confgen4.mol2 : confsearch ligand conformer 342
          16          15           1
SMALL
USER_CHARGES
 
@<TRIPOS>ATOM
       1    C1      17.931606   20.812228   22.364475 C.2        1 MOL1         0.6075
       2    O1      17.514029   20.829865   23.505160 O.co2      1 MOL1        -0.6830
       3    O2      17.890434   21.770520   21.618938 O.co2      1 MOL1        -0.6830
       4    C2      18.557992   19.522400   21.846241 C.3        1 MOL1        -0.2050
       5    H1      18.357147   19.454045   20.770212 H          1 MOL1         0.0710
       6    H2      18.046922   18.678546   22.325373 H          1 MOL1         0.0710
       7    C3      20.081739   19.443592   22.110899 C.3        1 MOL1        -0.1947
       8    H3      20.577607   20.301370   21.635628 H          1 MOL1         0.0712
       9    H4      20.267380   19.525904   23.190859 H          1 MOL1         0.0712
      10    C4      20.690044   18.129928   21.577220 C.3        1 MOL1        -0.1921
      11    H5      20.505202   18.047571   20.497132 H          1 MOL1         0.0712
      12    H6      20.194865   17.271898   22.052740 H          1 MOL1         0.0712
      13    C5      22.206541   18.058411   21.844095 C.3        1 MOL1        -0.2936
      14    H7      22.418711   18.107080   22.920239 H          1 MOL1         0.0724
      15    H8      22.731337   18.888498   21.353159 H          1 MOL1         0.0724
      16    H9      22.623188   17.118736   21.458653 H          1 MOL1         0.0724
@<TRIPOS>BOND
    1     1     2    1
    2     1     3    2
    3     1     4    1
    4     4     5    1
    5     4     6    1
    6     4     7    1
    7     7     8    1
    8     7     9    1
    9     7    10    1
   10    10    11    1
   11    10    12    1
   12    10    13    1
   13    13    14    1
   14    13    15    1
   15    13    16    1
@<TRIPOS>SUBSTRUCTURE
       1 MOL1            1 RESIDUE      1      MOL     
@<SCITEGIC>MOL_PROPERTY
VConf Rank
SciTegic.value.IntegerValue
342

@<SCITEGIC>MOL_PROPERTY
Conf_Id
SciTegic.value.IntegerValue
22

@<SCITEGIC>MOL_PROPERTY
Delta U+W
SciTegic.value.DoubleValue
-1.185

@<SCITEGIC>MOL_PROPERTY
U+W
SciTegic.value.DoubleValue
-58.089

@<SCITEGIC>MOL_PROPERTY
Grad RMS
SciTegic.value.DoubleValue
0.000000

@<SCITEGIC>MOL_PROPERTY
U
SciTegic.value.DoubleValue
6.298

@<SCITEGIC>MOL_PROPERTY
W
SciTegic.value.DoubleValue
-64.387

@<SCITEGIC>MOL_PROPERTY
W(PB)
SciTegic.value.DoubleValue
-66.329

@<SCITEGIC>MOL_PROPERTY
W(SA)
SciTegic.value.DoubleValue
1.942

@<SCITEGIC>MOL_PROPERTY
Valence
SciTegic.value.DoubleValue
6.246

@<SCITEGIC>MOL_PROPERTY
Coulomb
SciTegic.value.DoubleValue
-0.408

@<SCITEGIC>MOL_PROPERTY
VdW
SciTegic.value.DoubleValue
0.460

@<SCITEGIC>MOL_PROPERTY
VdW6
SciTegic.value.DoubleValue
-4.207

@<SCITEGIC>MOL_PROPERTY
VdW12
SciTegic.value.DoubleValue
4.667

@<SCITEGIC>MOL_PROPERTY
Bond
SciTegic.value.DoubleValue
0.072

@<SCITEGIC>MOL_PROPERTY
Angle
SciTegic.value.DoubleValue
2.246

@<SCITEGIC>MOL_PROPERTY
Pdih
SciTegic.value.DoubleValue
3.928

@<SCITEGIC>MOL_PROPERTY
Idih
SciTegic.value.DoubleValue
0.001

@<SCITEGIC>MOL_PROPERTY
Tether
SciTegic.value.DoubleValue
0.000

@<TRIPOS>MOLECULE
guest-s18_confgen4.mol2 : confsearch ligand conformer 343
          16          15           1
SMALL
USER_CHARGES
 
@<TRIPOS>ATOM
       1    C1      19.467712   21.499137   21.033167 C.2        1 MOL1         0.6075
       2    O1      18.375399   21.807889   20.600132 O.co2      1 MOL1        -0.6830
       3    O2      20.493966   22.081204   20.743415 O.co2      1 MOL1        -0.6830
       4    C2      19.557647   20.303909   21.975460 C.3        1 MOL1        -0.2050
       5    H1      18.629864   20.259307   22.558379 H          1 MOL1         0.0710
       6    H2      20.375370   20.494222   22.679894 H          1 MOL1         0.0710
       7    C3      19.783484   18.964362   21.227394 C.3        1 MOL1        -0.1947
       8    H3      18.996350   18.845800   20.469904 H          1 MOL1         0.0712
       9    H4      20.736240   19.005416   20.681612 H          1 MOL1         0.0712
      10    C4      19.767451   17.729651   22.157792 C.3        1 MOL1        -0.1921
      11    H5      19.823335   16.821981   21.541090 H          1 MOL1         0.0712
      12    H6      18.810070   17.681861   22.694931 H          1 MOL1         0.0712
      13    C5      20.932253   17.715639   23.170697 C.3        1 MOL1        -0.2936
      14    H7      20.853624   18.545935   23.883584 H          1 MOL1         0.0724
      15    H8      21.899899   17.791795   22.657754 H          1 MOL1         0.0724
      16    H9      20.928054   16.781465   23.747161 H          1 MOL1         0.0724
@<TRIPOS>BOND
    1     1     2    1
    2     1     3    2
    3     1     4    1
    4     4     5    1
    5     4     6    1
    6     4     7    1
    7     7     8    1
    8     7     9    1
    9     7    10    1
   10    10    11    1
   11    10    12    1
   12    10    13    1
   13    13    14    1
   14    13    15    1
   15    13    16    1
@<TRIPOS>SUBSTRUCTURE
       1 MOL1            1 RESIDUE      1      MOL     
@<SCITEGIC>MOL_PROPERTY
VConf Rank
SciTegic.value.IntegerValue
343

@<SCITEGIC>MOL_PROPERTY
Conf_Id
SciTegic.value.IntegerValue
36

@<SCITEGIC>MOL_PROPERTY
Delta U+W
SciTegic.value.DoubleValue
-0.427

@<SCITEGIC>MOL_PROPERTY
U+W
SciTegic.value.DoubleValue
-57.331

@<SCITEGIC>MOL_PROPERTY
Grad RMS
SciTegic.value.DoubleValue
0.000000

@<SCITEGIC>MOL_PROPERTY
U
SciTegic.value.DoubleValue
7.263

@<SCITEGIC>MOL_PROPERTY
W
SciTegic.value.DoubleValue
-64.594

@<SCITEGIC>MOL_PROPERTY
W(PB)
SciTegic.value.DoubleValue
-66.513

@<SCITEGIC>MOL_PROPERTY
W(SA)
SciTegic.value.DoubleValue
1.920

@<SCITEGIC>MOL_PROPERTY
Valence
SciTegic.value.DoubleValue
6.734

@<SCITEGIC>MOL_PROPERTY
Coulomb
SciTegic.value.DoubleValue
-0.068

@<SCITEGIC>MOL_PROPERTY
VdW
SciTegic.value.DoubleValue
0.598

@<SCITEGIC>MOL_PROPERTY
VdW6
SciTegic.value.DoubleValue
-4.819

@<SCITEGIC>MOL_PROPERTY
VdW12
SciTegic.value.DoubleValue
5.417

@<SCITEGIC>MOL_PROPERTY
Bond
SciTegic.value.DoubleValue
0.107

@<SCITEGIC>MOL_PROPERTY
Angle
SciTegic.value.DoubleValue
2.469

@<SCITEGIC>MOL_PROPERTY
Pdih
SciTegic.value.DoubleValue
4.157

@<SCITEGIC>MOL_PROPERTY
Idih
SciTegic.value.DoubleValue
0.001

@<SCITEGIC>MOL_PROPERTY
Tether
SciTegic.value.DoubleValue
0.000

@<TRIPOS>MOLECULE
guest-s18_confgen4.mol2 : confsearch ligand conformer 344
          16          15           1
SMALL
USER_CHARGES
 
@<TRIPOS>ATOM
       1    C1      18.687054   19.677834   19.803009 C.2        1 MOL1         0.6075
       2    O1      17.873241   18.813093   19.546319 O.co2      1 MOL1        -0.6830
       3    O2      19.105467   20.470824   18.983197 O.co2      1 MOL1        -0.6830
       4    C2      19.227870   19.759941   21.226157 C.3        1 MOL1        -0.2050
       5    H1      18.426923   19.449373   21.906707 H          1 MOL1         0.0710
       6    H2      19.451674   20.810878   21.445267 H          1 MOL1         0.0710
       7    C3      20.492834   18.888589   21.439716 C.3        1 MOL1        -0.1947
       8    H3      20.245834   17.833312   21.258909 H          1 MOL1         0.0712
       9    H4      21.243634   19.165393   20.686650 H          1 MOL1         0.0712
      10    C4      21.117859   19.045208   22.845142 C.3        1 MOL1        -0.1921
      11    H5      21.375730   20.098661   23.021552 H          1 MOL1         0.0712
      12    H6      22.062446   18.484755   22.876045 H          1 MOL1         0.0712
      13    C5      20.201065   18.538292   23.978921 C.3        1 MOL1        -0.2936
      14    H7      19.290409   19.144903   24.059611 H          1 MOL1         0.0724
      15    H8      20.720878   18.589575   24.944412 H          1 MOL1         0.0724
      16    H9      19.906371   17.494507   23.808867 H          1 MOL1         0.0724
@<TRIPOS>BOND
    1     1     2    1
    2     1     3    2
    3     1     4    1
    4     4     5    1
    5     4     6    1
    6     4     7    1
    7     7     8    1
    8     7     9    1
    9     7    10    1
   10    10    11    1
   11    10    12    1
   12    10    13    1
   13    13    14    1
   14    13    15    1
   15    13    16    1
@<TRIPOS>SUBSTRUCTURE
       1 MOL1            1 RESIDUE      1      MOL     
@<SCITEGIC>MOL_PROPERTY
VConf Rank
SciTegic.value.IntegerValue
344

@<SCITEGIC>MOL_PROPERTY
Conf_Id
SciTegic.value.IntegerValue
17

@<SCITEGIC>MOL_PROPERTY
Delta U+W
SciTegic.value.DoubleValue
-0.432

@<SCITEGIC>MOL_PROPERTY
U+W
SciTegic.value.DoubleValue
-57.336

@<SCITEGIC>MOL_PROPERTY
Grad RMS
SciTegic.value.DoubleValue
0.000000

@<SCITEGIC>MOL_PROPERTY
U
SciTegic.value.DoubleValue
7.263

@<SCITEGIC>MOL_PROPERTY
W
SciTegic.value.DoubleValue
-64.599

@<SCITEGIC>MOL_PROPERTY
W(PB)
SciTegic.value.DoubleValue
-66.503

@<SCITEGIC>MOL_PROPERTY
W(SA)
SciTegic.value.DoubleValue
1.904

@<SCITEGIC>MOL_PROPERTY
Valence
SciTegic.value.DoubleValue
6.734

@<SCITEGIC>MOL_PROPERTY
Coulomb
SciTegic.value.DoubleValue
-0.068

@<SCITEGIC>MOL_PROPERTY
VdW
SciTegic.value.DoubleValue
0.598

@<SCITEGIC>MOL_PROPERTY
VdW6
SciTegic.value.DoubleValue
-4.819

@<SCITEGIC>MOL_PROPERTY
VdW12
SciTegic.value.DoubleValue
5.417

@<SCITEGIC>MOL_PROPERTY
Bond
SciTegic.value.DoubleValue
0.107

@<SCITEGIC>MOL_PROPERTY
Angle
SciTegic.value.DoubleValue
2.469

@<SCITEGIC>MOL_PROPERTY
Pdih
SciTegic.value.DoubleValue
4.157

@<SCITEGIC>MOL_PROPERTY
Idih
SciTegic.value.DoubleValue
0.001

@<SCITEGIC>MOL_PROPERTY
Tether
SciTegic.value.DoubleValue
0.000

@<TRIPOS>MOLECULE
guest-s18_confgen4.mol2 : confsearch ligand conformer 345
          16          15           1
SMALL
USER_CHARGES
 
@<TRIPOS>ATOM
       1    C1      22.474981   19.439023   21.881555 C.2        1 MOL1         0.6075
       2    O1      23.118212   18.867754   22.739604 O.co2      1 MOL1        -0.6830
       3    O2      22.726100   19.366861   20.694966 O.co2      1 MOL1        -0.6830
       4    C2      21.303744   20.312870   22.322106 C.3        1 MOL1        -0.2050
       5    H1      21.060960   21.009162   21.510123 H          1 MOL1         0.0710
       6    H2      21.647219   20.919945   23.168108 H          1 MOL1         0.0710
       7    C3      20.040768   19.514588   22.737647 C.3        1 MOL1        -0.1947
       8    H3      20.305202   18.801794   23.531135 H          1 MOL1         0.0712
       9    H4      19.306093   20.208561   23.168011 H          1 MOL1         0.0712
      10    C4      19.396883   18.762742   21.552607 C.3        1 MOL1        -0.1921
      11    H5      20.116818   18.050085   21.126536 H          1 MOL1         0.0712
      12    H6      19.144397   19.475061   20.754967 H          1 MOL1         0.0712
      13    C5      18.125721   18.005806   21.985668 C.3        1 MOL1        -0.2936
      14    H7      18.355857   17.264316   22.761992 H          1 MOL1         0.0724
      15    H8      17.681404   17.476664   21.132610 H          1 MOL1         0.0724
      16    H9      17.372740   18.698051   22.384707 H          1 MOL1         0.0724
@<TRIPOS>BOND
    1     1     2    1
    2     1     3    2
    3     1     4    1
    4     4     5    1
    5     4     6    1
    6     4     7    1
    7     7     8    1
    8     7     9    1
    9     7    10    1
   10    10    11    1
   11    10    12    1
   12    10    13    1
   13    13    14    1
   14    13    15    1
   15    13    16    1
@<TRIPOS>SUBSTRUCTURE
       1 MOL1            1 RESIDUE      1      MOL     
@<SCITEGIC>MOL_PROPERTY
VConf Rank
SciTegic.value.IntegerValue
345

@<SCITEGIC>MOL_PROPERTY
Conf_Id
SciTegic.value.IntegerValue
19

@<SCITEGIC>MOL_PROPERTY
Delta U+W
SciTegic.value.DoubleValue
0.048

@<SCITEGIC>MOL_PROPERTY
U+W
SciTegic.value.DoubleValue
-56.856

@<SCITEGIC>MOL_PROPERTY
Grad RMS
SciTegic.value.DoubleValue
0.000000

@<SCITEGIC>MOL_PROPERTY
U
SciTegic.value.DoubleValue
8.276

@<SCITEGIC>MOL_PROPERTY
W
SciTegic.value.DoubleValue
-65.132

@<SCITEGIC>MOL_PROPERTY
W(PB)
SciTegic.value.DoubleValue
-67.031

@<SCITEGIC>MOL_PROPERTY
W(SA)
SciTegic.value.DoubleValue
1.899

@<SCITEGIC>MOL_PROPERTY
Valence
SciTegic.value.DoubleValue
6.513

@<SCITEGIC>MOL_PROPERTY
Coulomb
SciTegic.value.DoubleValue
1.428

@<SCITEGIC>MOL_PROPERTY
VdW
SciTegic.value.DoubleValue
0.335

@<SCITEGIC>MOL_PROPERTY
VdW6
SciTegic.value.DoubleValue
-5.021

@<SCITEGIC>MOL_PROPERTY
VdW12
SciTegic.value.DoubleValue
5.356

@<SCITEGIC>MOL_PROPERTY
Bond
SciTegic.value.DoubleValue
0.092

@<SCITEGIC>MOL_PROPERTY
Angle
SciTegic.value.DoubleValue
2.417

@<SCITEGIC>MOL_PROPERTY
Pdih
SciTegic.value.DoubleValue
4.003

@<SCITEGIC>MOL_PROPERTY
Idih
SciTegic.value.DoubleValue
0.001

@<SCITEGIC>MOL_PROPERTY
Tether
SciTegic.value.DoubleValue
0.000

@<TRIPOS>MOLECULE
guest-s18_confgen4.mol2 : confsearch ligand conformer 346
          16          15           1
SMALL
USER_CHARGES
 
@<TRIPOS>ATOM
       1    C1      18.225294   18.076502   20.770523 C.2        1 MOL1         0.6075
       2    O1      17.882774   16.997118   21.210923 O.co2      1 MOL1        -0.6830
       3    O2      18.541499   18.258745   19.611617 O.co2      1 MOL1        -0.6830
       4    C2      18.235649   19.271060   21.720481 C.3        1 MOL1        -0.2050
       5    H1      17.299468   19.245040   22.290677 H          1 MOL1         0.0710
       6    H2      18.218955   20.192334   21.125451 H          1 MOL1         0.0710
       7    C3      19.437499   19.288992   22.700420 C.3        1 MOL1        -0.1947
       8    H3      19.290244   20.096569   23.430279 H          1 MOL1         0.0712
       9    H4      19.457935   18.348742   23.268870 H          1 MOL1         0.0712
      10    C4      20.787895   19.494174   21.980337 C.3        1 MOL1        -0.1921
      11    H5      20.761592   20.428400   21.402490 H          1 MOL1         0.0712
      12    H6      20.955652   18.680066   21.261442 H          1 MOL1         0.0712
      13    C5      21.960899   19.541803   22.979409 C.3        1 MOL1        -0.2936
      14    H7      21.838035   20.369010   23.690779 H          1 MOL1         0.0724
      15    H8      22.912487   19.687093   22.451689 H          1 MOL1         0.0724
      16    H9      22.028921   18.606031   23.549632 H          1 MOL1         0.0724
@<TRIPOS>BOND
    1     1     2    1
    2     1     3    2
    3     1     4    1
    4     4     5    1
    5     4     6    1
    6     4     7    1
    7     7     8    1
    8     7     9    1
    9     7    10    1
   10    10    11    1
   11    10    12    1
   12    10    13    1
   13    13    14    1
   14    13    15    1
   15    13    16    1
@<TRIPOS>SUBSTRUCTURE
       1 MOL1            1 RESIDUE      1      MOL     
@<SCITEGIC>MOL_PROPERTY
VConf Rank
SciTegic.value.IntegerValue
346

@<SCITEGIC>MOL_PROPERTY
Conf_Id
SciTegic.value.IntegerValue
20

@<SCITEGIC>MOL_PROPERTY
Delta U+W
SciTegic.value.DoubleValue
-0.010

@<SCITEGIC>MOL_PROPERTY
U+W
SciTegic.value.DoubleValue
-56.914

@<SCITEGIC>MOL_PROPERTY
Grad RMS
SciTegic.value.DoubleValue
0.000000

@<SCITEGIC>MOL_PROPERTY
U
SciTegic.value.DoubleValue
8.277

@<SCITEGIC>MOL_PROPERTY
W
SciTegic.value.DoubleValue
-65.191

@<SCITEGIC>MOL_PROPERTY
W(PB)
SciTegic.value.DoubleValue
-67.081

@<SCITEGIC>MOL_PROPERTY
W(SA)
SciTegic.value.DoubleValue
1.890

@<SCITEGIC>MOL_PROPERTY
Valence
SciTegic.value.DoubleValue
6.513

@<SCITEGIC>MOL_PROPERTY
Coulomb
SciTegic.value.DoubleValue
1.429

@<SCITEGIC>MOL_PROPERTY
VdW
SciTegic.value.DoubleValue
0.335

@<SCITEGIC>MOL_PROPERTY
VdW6
SciTegic.value.DoubleValue
-5.021

@<SCITEGIC>MOL_PROPERTY
VdW12
SciTegic.value.DoubleValue
5.356

@<SCITEGIC>MOL_PROPERTY
Bond
SciTegic.value.DoubleValue
0.092

@<SCITEGIC>MOL_PROPERTY
Angle
SciTegic.value.DoubleValue
2.417

@<SCITEGIC>MOL_PROPERTY
Pdih
SciTegic.value.DoubleValue
4.002

@<SCITEGIC>MOL_PROPERTY
Idih
SciTegic.value.DoubleValue
0.001

@<SCITEGIC>MOL_PROPERTY
Tether
SciTegic.value.DoubleValue
0.000

@<TRIPOS>MOLECULE
guest-s18_confgen4.mol2 : confsearch ligand conformer 347
          16          15           1
SMALL
USER_CHARGES
 
@<TRIPOS>ATOM
       1    C1      19.617346   18.056139   20.346306 C.2        1 MOL1         0.6075
       2    O1      20.365441   18.168552   19.395253 O.co2      1 MOL1        -0.6830
       3    O2      18.406156   18.054453   20.249778 O.co2      1 MOL1        -0.6830
       4    C2      20.234953   17.873337   21.730101 C.3        1 MOL1        -0.2050
       5    H1      20.973252   17.066581   21.653017 H          1 MOL1         0.0710
       6    H2      19.458797   17.518575   22.417832 H          1 MOL1         0.0710
       7    C3      20.924125   19.146807   22.292235 C.3        1 MOL1        -0.1947
       8    H3      21.406785   18.902869   23.248219 H          1 MOL1         0.0712
       9    H4      21.730313   19.443246   21.607006 H          1 MOL1         0.0712
      10    C4      19.972795   20.350091   22.494890 C.3        1 MOL1        -0.1921
      11    H5      19.509448   20.626525   21.537555 H          1 MOL1         0.0712
      12    H6      20.565784   21.218448   22.813401 H          1 MOL1         0.0712
      13    C5      18.872691   20.086171   23.544919 C.3        1 MOL1        -0.2936
      14    H7      18.179975   19.304538   23.207751 H          1 MOL1         0.0724
      15    H8      18.284977   20.996226   23.721704 H          1 MOL1         0.0724
      16    H9      19.308762   19.773190   24.502494 H          1 MOL1         0.0724
@<TRIPOS>BOND
    1     1     2    1
    2     1     3    2
    3     1     4    1
    4     4     5    1
    5     4     6    1
    6     4     7    1
    7     7     8    1
    8     7     9    1
    9     7    10    1
   10    10    11    1
   11    10    12    1
   12    10    13    1
   13    13    14    1
   14    13    15    1
   15    13    16    1
@<TRIPOS>SUBSTRUCTURE
       1 MOL1            1 RESIDUE      1      MOL     
@<SCITEGIC>MOL_PROPERTY
VConf Rank
SciTegic.value.IntegerValue
347

@<SCITEGIC>MOL_PROPERTY
Conf_Id
SciTegic.value.IntegerValue
37

@<SCITEGIC>MOL_PROPERTY
Delta U+W
SciTegic.value.DoubleValue
1.063

@<SCITEGIC>MOL_PROPERTY
U+W
SciTegic.value.DoubleValue
-55.841

@<SCITEGIC>MOL_PROPERTY
Grad RMS
SciTegic.value.DoubleValue
0.000000

@<SCITEGIC>MOL_PROPERTY
U
SciTegic.value.DoubleValue
9.719

@<SCITEGIC>MOL_PROPERTY
W
SciTegic.value.DoubleValue
-65.560

@<SCITEGIC>MOL_PROPERTY
W(PB)
SciTegic.value.DoubleValue
-67.414

@<SCITEGIC>MOL_PROPERTY
W(SA)
SciTegic.value.DoubleValue
1.854

@<SCITEGIC>MOL_PROPERTY
Valence
SciTegic.value.DoubleValue
7.002

@<SCITEGIC>MOL_PROPERTY
Coulomb
SciTegic.value.DoubleValue
2.402

@<SCITEGIC>MOL_PROPERTY
VdW
SciTegic.value.DoubleValue
0.314

@<SCITEGIC>MOL_PROPERTY
VdW6
SciTegic.value.DoubleValue
-5.861

@<SCITEGIC>MOL_PROPERTY
VdW12
SciTegic.value.DoubleValue
6.175

@<SCITEGIC>MOL_PROPERTY
Bond
SciTegic.value.DoubleValue
0.134

@<SCITEGIC>MOL_PROPERTY
Angle
SciTegic.value.DoubleValue
2.733

@<SCITEGIC>MOL_PROPERTY
Pdih
SciTegic.value.DoubleValue
4.133

@<SCITEGIC>MOL_PROPERTY
Idih
SciTegic.value.DoubleValue
0.002

@<SCITEGIC>MOL_PROPERTY
Tether
SciTegic.value.DoubleValue
0.000

@<TRIPOS>MOLECULE
guest-s18_confgen4.mol2 : confsearch ligand conformer 348
          16          15           1
SMALL
USER_CHARGES
 
@<TRIPOS>ATOM
       1    C1      22.097639   19.957820   21.858370 C.2        1 MOL1         0.6075
       2    O1      22.337586   21.147514   21.920318 O.co2      1 MOL1        -0.6830
       3    O2      22.782782   19.107306   22.390823 O.co2      1 MOL1        -0.6830
       4    C2      20.890830   19.508764   21.038793 C.3        1 MOL1        -0.2050
       5    H1      20.970283   18.430862   20.856962 H          1 MOL1         0.0710
       6    H2      20.963872   19.994745   20.058808 H          1 MOL1         0.0710
       7    C3      19.520348   19.855923   21.682175 C.3        1 MOL1        -0.1947
       8    H3      19.452258   20.946211   21.800452 H          1 MOL1         0.0712
       9    H4      18.715567   19.570346   20.991420 H          1 MOL1         0.0712
      10    C4      19.273072   19.187840   23.055679 C.3        1 MOL1        -0.1921
      11    H5      18.321979   19.558733   23.461870 H          1 MOL1         0.0712
      12    H6      20.053115   19.493682   23.766728 H          1 MOL1         0.0712
      13    C5      19.215866   17.647162   22.981667 C.3        1 MOL1        -0.2936
      14    H7      18.467302   17.315216   22.250551 H          1 MOL1         0.0724
      15    H8      18.945234   17.226039   23.958536 H          1 MOL1         0.0724
      16    H9      20.188566   17.225984   22.697148 H          1 MOL1         0.0724
@<TRIPOS>BOND
    1     1     2    1
    2     1     3    2
    3     1     4    1
    4     4     5    1
    5     4     6    1
    6     4     7    1
    7     7     8    1
    8     7     9    1
    9     7    10    1
   10    10    11    1
   11    10    12    1
   12    10    13    1
   13    13    14    1
   14    13    15    1
   15    13    16    1
@<TRIPOS>SUBSTRUCTURE
       1 MOL1            1 RESIDUE      1      MOL     
@<SCITEGIC>MOL_PROPERTY
VConf Rank
SciTegic.value.IntegerValue
348

@<SCITEGIC>MOL_PROPERTY
Conf_Id
SciTegic.value.IntegerValue
39

@<SCITEGIC>MOL_PROPERTY
Delta U+W
SciTegic.value.DoubleValue
1.129

@<SCITEGIC>MOL_PROPERTY
U+W
SciTegic.value.DoubleValue
-55.775

@<SCITEGIC>MOL_PROPERTY
Grad RMS
SciTegic.value.DoubleValue
0.000000

@<SCITEGIC>MOL_PROPERTY
U
SciTegic.value.DoubleValue
9.718

@<SCITEGIC>MOL_PROPERTY
W
SciTegic.value.DoubleValue
-65.493

@<SCITEGIC>MOL_PROPERTY
W(PB)
SciTegic.value.DoubleValue
-67.361

@<SCITEGIC>MOL_PROPERTY
W(SA)
SciTegic.value.DoubleValue
1.869

@<SCITEGIC>MOL_PROPERTY
Valence
SciTegic.value.DoubleValue
7.002

@<SCITEGIC>MOL_PROPERTY
Coulomb
SciTegic.value.DoubleValue
2.402

@<SCITEGIC>MOL_PROPERTY
VdW
SciTegic.value.DoubleValue
0.314

@<SCITEGIC>MOL_PROPERTY
VdW6
SciTegic.value.DoubleValue
-5.861

@<SCITEGIC>MOL_PROPERTY
VdW12
SciTegic.value.DoubleValue
6.175

@<SCITEGIC>MOL_PROPERTY
Bond
SciTegic.value.DoubleValue
0.134

@<SCITEGIC>MOL_PROPERTY
Angle
SciTegic.value.DoubleValue
2.734

@<SCITEGIC>MOL_PROPERTY
Pdih
SciTegic.value.DoubleValue
4.133

@<SCITEGIC>MOL_PROPERTY
Idih
SciTegic.value.DoubleValue
0.002

@<SCITEGIC>MOL_PROPERTY
Tether
SciTegic.value.DoubleValue
0.000

@<TRIPOS>MOLECULE
guest-s18_confgen4.mol2 : confsearch ligand conformer 349
          16          15           1
SMALL
USER_CHARGES
 
@<TRIPOS>ATOM
       1    C1      21.285264   20.373846   22.890662 C.2        1 MOL1         0.6075
       2    O1      22.371243   20.120250   22.407795 O.co2      1 MOL1        -0.6830
       3    O2      21.113610   20.588567   24.074548 O.co2      1 MOL1        -0.6830
       4    C2      20.092642   20.518281   21.947026 C.3        1 MOL1        -0.2050
       5    H1      20.434254   20.371670   20.915141 H          1 MOL1         0.0710
       6    H2      19.763490   21.561197   22.022758 H          1 MOL1         0.0710
       7    C3      18.887140   19.585203   22.252166 C.3        1 MOL1        -0.1947
       8    H3      18.679826   19.581979   23.331309 H          1 MOL1         0.0712
       9    H4      17.996442   20.014890   21.774172 H          1 MOL1         0.0712
      10    C4      19.045401   18.134241   21.737167 C.3        1 MOL1        -0.1921
      11    H5      19.254453   18.141912   20.658524 H          1 MOL1         0.0712
      12    H6      18.085107   17.614939   21.861480 H          1 MOL1         0.0712
      13    C5      20.136083   17.327107   22.471492 C.3        1 MOL1        -0.2936
      14    H7      21.138200   17.710083   22.243260 H          1 MOL1         0.0724
      15    H8      20.107381   16.274049   22.163250 H          1 MOL1         0.0724
      16    H9      19.990753   17.366606   23.558989 H          1 MOL1         0.0724
@<TRIPOS>BOND
    1     1     2    1
    2     1     3    2
    3     1     4    1
    4     4     5    1
    5     4     6    1
    6     4     7    1
    7     7     8    1
    8     7     9    1
    9     7    10    1
   10    10    11    1
   11    10    12    1
   12    10    13    1
   13    13    14    1
   14    13    15    1
   15    13    16    1
@<TRIPOS>SUBSTRUCTURE
       1 MOL1            1 RESIDUE      1      MOL     
@<SCITEGIC>MOL_PROPERTY
VConf Rank
SciTegic.value.IntegerValue
349

@<SCITEGIC>MOL_PROPERTY
Conf_Id
SciTegic.value.IntegerValue
47

@<SCITEGIC>MOL_PROPERTY
Delta U+W
SciTegic.value.DoubleValue
2.301

@<SCITEGIC>MOL_PROPERTY
U+W
SciTegic.value.DoubleValue
-54.603

@<SCITEGIC>MOL_PROPERTY
Grad RMS
SciTegic.value.DoubleValue
0.000000

@<SCITEGIC>MOL_PROPERTY
U
SciTegic.value.DoubleValue
11.258

@<SCITEGIC>MOL_PROPERTY
W
SciTegic.value.DoubleValue
-65.861

@<SCITEGIC>MOL_PROPERTY
W(PB)
SciTegic.value.DoubleValue
-67.702

@<SCITEGIC>MOL_PROPERTY
W(SA)
SciTegic.value.DoubleValue
1.841

@<SCITEGIC>MOL_PROPERTY
Valence
SciTegic.value.DoubleValue
8.169

@<SCITEGIC>MOL_PROPERTY
Coulomb
SciTegic.value.DoubleValue
2.735

@<SCITEGIC>MOL_PROPERTY
VdW
SciTegic.value.DoubleValue
0.355

@<SCITEGIC>MOL_PROPERTY
VdW6
SciTegic.value.DoubleValue
-6.245

@<SCITEGIC>MOL_PROPERTY
VdW12
SciTegic.value.DoubleValue
6.600

@<SCITEGIC>MOL_PROPERTY
Bond
SciTegic.value.DoubleValue
0.149

@<SCITEGIC>MOL_PROPERTY
Angle
SciTegic.value.DoubleValue
3.168

@<SCITEGIC>MOL_PROPERTY
Pdih
SciTegic.value.DoubleValue
4.840

@<SCITEGIC>MOL_PROPERTY
Idih
SciTegic.value.DoubleValue
0.011

@<SCITEGIC>MOL_PROPERTY
Tether
SciTegic.value.DoubleValue
0.000

@<TRIPOS>MOLECULE
guest-s18_confgen4.mol2 : confsearch ligand conformer 350
          16          15           1
SMALL
USER_CHARGES
 
@<TRIPOS>ATOM
       1    C1      18.734205   20.692188   22.693754 C.2        1 MOL1         0.6075
       2    O1      17.690551   20.297586   23.175660 O.co2      1 MOL1        -0.6830
       3    O2      18.790166   21.527458   21.812839 O.co2      1 MOL1        -0.6830
       4    C2      20.045841   20.179932   23.286100 C.3        1 MOL1        -0.2050
       5    H1      20.055711   20.497543   24.335278 H          1 MOL1         0.0710
       6    H2      20.882802   20.691915   22.795846 H          1 MOL1         0.0710
       7    C3      20.246498   18.639552   23.223230 C.3        1 MOL1        -0.1947
       8    H3      21.002707   18.365432   23.971200 H          1 MOL1         0.0712
       9    H4      19.321908   18.128783   23.526198 H          1 MOL1         0.0712
      10    C4      20.724001   18.104692   21.851561 C.3        1 MOL1        -0.1921
      11    H5      20.984946   17.043340   21.964406 H          1 MOL1         0.0712
      12    H6      21.647367   18.619049   21.551453 H          1 MOL1         0.0712
      13    C5      19.671038   18.232597   20.731206 C.3        1 MOL1        -0.2936
      14    H7      20.009902   17.714407   19.824884 H          1 MOL1         0.0724
      15    H8      19.496551   19.282199   20.464954 H          1 MOL1         0.0724
      16    H9      18.713960   17.790343   21.037378 H          1 MOL1         0.0724
@<TRIPOS>BOND
    1     1     2    1
    2     1     3    2
    3     1     4    1
    4     4     5    1
    5     4     6    1
    6     4     7    1
    7     7     8    1
    8     7     9    1
    9     7    10    1
   10    10    11    1
   11    10    12    1
   12    10    13    1
   13    13    14    1
   14    13    15    1
   15    13    16    1
@<TRIPOS>SUBSTRUCTURE
       1 MOL1            1 RESIDUE      1      MOL     
@<SCITEGIC>MOL_PROPERTY
VConf Rank
SciTegic.value.IntegerValue
350

@<SCITEGIC>MOL_PROPERTY
Conf_Id
SciTegic.value.IntegerValue
45

@<SCITEGIC>MOL_PROPERTY
Delta U+W
SciTegic.value.DoubleValue
2.303

@<SCITEGIC>MOL_PROPERTY
U+W
SciTegic.value.DoubleValue
-54.601

@<SCITEGIC>MOL_PROPERTY
Grad RMS
SciTegic.value.DoubleValue
0.000000

@<SCITEGIC>MOL_PROPERTY
U
SciTegic.value.DoubleValue
11.258

@<SCITEGIC>MOL_PROPERTY
W
SciTegic.value.DoubleValue
-65.860

@<SCITEGIC>MOL_PROPERTY
W(PB)
SciTegic.value.DoubleValue
-67.709

@<SCITEGIC>MOL_PROPERTY
W(SA)
SciTegic.value.DoubleValue
1.849

@<SCITEGIC>MOL_PROPERTY
Valence
SciTegic.value.DoubleValue
8.169

@<SCITEGIC>MOL_PROPERTY
Coulomb
SciTegic.value.DoubleValue
2.735

@<SCITEGIC>MOL_PROPERTY
VdW
SciTegic.value.DoubleValue
0.355

@<SCITEGIC>MOL_PROPERTY
VdW6
SciTegic.value.DoubleValue
-6.245

@<SCITEGIC>MOL_PROPERTY
VdW12
SciTegic.value.DoubleValue
6.600

@<SCITEGIC>MOL_PROPERTY
Bond
SciTegic.value.DoubleValue
0.149

@<SCITEGIC>MOL_PROPERTY
Angle
SciTegic.value.DoubleValue
3.168

@<SCITEGIC>MOL_PROPERTY
Pdih
SciTegic.value.DoubleValue
4.840

@<SCITEGIC>MOL_PROPERTY
Idih
SciTegic.value.DoubleValue
0.011

@<SCITEGIC>MOL_PROPERTY
Tether
SciTegic.value.DoubleValue
0.000

@<TRIPOS>MOLECULE
guest-s18_confgen4.mol2 : confsearch ligand conformer 351
          16          15           1
SMALL
USER_CHARGES
 
@<TRIPOS>ATOM
       1    C1      22.527325   20.153631   22.318157 C.2        1 MOL1         0.6075
       2    O1      23.014524   19.574548   21.366802 O.co2      1 MOL1        -0.6830
       3    O2      23.166000   20.889174   23.043681 O.co2      1 MOL1        -0.6830
       4    C2      21.044150   19.967865   22.643082 C.3        1 MOL1        -0.2050
       5    H1      20.580180   20.961245   22.633757 H          1 MOL1         0.0710
       6    H2      20.978849   19.593080   23.671399 H          1 MOL1         0.0710
       7    C3      20.269566   19.019259   21.689922 C.3        1 MOL1        -0.1947
       8    H3      20.343128   19.396864   20.660615 H          1 MOL1         0.0712
       9    H4      20.742199   18.027292   21.699341 H          1 MOL1         0.0712
      10    C4      18.784942   18.890621   22.090678 C.3        1 MOL1        -0.1921
      11    H5      18.310628   19.881787   22.079949 H          1 MOL1         0.0712
      12    H6      18.709925   18.511395   23.119298 H          1 MOL1         0.0712
      13    C5      18.021075   17.947372   21.140452 C.3        1 MOL1        -0.2936
      14    H7      18.053203   18.319620   20.108043 H          1 MOL1         0.0724
      15    H8      16.967792   17.867111   21.439274 H          1 MOL1         0.0724
      16    H9      18.455442   16.939115   21.155057 H          1 MOL1         0.0724
@<TRIPOS>BOND
    1     1     2    1
    2     1     3    2
    3     1     4    1
    4     4     5    1
    5     4     6    1
    6     4     7    1
    7     7     8    1
    8     7     9    1
    9     7    10    1
   10    10    11    1
   11    10    12    1
   12    10    13    1
   13    13    14    1
   14    13    15    1
   15    13    16    1
@<TRIPOS>SUBSTRUCTURE
       1 MOL1            1 RESIDUE      1      MOL     
@<SCITEGIC>MOL_PROPERTY
VConf Rank
SciTegic.value.IntegerValue
351

@<SCITEGIC>MOL_PROPERTY
Conf_Id
SciTegic.value.IntegerValue
0

@<SCITEGIC>MOL_PROPERTY
Delta U+W
SciTegic.value.DoubleValue
0.000

@<SCITEGIC>MOL_PROPERTY
U+W
SciTegic.value.DoubleValue
-56.904

@<SCITEGIC>MOL_PROPERTY
Grad RMS
SciTegic.value.DoubleValue
0.000000

@<SCITEGIC>MOL_PROPERTY
U
SciTegic.value.DoubleValue
7.329

@<SCITEGIC>MOL_PROPERTY
W
SciTegic.value.DoubleValue
-64.233

@<SCITEGIC>MOL_PROPERTY
W(PB)
SciTegic.value.DoubleValue
-66.148

@<SCITEGIC>MOL_PROPERTY
W(SA)
SciTegic.value.DoubleValue
1.915

@<SCITEGIC>MOL_PROPERTY
Valence
SciTegic.value.DoubleValue
6.755

@<SCITEGIC>MOL_PROPERTY
Coulomb
SciTegic.value.DoubleValue
-0.421

@<SCITEGIC>MOL_PROPERTY
VdW
SciTegic.value.DoubleValue
0.995

@<SCITEGIC>MOL_PROPERTY
VdW6
SciTegic.value.DoubleValue
-4.495

@<SCITEGIC>MOL_PROPERTY
VdW12
SciTegic.value.DoubleValue
5.490

@<SCITEGIC>MOL_PROPERTY
Bond
SciTegic.value.DoubleValue
0.106

@<SCITEGIC>MOL_PROPERTY
Angle
SciTegic.value.DoubleValue
2.715

@<SCITEGIC>MOL_PROPERTY
Pdih
SciTegic.value.DoubleValue
3.934

@<SCITEGIC>MOL_PROPERTY
Idih
SciTegic.value.DoubleValue
0.000

@<SCITEGIC>MOL_PROPERTY
Tether
SciTegic.value.DoubleValue
0.000

@<TRIPOS>MOLECULE
guest-s18_confgen4.mol2 : confsearch ligand conformer 352
          16          15           1
SMALL
USER_CHARGES
 
@<TRIPOS>ATOM
       1    C1      17.452971   19.906350   21.524153 C.2        1 MOL1         0.6075
       2    O1      16.983068   20.600476   22.403484 O.co2      1 MOL1        -0.6830
       3    O2      17.129055   19.990454   20.356313 O.co2      1 MOL1        -0.6830
       4    C2      18.520644   18.886441   21.904209 C.3        1 MOL1        -0.2050
       5    H1      18.425565   18.026092   21.230703 H          1 MOL1         0.0710
       6    H2      18.305289   18.529116   22.918502 H          1 MOL1         0.0710
       7    C3      19.956382   19.462550   21.834820 C.3        1 MOL1        -0.1947
       8    H3      20.152428   19.827222   20.816915 H          1 MOL1         0.0712
       9    H4      20.032133   20.330316   22.504741 H          1 MOL1         0.0712
      10    C4      21.016421   18.411080   22.223782 C.3        1 MOL1        -0.1921
      11    H5      20.941441   17.543426   21.553638 H          1 MOL1         0.0712
      12    H6      20.821091   18.046620   23.241894 H          1 MOL1         0.0712
      13    C5      22.442700   18.991381   22.152495 C.3        1 MOL1        -0.2936
      14    H7      22.555210   19.842326   22.837115 H          1 MOL1         0.0724
      15    H8      22.676439   19.335437   21.136393 H          1 MOL1         0.0724
      16    H9      23.183907   18.231307   22.431867 H          1 MOL1         0.0724
@<TRIPOS>BOND
    1     1     2    1
    2     1     3    2
    3     1     4    1
    4     4     5    1
    5     4     6    1
    6     4     7    1
    7     7     8    1
    8     7     9    1
    9     7    10    1
   10    10    11    1
   11    10    12    1
   12    10    13    1
   13    13    14    1
   14    13    15    1
   15    13    16    1
@<TRIPOS>SUBSTRUCTURE
       1 MOL1            1 RESIDUE      1      MOL     
@<SCITEGIC>MOL_PROPERTY
VConf Rank
SciTegic.value.IntegerValue
352

@<SCITEGIC>MOL_PROPERTY
Conf_Id
SciTegic.value.IntegerValue
22

@<SCITEGIC>MOL_PROPERTY
Delta U+W
SciTegic.value.DoubleValue
-1.185

@<SCITEGIC>MOL_PROPERTY
U+W
SciTegic.value.DoubleValue
-58.089

@<SCITEGIC>MOL_PROPERTY
Grad RMS
SciTegic.value.DoubleValue
0.000000

@<SCITEGIC>MOL_PROPERTY
U
SciTegic.value.DoubleValue
6.298

@<SCITEGIC>MOL_PROPERTY
W
SciTegic.value.DoubleValue
-64.387

@<SCITEGIC>MOL_PROPERTY
W(PB)
SciTegic.value.DoubleValue
-66.329

@<SCITEGIC>MOL_PROPERTY
W(SA)
SciTegic.value.DoubleValue
1.942

@<SCITEGIC>MOL_PROPERTY
Valence
SciTegic.value.DoubleValue
6.246

@<SCITEGIC>MOL_PROPERTY
Coulomb
SciTegic.value.DoubleValue
-0.408

@<SCITEGIC>MOL_PROPERTY
VdW
SciTegic.value.DoubleValue
0.460

@<SCITEGIC>MOL_PROPERTY
VdW6
SciTegic.value.DoubleValue
-4.207

@<SCITEGIC>MOL_PROPERTY
VdW12
SciTegic.value.DoubleValue
4.667

@<SCITEGIC>MOL_PROPERTY
Bond
SciTegic.value.DoubleValue
0.072

@<SCITEGIC>MOL_PROPERTY
Angle
SciTegic.value.DoubleValue
2.246

@<SCITEGIC>MOL_PROPERTY
Pdih
SciTegic.value.DoubleValue
3.928

@<SCITEGIC>MOL_PROPERTY
Idih
SciTegic.value.DoubleValue
0.001

@<SCITEGIC>MOL_PROPERTY
Tether
SciTegic.value.DoubleValue
0.000

@<TRIPOS>MOLECULE
guest-s18_confgen4.mol2 : confsearch ligand conformer 353
          16          15           1
SMALL
USER_CHARGES
 
@<TRIPOS>ATOM
       1    C1      21.598065   17.146112   22.169291 C.2        1 MOL1         0.6075
       2    O1      21.575801   16.370503   23.104133 O.co2      1 MOL1        -0.6830
       3    O2      22.563465   17.301129   21.448230 O.co2      1 MOL1        -0.6830
       4    C2      20.353744   17.984698   21.899084 C.3        1 MOL1        -0.2050
       5    H1      19.475899   17.394145   22.187531 H          1 MOL1         0.0710
       6    H2      20.291797   18.152369   20.817804 H          1 MOL1         0.0710
       7    C3      20.362392   19.335730   22.660419 C.3        1 MOL1        -0.1947
       8    H3      20.512751   19.137078   23.730633 H          1 MOL1         0.0712
       9    H4      21.222128   19.936018   22.332064 H          1 MOL1         0.0712
      10    C4      19.059632   20.149545   22.484556 C.3        1 MOL1        -0.1921
      11    H5      19.103361   21.031735   23.138114 H          1 MOL1         0.0712
      12    H6      18.200968   19.553770   22.823864 H          1 MOL1         0.0712
      13    C5      18.825518   20.617242   21.032184 C.3        1 MOL1        -0.2936
      14    H7      18.662013   19.766780   20.358565 H          1 MOL1         0.0724
      15    H8      19.684592   21.191199   20.660951 H          1 MOL1         0.0724
      16    H9      17.938591   21.261518   20.974944 H          1 MOL1         0.0724
@<TRIPOS>BOND
    1     1     2    1
    2     1     3    2
    3     1     4    1
    4     4     5    1
    5     4     6    1
    6     4     7    1
    7     7     8    1
    8     7     9    1
    9     7    10    1
   10    10    11    1
   11    10    12    1
   12    10    13    1
   13    13    14    1
   14    13    15    1
   15    13    16    1
@<TRIPOS>SUBSTRUCTURE
       1 MOL1            1 RESIDUE      1      MOL     
@<SCITEGIC>MOL_PROPERTY
VConf Rank
SciTegic.value.IntegerValue
353

@<SCITEGIC>MOL_PROPERTY
Conf_Id
SciTegic.value.IntegerValue
36

@<SCITEGIC>MOL_PROPERTY
Delta U+W
SciTegic.value.DoubleValue
-0.427

@<SCITEGIC>MOL_PROPERTY
U+W
SciTegic.value.DoubleValue
-57.331

@<SCITEGIC>MOL_PROPERTY
Grad RMS
SciTegic.value.DoubleValue
0.000000

@<SCITEGIC>MOL_PROPERTY
U
SciTegic.value.DoubleValue
7.263

@<SCITEGIC>MOL_PROPERTY
W
SciTegic.value.DoubleValue
-64.594

@<SCITEGIC>MOL_PROPERTY
W(PB)
SciTegic.value.DoubleValue
-66.513

@<SCITEGIC>MOL_PROPERTY
W(SA)
SciTegic.value.DoubleValue
1.920

@<SCITEGIC>MOL_PROPERTY
Valence
SciTegic.value.DoubleValue
6.734

@<SCITEGIC>MOL_PROPERTY
Coulomb
SciTegic.value.DoubleValue
-0.068

@<SCITEGIC>MOL_PROPERTY
VdW
SciTegic.value.DoubleValue
0.598

@<SCITEGIC>MOL_PROPERTY
VdW6
SciTegic.value.DoubleValue
-4.819

@<SCITEGIC>MOL_PROPERTY
VdW12
SciTegic.value.DoubleValue
5.417

@<SCITEGIC>MOL_PROPERTY
Bond
SciTegic.value.DoubleValue
0.107

@<SCITEGIC>MOL_PROPERTY
Angle
SciTegic.value.DoubleValue
2.469

@<SCITEGIC>MOL_PROPERTY
Pdih
SciTegic.value.DoubleValue
4.157

@<SCITEGIC>MOL_PROPERTY
Idih
SciTegic.value.DoubleValue
0.001

@<SCITEGIC>MOL_PROPERTY
Tether
SciTegic.value.DoubleValue
0.000

@<TRIPOS>MOLECULE
guest-s18_confgen4.mol2 : confsearch ligand conformer 354
          16          15           1
SMALL
USER_CHARGES
 
@<TRIPOS>ATOM
       1    C1      21.216977   16.988098   21.287429 C.2        1 MOL1         0.6075
       2    O1      20.957984   16.683435   20.140232 O.co2      1 MOL1        -0.6830
       3    O2      21.684284   16.213830   22.098680 O.co2      1 MOL1        -0.6830
       4    C2      20.920985   18.413752   21.739616 C.3        1 MOL1        -0.2050
       5    H1      21.072921   19.075740   20.879497 H          1 MOL1         0.0710
       6    H2      21.662371   18.691109   22.498554 H          1 MOL1         0.0710
       7    C3      19.487464   18.578785   22.307751 C.3        1 MOL1        -0.1947
       8    H3      18.753493   18.339424   21.525892 H          1 MOL1         0.0712
       9    H4      19.338447   17.842501   23.109691 H          1 MOL1         0.0712
      10    C4      19.207859   19.990916   22.871767 C.3        1 MOL1        -0.1921
      11    H5      19.934515   20.225788   23.661823 H          1 MOL1         0.0712
      12    H6      18.218470   19.990806   23.349699 H          1 MOL1         0.0712
      13    C5      19.239261   21.094465   21.792821 C.3        1 MOL1        -0.2936
      14    H7      20.243189   21.208573   21.365165 H          1 MOL1         0.0724
      15    H8      18.950383   22.061449   22.224675 H          1 MOL1         0.0724
      16    H9      18.540683   20.866468   20.977188 H          1 MOL1         0.0724
@<TRIPOS>BOND
    1     1     2    1
    2     1     3    2
    3     1     4    1
    4     4     5    1
    5     4     6    1
    6     4     7    1
    7     7     8    1
    8     7     9    1
    9     7    10    1
   10    10    11    1
   11    10    12    1
   12    10    13    1
   13    13    14    1
   14    13    15    1
   15    13    16    1
@<TRIPOS>SUBSTRUCTURE
       1 MOL1            1 RESIDUE      1      MOL     
@<SCITEGIC>MOL_PROPERTY
VConf Rank
SciTegic.value.IntegerValue
354

@<SCITEGIC>MOL_PROPERTY
Conf_Id
SciTegic.value.IntegerValue
17

@<SCITEGIC>MOL_PROPERTY
Delta U+W
SciTegic.value.DoubleValue
-0.432

@<SCITEGIC>MOL_PROPERTY
U+W
SciTegic.value.DoubleValue
-57.336

@<SCITEGIC>MOL_PROPERTY
Grad RMS
SciTegic.value.DoubleValue
0.000000

@<SCITEGIC>MOL_PROPERTY
U
SciTegic.value.DoubleValue
7.263

@<SCITEGIC>MOL_PROPERTY
W
SciTegic.value.DoubleValue
-64.599

@<SCITEGIC>MOL_PROPERTY
W(PB)
SciTegic.value.DoubleValue
-66.503

@<SCITEGIC>MOL_PROPERTY
W(SA)
SciTegic.value.DoubleValue
1.904

@<SCITEGIC>MOL_PROPERTY
Valence
SciTegic.value.DoubleValue
6.734

@<SCITEGIC>MOL_PROPERTY
Coulomb
SciTegic.value.DoubleValue
-0.068

@<SCITEGIC>MOL_PROPERTY
VdW
SciTegic.value.DoubleValue
0.598

@<SCITEGIC>MOL_PROPERTY
VdW6
SciTegic.value.DoubleValue
-4.819

@<SCITEGIC>MOL_PROPERTY
VdW12
SciTegic.value.DoubleValue
5.417

@<SCITEGIC>MOL_PROPERTY
Bond
SciTegic.value.DoubleValue
0.107

@<SCITEGIC>MOL_PROPERTY
Angle
SciTegic.value.DoubleValue
2.469

@<SCITEGIC>MOL_PROPERTY
Pdih
SciTegic.value.DoubleValue
4.157

@<SCITEGIC>MOL_PROPERTY
Idih
SciTegic.value.DoubleValue
0.001

@<SCITEGIC>MOL_PROPERTY
Tether
SciTegic.value.DoubleValue
0.000

@<TRIPOS>MOLECULE
guest-s18_confgen4.mol2 : confsearch ligand conformer 355
          16          15           1
SMALL
USER_CHARGES
 
@<TRIPOS>ATOM
       1    C1      20.864696   17.954343   24.008948 C.2        1 MOL1         0.6075
       2    O1      22.070477   17.815894   24.066085 O.co2      1 MOL1        -0.6830
       3    O2      20.190613   18.355991   24.936608 O.co2      1 MOL1        -0.6830
       4    C2      20.158038   17.580240   22.708881 C.3        1 MOL1        -0.2050
       5    H1      19.093017   17.425513   22.920716 H          1 MOL1         0.0710
       6    H2      20.560109   16.613537   22.383215 H          1 MOL1         0.0710
       7    C3      20.331601   18.621539   21.572832 C.3        1 MOL1        -0.1947
       8    H3      21.402668   18.787405   21.391370 H          1 MOL1         0.0712
       9    H4      19.913788   18.209121   20.644446 H          1 MOL1         0.0712
      10    C4      19.640405   19.965683   21.888599 C.3        1 MOL1        -0.1921
      11    H5      20.065114   20.398120   22.805302 H          1 MOL1         0.0712
      12    H6      18.572049   19.796609   22.082002 H          1 MOL1         0.0712
      13    C5      19.799310   20.970083   20.730033 C.3        1 MOL1        -0.2936
      14    H7      20.859209   21.180785   20.535945 H          1 MOL1         0.0724
      15    H8      19.303540   21.919491   20.970766 H          1 MOL1         0.0724
      16    H9      19.352467   20.578927   19.806592 H          1 MOL1         0.0724
@<TRIPOS>BOND
    1     1     2    1
    2     1     3    2
    3     1     4    1
    4     4     5    1
    5     4     6    1
    6     4     7    1
    7     7     8    1
    8     7     9    1
    9     7    10    1
   10    10    11    1
   11    10    12    1
   12    10    13    1
   13    13    14    1
   14    13    15    1
   15    13    16    1
@<TRIPOS>SUBSTRUCTURE
       1 MOL1            1 RESIDUE      1      MOL     
@<SCITEGIC>MOL_PROPERTY
VConf Rank
SciTegic.value.IntegerValue
355

@<SCITEGIC>MOL_PROPERTY
Conf_Id
SciTegic.value.IntegerValue
19

@<SCITEGIC>MOL_PROPERTY
Delta U+W
SciTegic.value.DoubleValue
0.048

@<SCITEGIC>MOL_PROPERTY
U+W
SciTegic.value.DoubleValue
-56.856

@<SCITEGIC>MOL_PROPERTY
Grad RMS
SciTegic.value.DoubleValue
0.000000

@<SCITEGIC>MOL_PROPERTY
U
SciTegic.value.DoubleValue
8.276

@<SCITEGIC>MOL_PROPERTY
W
SciTegic.value.DoubleValue
-65.132

@<SCITEGIC>MOL_PROPERTY
W(PB)
SciTegic.value.DoubleValue
-67.031

@<SCITEGIC>MOL_PROPERTY
W(SA)
SciTegic.value.DoubleValue
1.899

@<SCITEGIC>MOL_PROPERTY
Valence
SciTegic.value.DoubleValue
6.513

@<SCITEGIC>MOL_PROPERTY
Coulomb
SciTegic.value.DoubleValue
1.428

@<SCITEGIC>MOL_PROPERTY
VdW
SciTegic.value.DoubleValue
0.335

@<SCITEGIC>MOL_PROPERTY
VdW6
SciTegic.value.DoubleValue
-5.021

@<SCITEGIC>MOL_PROPERTY
VdW12
SciTegic.value.DoubleValue
5.356

@<SCITEGIC>MOL_PROPERTY
Bond
SciTegic.value.DoubleValue
0.092

@<SCITEGIC>MOL_PROPERTY
Angle
SciTegic.value.DoubleValue
2.417

@<SCITEGIC>MOL_PROPERTY
Pdih
SciTegic.value.DoubleValue
4.003

@<SCITEGIC>MOL_PROPERTY
Idih
SciTegic.value.DoubleValue
0.001

@<SCITEGIC>MOL_PROPERTY
Tether
SciTegic.value.DoubleValue
0.000

@<TRIPOS>MOLECULE
guest-s18_confgen4.mol2 : confsearch ligand conformer 356
          16          15           1
SMALL
USER_CHARGES
 
@<TRIPOS>ATOM
       1    C1      18.902841   19.229120   19.927767 C.2        1 MOL1         0.6075
       2    O1      18.801758   20.352345   19.475561 O.co2      1 MOL1        -0.6830
       3    O2      17.994208   18.422497   19.930480 O.co2      1 MOL1        -0.6830
       4    C2      20.251410   18.802826   20.501469 C.3        1 MOL1        -0.2050
       5    H1      21.025003   19.121112   19.792608 H          1 MOL1         0.0710
       6    H2      20.286305   17.707137   20.537976 H          1 MOL1         0.0710
       7    C3      20.558213   19.394657   21.901701 C.3        1 MOL1        -0.1947
       8    H3      21.594803   19.151768   22.171971 H          1 MOL1         0.0712
       9    H4      20.491650   20.490622   21.856382 H          1 MOL1         0.0712
      10    C4      19.608524   18.857825   22.994446 C.3        1 MOL1        -0.1921
      11    H5      19.666952   17.761153   23.030158 H          1 MOL1         0.0712
      12    H6      18.569187   19.113069   22.744743 H          1 MOL1         0.0712
      13    C5      19.956358   19.435477   24.380693 C.3        1 MOL1        -0.2936
      14    H7      20.979959   19.166734   24.672984 H          1 MOL1         0.0724
      15    H8      19.271999   19.044900   25.145035 H          1 MOL1         0.0724
      16    H9      19.875628   20.530435   24.381046 H          1 MOL1         0.0724
@<TRIPOS>BOND
    1     1     2    1
    2     1     3    2
    3     1     4    1
    4     4     5    1
    5     4     6    1
    6     4     7    1
    7     7     8    1
    8     7     9    1
    9     7    10    1
   10    10    11    1
   11    10    12    1
   12    10    13    1
   13    13    14    1
   14    13    15    1
   15    13    16    1
@<TRIPOS>SUBSTRUCTURE
       1 MOL1            1 RESIDUE      1      MOL     
@<SCITEGIC>MOL_PROPERTY
VConf Rank
SciTegic.value.IntegerValue
356

@<SCITEGIC>MOL_PROPERTY
Conf_Id
SciTegic.value.IntegerValue
20

@<SCITEGIC>MOL_PROPERTY
Delta U+W
SciTegic.value.DoubleValue
-0.010

@<SCITEGIC>MOL_PROPERTY
U+W
SciTegic.value.DoubleValue
-56.914

@<SCITEGIC>MOL_PROPERTY
Grad RMS
SciTegic.value.DoubleValue
0.000000

@<SCITEGIC>MOL_PROPERTY
U
SciTegic.value.DoubleValue
8.277

@<SCITEGIC>MOL_PROPERTY
W
SciTegic.value.DoubleValue
-65.191

@<SCITEGIC>MOL_PROPERTY
W(PB)
SciTegic.value.DoubleValue
-67.081

@<SCITEGIC>MOL_PROPERTY
W(SA)
SciTegic.value.DoubleValue
1.890

@<SCITEGIC>MOL_PROPERTY
Valence
SciTegic.value.DoubleValue
6.513

@<SCITEGIC>MOL_PROPERTY
Coulomb
SciTegic.value.DoubleValue
1.429

@<SCITEGIC>MOL_PROPERTY
VdW
SciTegic.value.DoubleValue
0.335

@<SCITEGIC>MOL_PROPERTY
VdW6
SciTegic.value.DoubleValue
-5.021

@<SCITEGIC>MOL_PROPERTY
VdW12
SciTegic.value.DoubleValue
5.356

@<SCITEGIC>MOL_PROPERTY
Bond
SciTegic.value.DoubleValue
0.092

@<SCITEGIC>MOL_PROPERTY
Angle
SciTegic.value.DoubleValue
2.417

@<SCITEGIC>MOL_PROPERTY
Pdih
SciTegic.value.DoubleValue
4.002

@<SCITEGIC>MOL_PROPERTY
Idih
SciTegic.value.DoubleValue
0.001

@<SCITEGIC>MOL_PROPERTY
Tether
SciTegic.value.DoubleValue
0.000

@<TRIPOS>MOLECULE
guest-s18_confgen4.mol2 : confsearch ligand conformer 357
          16          15           1
SMALL
USER_CHARGES
 
@<TRIPOS>ATOM
       1    C1      19.108317   19.891349   24.047664 C.2        1 MOL1         0.6075
       2    O1      18.784360   19.161127   24.963422 O.co2      1 MOL1        -0.6830
       3    O2      18.433827   20.827046   23.665783 O.co2      1 MOL1        -0.6830
       4    C2      20.449951   19.638094   23.365296 C.3        1 MOL1        -0.2050
       5    H1      21.206807   19.559502   24.154520 H          1 MOL1         0.0710
       6    H2      20.713692   20.519430   22.769533 H          1 MOL1         0.0710
       7    C3      20.486412   18.355027   22.490602 C.3        1 MOL1        -0.1947
       8    H3      21.505164   18.209744   22.106665 H          1 MOL1         0.0712
       9    H4      20.271057   17.486836   23.128741 H          1 MOL1         0.0712
      10    C4      19.492096   18.362826   21.305163 C.3        1 MOL1        -0.1921
      11    H5      18.464579   18.472736   21.678963 H          1 MOL1         0.0712
      12    H6      19.535361   17.386845   20.802454 H          1 MOL1         0.0712
      13    C5      19.787263   19.469439   20.270404 C.3        1 MOL1        -0.2936
      14    H7      19.634241   20.467504   20.700448 H          1 MOL1         0.0724
      15    H8      19.117500   19.374710   19.405937 H          1 MOL1         0.0724
      16    H9      20.820975   19.403531   19.906864 H          1 MOL1         0.0724
@<TRIPOS>BOND
    1     1     2    1
    2     1     3    2
    3     1     4    1
    4     4     5    1
    5     4     6    1
    6     4     7    1
    7     7     8    1
    8     7     9    1
    9     7    10    1
   10    10    11    1
   11    10    12    1
   12    10    13    1
   13    13    14    1
   14    13    15    1
   15    13    16    1
@<TRIPOS>SUBSTRUCTURE
       1 MOL1            1 RESIDUE      1      MOL     
@<SCITEGIC>MOL_PROPERTY
VConf Rank
SciTegic.value.IntegerValue
357

@<SCITEGIC>MOL_PROPERTY
Conf_Id
SciTegic.value.IntegerValue
37

@<SCITEGIC>MOL_PROPERTY
Delta U+W
SciTegic.value.DoubleValue
1.063

@<SCITEGIC>MOL_PROPERTY
U+W
SciTegic.value.DoubleValue
-55.841

@<SCITEGIC>MOL_PROPERTY
Grad RMS
SciTegic.value.DoubleValue
0.000000

@<SCITEGIC>MOL_PROPERTY
U
SciTegic.value.DoubleValue
9.719

@<SCITEGIC>MOL_PROPERTY
W
SciTegic.value.DoubleValue
-65.560

@<SCITEGIC>MOL_PROPERTY
W(PB)
SciTegic.value.DoubleValue
-67.414

@<SCITEGIC>MOL_PROPERTY
W(SA)
SciTegic.value.DoubleValue
1.854

@<SCITEGIC>MOL_PROPERTY
Valence
SciTegic.value.DoubleValue
7.002

@<SCITEGIC>MOL_PROPERTY
Coulomb
SciTegic.value.DoubleValue
2.402

@<SCITEGIC>MOL_PROPERTY
VdW
SciTegic.value.DoubleValue
0.314

@<SCITEGIC>MOL_PROPERTY
VdW6
SciTegic.value.DoubleValue
-5.861

@<SCITEGIC>MOL_PROPERTY
VdW12
SciTegic.value.DoubleValue
6.175

@<SCITEGIC>MOL_PROPERTY
Bond
SciTegic.value.DoubleValue
0.134

@<SCITEGIC>MOL_PROPERTY
Angle
SciTegic.value.DoubleValue
2.733

@<SCITEGIC>MOL_PROPERTY
Pdih
SciTegic.value.DoubleValue
4.133

@<SCITEGIC>MOL_PROPERTY
Idih
SciTegic.value.DoubleValue
0.002

@<SCITEGIC>MOL_PROPERTY
Tether
SciTegic.value.DoubleValue
0.000

@<TRIPOS>MOLECULE
guest-s18_confgen4.mol2 : confsearch ligand conformer 358
          16          15           1
SMALL
USER_CHARGES
 
@<TRIPOS>ATOM
       1    C1      21.031372   17.893346   20.665036 C.2        1 MOL1         0.6075
       2    O1      20.737310   16.725016   20.505919 O.co2      1 MOL1        -0.6830
       3    O2      21.131724   18.689468   19.752666 O.co2      1 MOL1        -0.6830
       4    C2      21.323440   18.375213   22.083573 C.3        1 MOL1        -0.2050
       5    H1      21.827802   19.346719   22.028398 H          1 MOL1         0.0710
       6    H2      22.044550   17.675981   22.522841 H          1 MOL1         0.0710
       7    C3      20.070070   18.460108   22.997102 C.3        1 MOL1        -0.1947
       8    H3      19.620998   17.460196   23.073674 H          1 MOL1         0.0712
       9    H4      20.383040   18.735656   24.013219 H          1 MOL1         0.0712
      10    C4      18.991459   19.456312   22.509077 C.3        1 MOL1        -0.1921
      11    H5      18.117825   19.382147   23.171188 H          1 MOL1         0.0712
      12    H6      18.644415   19.170903   21.506232 H          1 MOL1         0.0712
      13    C5      19.479199   20.920622   22.490388 C.3        1 MOL1        -0.2936
      14    H7      19.864816   21.220182   23.473561 H          1 MOL1         0.0724
      15    H8      18.654339   21.596329   22.229839 H          1 MOL1         0.0724
      16    H9      20.273939   21.065949   21.747586 H          1 MOL1         0.0724
@<TRIPOS>BOND
    1     1     2    1
    2     1     3    2
    3     1     4    1
    4     4     5    1
    5     4     6    1
    6     4     7    1
    7     7     8    1
    8     7     9    1
    9     7    10    1
   10    10    11    1
   11    10    12    1
   12    10    13    1
   13    13    14    1
   14    13    15    1
   15    13    16    1
@<TRIPOS>SUBSTRUCTURE
       1 MOL1            1 RESIDUE      1      MOL     
@<SCITEGIC>MOL_PROPERTY
VConf Rank
SciTegic.value.IntegerValue
358

@<SCITEGIC>MOL_PROPERTY
Conf_Id
SciTegic.value.IntegerValue
39

@<SCITEGIC>MOL_PROPERTY
Delta U+W
SciTegic.value.DoubleValue
1.129

@<SCITEGIC>MOL_PROPERTY
U+W
SciTegic.value.DoubleValue
-55.775

@<SCITEGIC>MOL_PROPERTY
Grad RMS
SciTegic.value.DoubleValue
0.000000

@<SCITEGIC>MOL_PROPERTY
U
SciTegic.value.DoubleValue
9.718

@<SCITEGIC>MOL_PROPERTY
W
SciTegic.value.DoubleValue
-65.493

@<SCITEGIC>MOL_PROPERTY
W(PB)
SciTegic.value.DoubleValue
-67.361

@<SCITEGIC>MOL_PROPERTY
W(SA)
SciTegic.value.DoubleValue
1.869

@<SCITEGIC>MOL_PROPERTY
Valence
SciTegic.value.DoubleValue
7.002

@<SCITEGIC>MOL_PROPERTY
Coulomb
SciTegic.value.DoubleValue
2.402

@<SCITEGIC>MOL_PROPERTY
VdW
SciTegic.value.DoubleValue
0.314

@<SCITEGIC>MOL_PROPERTY
VdW6
SciTegic.value.DoubleValue
-5.861

@<SCITEGIC>MOL_PROPERTY
VdW12
SciTegic.value.DoubleValue
6.175

@<SCITEGIC>MOL_PROPERTY
Bond
SciTegic.value.DoubleValue
0.134

@<SCITEGIC>MOL_PROPERTY
Angle
SciTegic.value.DoubleValue
2.734

@<SCITEGIC>MOL_PROPERTY
Pdih
SciTegic.value.DoubleValue
4.133

@<SCITEGIC>MOL_PROPERTY
Idih
SciTegic.value.DoubleValue
0.002

@<SCITEGIC>MOL_PROPERTY
Tether
SciTegic.value.DoubleValue
0.000

@<TRIPOS>MOLECULE
guest-s18_confgen4.mol2 : confsearch ligand conformer 359
          16          15           1
SMALL
USER_CHARGES
 
@<TRIPOS>ATOM
       1    C1      18.089892   18.569069   21.600137 C.2        1 MOL1         0.6075
       2    O1      17.798919   17.438797   21.938725 O.co2      1 MOL1        -0.6830
       3    O2      17.966226   18.979044   20.462691 O.co2      1 MOL1        -0.6830
       4    C2      18.548929   19.549052   22.678366 C.3        1 MOL1        -0.2050
       5    H1      18.529096   19.043761   23.651642 H          1 MOL1         0.0710
       6    H2      17.790500   20.339478   22.720348 H          1 MOL1         0.0710
       7    C3      19.941093   20.197755   22.437439 C.3        1 MOL1        -0.1947
       8    H3      20.027313   20.521541   21.390888 H          1 MOL1         0.0712
       9    H4      19.998178   21.112426   23.042890 H          1 MOL1         0.0712
      10    C4      21.146007   19.303977   22.818103 C.3        1 MOL1        -0.1921
      11    H5      21.055045   18.980850   23.864308 H          1 MOL1         0.0712
      12    H6      22.060222   19.910823   22.761157 H          1 MOL1         0.0712
      13    C5      21.320435   18.070928   21.907361 C.3        1 MOL1        -0.2936
      14    H7      20.507330   17.349190   22.052111 H          1 MOL1         0.0724
      15    H8      22.262777   17.556030   22.134606 H          1 MOL1         0.0724
      16    H9      21.339327   18.362100   20.848970 H          1 MOL1         0.0724
@<TRIPOS>BOND
    1     1     2    1
    2     1     3    2
    3     1     4    1
    4     4     5    1
    5     4     6    1
    6     4     7    1
    7     7     8    1
    8     7     9    1
    9     7    10    1
   10    10    11    1
   11    10    12    1
   12    10    13    1
   13    13    14    1
   14    13    15    1
   15    13    16    1
@<TRIPOS>SUBSTRUCTURE
       1 MOL1            1 RESIDUE      1      MOL     
@<SCITEGIC>MOL_PROPERTY
VConf Rank
SciTegic.value.IntegerValue
359

@<SCITEGIC>MOL_PROPERTY
Conf_Id
SciTegic.value.IntegerValue
47

@<SCITEGIC>MOL_PROPERTY
Delta U+W
SciTegic.value.DoubleValue
2.301

@<SCITEGIC>MOL_PROPERTY
U+W
SciTegic.value.DoubleValue
-54.603

@<SCITEGIC>MOL_PROPERTY
Grad RMS
SciTegic.value.DoubleValue
0.000000

@<SCITEGIC>MOL_PROPERTY
U
SciTegic.value.DoubleValue
11.258

@<SCITEGIC>MOL_PROPERTY
W
SciTegic.value.DoubleValue
-65.861

@<SCITEGIC>MOL_PROPERTY
W(PB)
SciTegic.value.DoubleValue
-67.702

@<SCITEGIC>MOL_PROPERTY
W(SA)
SciTegic.value.DoubleValue
1.841

@<SCITEGIC>MOL_PROPERTY
Valence
SciTegic.value.DoubleValue
8.169

@<SCITEGIC>MOL_PROPERTY
Coulomb
SciTegic.value.DoubleValue
2.735

@<SCITEGIC>MOL_PROPERTY
VdW
SciTegic.value.DoubleValue
0.355

@<SCITEGIC>MOL_PROPERTY
VdW6
SciTegic.value.DoubleValue
-6.245

@<SCITEGIC>MOL_PROPERTY
VdW12
SciTegic.value.DoubleValue
6.600

@<SCITEGIC>MOL_PROPERTY
Bond
SciTegic.value.DoubleValue
0.149

@<SCITEGIC>MOL_PROPERTY
Angle
SciTegic.value.DoubleValue
3.168

@<SCITEGIC>MOL_PROPERTY
Pdih
SciTegic.value.DoubleValue
4.840

@<SCITEGIC>MOL_PROPERTY
Idih
SciTegic.value.DoubleValue
0.011

@<SCITEGIC>MOL_PROPERTY
Tether
SciTegic.value.DoubleValue
0.000

@<TRIPOS>MOLECULE
guest-s18_confgen4.mol2 : confsearch ligand conformer 360
          16          15           1
SMALL
USER_CHARGES
 
@<TRIPOS>ATOM
       1    C1      21.484020   20.081910   22.941644 C.2        1 MOL1         0.6075
       2    O1      22.412873   19.300204   22.999323 O.co2      1 MOL1        -0.6830
       3    O2      21.192524   20.841567   23.844290 O.co2      1 MOL1        -0.6830
       4    C2      20.698079   20.179044   21.635302 C.3        1 MOL1        -0.2050
       5    H1      21.412835   20.498430   20.867926 H          1 MOL1         0.0710
       6    H2      19.955106   20.980909   21.724634 H          1 MOL1         0.0710
       7    C3      20.014708   18.861891   21.171512 C.3        1 MOL1        -0.1947
       8    H3      19.808401   18.947528   20.096079 H          1 MOL1         0.0712
       9    H4      20.712315   18.019784   21.279863 H          1 MOL1         0.0712
      10    C4      18.678888   18.540322   21.884071 C.3        1 MOL1        -0.1921
      11    H5      18.209486   17.687960   21.373743 H          1 MOL1         0.0712
      12    H6      17.985034   19.385250   21.775011 H          1 MOL1         0.0712
      13    C5      18.837572   18.188530   23.377841 C.3        1 MOL1        -0.2936
      14    H7      17.884405   17.836112   23.792621 H          1 MOL1         0.0724
      15    H8      19.148666   19.062388   23.963155 H          1 MOL1         0.0724
      16    H9      19.583244   17.395186   23.518935 H          1 MOL1         0.0724
@<TRIPOS>BOND
    1     1     2    1
    2     1     3    2
    3     1     4    1
    4     4     5    1
    5     4     6    1
    6     4     7    1
    7     7     8    1
    8     7     9    1
    9     7    10    1
   10    10    11    1
   11    10    12    1
   12    10    13    1
   13    13    14    1
   14    13    15    1
   15    13    16    1
@<TRIPOS>SUBSTRUCTURE
       1 MOL1            1 RESIDUE      1      MOL     
@<SCITEGIC>MOL_PROPERTY
VConf Rank
SciTegic.value.IntegerValue
360

@<SCITEGIC>MOL_PROPERTY
Conf_Id
SciTegic.value.IntegerValue
45

@<SCITEGIC>MOL_PROPERTY
Delta U+W
SciTegic.value.DoubleValue
2.303

@<SCITEGIC>MOL_PROPERTY
U+W
SciTegic.value.DoubleValue
-54.601

@<SCITEGIC>MOL_PROPERTY
Grad RMS
SciTegic.value.DoubleValue
0.000000

@<SCITEGIC>MOL_PROPERTY
U
SciTegic.value.DoubleValue
11.258

@<SCITEGIC>MOL_PROPERTY
W
SciTegic.value.DoubleValue
-65.860

@<SCITEGIC>MOL_PROPERTY
W(PB)
SciTegic.value.DoubleValue
-67.709

@<SCITEGIC>MOL_PROPERTY
W(SA)
SciTegic.value.DoubleValue
1.849

@<SCITEGIC>MOL_PROPERTY
Valence
SciTegic.value.DoubleValue
8.169

@<SCITEGIC>MOL_PROPERTY
Coulomb
SciTegic.value.DoubleValue
2.735

@<SCITEGIC>MOL_PROPERTY
VdW
SciTegic.value.DoubleValue
0.355

@<SCITEGIC>MOL_PROPERTY
VdW6
SciTegic.value.DoubleValue
-6.245

@<SCITEGIC>MOL_PROPERTY
VdW12
SciTegic.value.DoubleValue
6.600

@<SCITEGIC>MOL_PROPERTY
Bond
SciTegic.value.DoubleValue
0.149

@<SCITEGIC>MOL_PROPERTY
Angle
SciTegic.value.DoubleValue
3.168

@<SCITEGIC>MOL_PROPERTY
Pdih
SciTegic.value.DoubleValue
4.840

@<SCITEGIC>MOL_PROPERTY
Idih
SciTegic.value.DoubleValue
0.011

@<SCITEGIC>MOL_PROPERTY
Tether
SciTegic.value.DoubleValue
0.000

@<TRIPOS>MOLECULE
guest-s18_confgen4.mol2 : confsearch ligand conformer 361
          16          15           1
SMALL
USER_CHARGES
 
@<TRIPOS>ATOM
       1    C1      18.129744   18.915495   19.908388 C.2        1 MOL1         0.6075
       2    O1      17.949343   17.723688   20.065956 O.co2      1 MOL1        -0.6830
       3    O2      17.548700   19.567272   19.064062 O.co2      1 MOL1        -0.6830
       4    C2      19.128381   19.657420   20.798425 C.3        1 MOL1        -0.2050
       5    H1      18.584235   20.470183   21.293886 H          1 MOL1         0.0710
       6    H2      19.870652   20.123402   20.139595 H          1 MOL1         0.0710
       7    C3      19.846669   18.784087   21.861299 C.3        1 MOL1        -0.1947
       8    H3      19.097794   18.315615   22.514896 H          1 MOL1         0.0712
       9    H4      20.385545   17.968493   21.359414 H          1 MOL1         0.0712
      10    C4      20.833020   19.611551   22.711989 C.3        1 MOL1        -0.1921
      11    H5      20.295043   20.426526   23.215871 H          1 MOL1         0.0712
      12    H6      21.583572   20.079203   22.059706 H          1 MOL1         0.0712
      13    C5      21.543160   18.738793   23.765620 C.3        1 MOL1        -0.2936
      14    H7      20.817321   18.283004   24.451829 H          1 MOL1         0.0724
      15    H8      22.240392   19.342133   24.361429 H          1 MOL1         0.0724
      16    H9      22.115359   17.933117   23.287140 H          1 MOL1         0.0724
@<TRIPOS>BOND
    1     1     2    1
    2     1     3    2
    3     1     4    1
    4     4     5    1
    5     4     6    1
    6     4     7    1
    7     7     8    1
    8     7     9    1
    9     7    10    1
   10    10    11    1
   11    10    12    1
   12    10    13    1
   13    13    14    1
   14    13    15    1
   15    13    16    1
@<TRIPOS>SUBSTRUCTURE
       1 MOL1            1 RESIDUE      1      MOL     
@<SCITEGIC>MOL_PROPERTY
VConf Rank
SciTegic.value.IntegerValue
361

@<SCITEGIC>MOL_PROPERTY
Conf_Id
SciTegic.value.IntegerValue
0

@<SCITEGIC>MOL_PROPERTY
Delta U+W
SciTegic.value.DoubleValue
0.000

@<SCITEGIC>MOL_PROPERTY
U+W
SciTegic.value.DoubleValue
-56.904

@<SCITEGIC>MOL_PROPERTY
Grad RMS
SciTegic.value.DoubleValue
0.000000

@<SCITEGIC>MOL_PROPERTY
U
SciTegic.value.DoubleValue
7.329

@<SCITEGIC>MOL_PROPERTY
W
SciTegic.value.DoubleValue
-64.233

@<SCITEGIC>MOL_PROPERTY
W(PB)
SciTegic.value.DoubleValue
-66.148

@<SCITEGIC>MOL_PROPERTY
W(SA)
SciTegic.value.DoubleValue
1.915

@<SCITEGIC>MOL_PROPERTY
Valence
SciTegic.value.DoubleValue
6.755

@<SCITEGIC>MOL_PROPERTY
Coulomb
SciTegic.value.DoubleValue
-0.421

@<SCITEGIC>MOL_PROPERTY
VdW
SciTegic.value.DoubleValue
0.995

@<SCITEGIC>MOL_PROPERTY
VdW6
SciTegic.value.DoubleValue
-4.495

@<SCITEGIC>MOL_PROPERTY
VdW12
SciTegic.value.DoubleValue
5.490

@<SCITEGIC>MOL_PROPERTY
Bond
SciTegic.value.DoubleValue
0.106

@<SCITEGIC>MOL_PROPERTY
Angle
SciTegic.value.DoubleValue
2.715

@<SCITEGIC>MOL_PROPERTY
Pdih
SciTegic.value.DoubleValue
3.934

@<SCITEGIC>MOL_PROPERTY
Idih
SciTegic.value.DoubleValue
0.000

@<SCITEGIC>MOL_PROPERTY
Tether
SciTegic.value.DoubleValue
0.000

@<TRIPOS>MOLECULE
guest-s18_confgen4.mol2 : confsearch ligand conformer 362
          16          15           1
SMALL
USER_CHARGES
 
@<TRIPOS>ATOM
       1    C1      19.619971   19.852833   24.541865 C.2        1 MOL1         0.6075
       2    O1      19.741038   18.953040   25.349056 O.co2      1 MOL1        -0.6830
       3    O2      19.867897   21.015953   24.789912 O.co2      1 MOL1        -0.6830
       4    C2      19.148470   19.500602   23.135378 C.3        1 MOL1        -0.2050
       5    H1      18.568924   20.347272   22.747915 H          1 MOL1         0.0710
       6    H2      18.464447   18.646459   23.208876 H          1 MOL1         0.0710
       7    C3      20.315983   19.168289   22.173847 C.3        1 MOL1        -0.1947
       8    H3      20.998279   20.028041   22.120484 H          1 MOL1         0.0712
       9    H4      20.893846   18.327190   22.581497 H          1 MOL1         0.0712
      10    C4      19.811902   18.815716   20.758871 C.3        1 MOL1        -0.1921
      11    H5      19.234551   19.656855   20.350594 H          1 MOL1         0.0712
      12    H6      19.130056   17.955582   20.811732 H          1 MOL1         0.0712
      13    C5      20.979103   18.486147   19.807489 C.3        1 MOL1        -0.2936
      14    H7      21.555677   17.627480   20.175898 H          1 MOL1         0.0724
      15    H8      21.660957   19.341312   19.711374 H          1 MOL1         0.0724
      16    H9      20.603644   18.237823   18.806233 H          1 MOL1         0.0724
@<TRIPOS>BOND
    1     1     2    1
    2     1     3    2
    3     1     4    1
    4     4     5    1
    5     4     6    1
    6     4     7    1
    7     7     8    1
    8     7     9    1
    9     7    10    1
   10    10    11    1
   11    10    12    1
   12    10    13    1
   13    13    14    1
   14    13    15    1
   15    13    16    1
@<TRIPOS>SUBSTRUCTURE
       1 MOL1            1 RESIDUE      1      MOL     
@<SCITEGIC>MOL_PROPERTY
VConf Rank
SciTegic.value.IntegerValue
362

@<SCITEGIC>MOL_PROPERTY
Conf_Id
SciTegic.value.IntegerValue
22

@<SCITEGIC>MOL_PROPERTY
Delta U+W
SciTegic.value.DoubleValue
-1.185

@<SCITEGIC>MOL_PROPERTY
U+W
SciTegic.value.DoubleValue
-58.089

@<SCITEGIC>MOL_PROPERTY
Grad RMS
SciTegic.value.DoubleValue
0.000000

@<SCITEGIC>MOL_PROPERTY
U
SciTegic.value.DoubleValue
6.298

@<SCITEGIC>MOL_PROPERTY
W
SciTegic.value.DoubleValue
-64.387

@<SCITEGIC>MOL_PROPERTY
W(PB)
SciTegic.value.DoubleValue
-66.329

@<SCITEGIC>MOL_PROPERTY
W(SA)
SciTegic.value.DoubleValue
1.942

@<SCITEGIC>MOL_PROPERTY
Valence
SciTegic.value.DoubleValue
6.246

@<SCITEGIC>MOL_PROPERTY
Coulomb
SciTegic.value.DoubleValue
-0.408

@<SCITEGIC>MOL_PROPERTY
VdW
SciTegic.value.DoubleValue
0.460

@<SCITEGIC>MOL_PROPERTY
VdW6
SciTegic.value.DoubleValue
-4.207

@<SCITEGIC>MOL_PROPERTY
VdW12
SciTegic.value.DoubleValue
4.667

@<SCITEGIC>MOL_PROPERTY
Bond
SciTegic.value.DoubleValue
0.072

@<SCITEGIC>MOL_PROPERTY
Angle
SciTegic.value.DoubleValue
2.246

@<SCITEGIC>MOL_PROPERTY
Pdih
SciTegic.value.DoubleValue
3.928

@<SCITEGIC>MOL_PROPERTY
Idih
SciTegic.value.DoubleValue
0.001

@<SCITEGIC>MOL_PROPERTY
Tether
SciTegic.value.DoubleValue
0.000

@<TRIPOS>MOLECULE
guest-s18_confgen4.mol2 : confsearch ligand conformer 363
          16          15           1
SMALL
USER_CHARGES
 
@<TRIPOS>ATOM
       1    C1      18.639953   17.011978   21.362210 C.2        1 MOL1         0.6075
       2    O1      18.739485   15.976847   21.990375 O.co2      1 MOL1        -0.6830
       3    O2      18.233967   17.066993   20.218485 O.co2      1 MOL1        -0.6830
       4    C2      19.066717   18.309593   22.039440 C.3        1 MOL1        -0.2050
       5    H1      18.857751   18.218570   23.112107 H          1 MOL1         0.0710
       6    H2      18.431343   19.113924   21.651538 H          1 MOL1         0.0710
       7    C3      20.564653   18.641279   21.813243 C.3        1 MOL1        -0.1947
       8    H3      21.168990   17.780718   22.132054 H          1 MOL1         0.0712
       9    H4      20.752910   18.772087   20.738647 H          1 MOL1         0.0712
      10    C4      21.040440   19.894806   22.583116 C.3        1 MOL1        -0.1921
      11    H5      22.127430   19.994893   22.457638 H          1 MOL1         0.0712
      12    H6      20.863053   19.759349   23.659018 H          1 MOL1         0.0712
      13    C5      20.362307   21.196534   22.105021 C.3        1 MOL1        -0.2936
      14    H7      19.285535   21.188292   22.315444 H          1 MOL1         0.0724
      15    H8      20.501771   21.338568   21.025380 H          1 MOL1         0.0724
      16    H9      20.794411   22.065141   22.618650 H          1 MOL1         0.0724
@<TRIPOS>BOND
    1     1     2    1
    2     1     3    2
    3     1     4    1
    4     4     5    1
    5     4     6    1
    6     4     7    1
    7     7     8    1
    8     7     9    1
    9     7    10    1
   10    10    11    1
   11    10    12    1
   12    10    13    1
   13    13    14    1
   14    13    15    1
   15    13    16    1
@<TRIPOS>SUBSTRUCTURE
       1 MOL1            1 RESIDUE      1      MOL     
@<SCITEGIC>MOL_PROPERTY
VConf Rank
SciTegic.value.IntegerValue
363

@<SCITEGIC>MOL_PROPERTY
Conf_Id
SciTegic.value.IntegerValue
36

@<SCITEGIC>MOL_PROPERTY
Delta U+W
SciTegic.value.DoubleValue
-0.427

@<SCITEGIC>MOL_PROPERTY
U+W
SciTegic.value.DoubleValue
-57.331

@<SCITEGIC>MOL_PROPERTY
Grad RMS
SciTegic.value.DoubleValue
0.000000

@<SCITEGIC>MOL_PROPERTY
U
SciTegic.value.DoubleValue
7.263

@<SCITEGIC>MOL_PROPERTY
W
SciTegic.value.DoubleValue
-64.594

@<SCITEGIC>MOL_PROPERTY
W(PB)
SciTegic.value.DoubleValue
-66.513

@<SCITEGIC>MOL_PROPERTY
W(SA)
SciTegic.value.DoubleValue
1.920

@<SCITEGIC>MOL_PROPERTY
Valence
SciTegic.value.DoubleValue
6.734

@<SCITEGIC>MOL_PROPERTY
Coulomb
SciTegic.value.DoubleValue
-0.068

@<SCITEGIC>MOL_PROPERTY
VdW
SciTegic.value.DoubleValue
0.598

@<SCITEGIC>MOL_PROPERTY
VdW6
SciTegic.value.DoubleValue
-4.819

@<SCITEGIC>MOL_PROPERTY
VdW12
SciTegic.value.DoubleValue
5.417

@<SCITEGIC>MOL_PROPERTY
Bond
SciTegic.value.DoubleValue
0.107

@<SCITEGIC>MOL_PROPERTY
Angle
SciTegic.value.DoubleValue
2.469

@<SCITEGIC>MOL_PROPERTY
Pdih
SciTegic.value.DoubleValue
4.157

@<SCITEGIC>MOL_PROPERTY
Idih
SciTegic.value.DoubleValue
0.001

@<SCITEGIC>MOL_PROPERTY
Tether
SciTegic.value.DoubleValue
0.000

@<TRIPOS>MOLECULE
guest-s18_confgen4.mol2 : confsearch ligand conformer 364
          16          15           1
SMALL
USER_CHARGES
 
@<TRIPOS>ATOM
       1    C1      20.847712   20.346346   24.103050 C.2        1 MOL1         0.6075
       2    O1      21.709969   19.691364   24.653930 O.co2      1 MOL1        -0.6830
       3    O2      20.229139   21.237548   24.649970 O.co2      1 MOL1        -0.6830
       4    C2      20.509223   20.019169   22.652894 C.3        1 MOL1        -0.2050
       5    H1      21.429049   19.679719   22.163188 H          1 MOL1         0.0710
       6    H2      20.200481   20.947523   22.157511 H          1 MOL1         0.0710
       7    C3      19.395296   18.948107   22.522552 C.3        1 MOL1        -0.1947
       8    H3      19.732793   18.010119   22.984703 H          1 MOL1         0.0712
       9    H4      18.518303   19.279040   23.095959 H          1 MOL1         0.0712
      10    C4      18.962988   18.684502   21.061720 C.3        1 MOL1        -0.1921
      11    H5      18.614385   19.620171   20.603048 H          1 MOL1         0.0712
      12    H6      18.102589   18.001124   21.065865 H          1 MOL1         0.0712
      13    C5      20.083643   18.068528   20.197058 C.3        1 MOL1        -0.2936
      14    H7      20.921302   18.765700   20.070327 H          1 MOL1         0.0724
      15    H8      19.704164   17.820140   19.197405 H          1 MOL1         0.0724
      16    H9      20.468254   17.146037   20.651299 H          1 MOL1         0.0724
@<TRIPOS>BOND
    1     1     2    1
    2     1     3    2
    3     1     4    1
    4     4     5    1
    5     4     6    1
    6     4     7    1
    7     7     8    1
    8     7     9    1
    9     7    10    1
   10    10    11    1
   11    10    12    1
   12    10    13    1
   13    13    14    1
   14    13    15    1
   15    13    16    1
@<TRIPOS>SUBSTRUCTURE
       1 MOL1            1 RESIDUE      1      MOL     
@<SCITEGIC>MOL_PROPERTY
VConf Rank
SciTegic.value.IntegerValue
364

@<SCITEGIC>MOL_PROPERTY
Conf_Id
SciTegic.value.IntegerValue
17

@<SCITEGIC>MOL_PROPERTY
Delta U+W
SciTegic.value.DoubleValue
-0.432

@<SCITEGIC>MOL_PROPERTY
U+W
SciTegic.value.DoubleValue
-57.336

@<SCITEGIC>MOL_PROPERTY
Grad RMS
SciTegic.value.DoubleValue
0.000000

@<SCITEGIC>MOL_PROPERTY
U
SciTegic.value.DoubleValue
7.263

@<SCITEGIC>MOL_PROPERTY
W
SciTegic.value.DoubleValue
-64.599

@<SCITEGIC>MOL_PROPERTY
W(PB)
SciTegic.value.DoubleValue
-66.503

@<SCITEGIC>MOL_PROPERTY
W(SA)
SciTegic.value.DoubleValue
1.904

@<SCITEGIC>MOL_PROPERTY
Valence
SciTegic.value.DoubleValue
6.734

@<SCITEGIC>MOL_PROPERTY
Coulomb
SciTegic.value.DoubleValue
-0.068

@<SCITEGIC>MOL_PROPERTY
VdW
SciTegic.value.DoubleValue
0.598

@<SCITEGIC>MOL_PROPERTY
VdW6
SciTegic.value.DoubleValue
-4.819

@<SCITEGIC>MOL_PROPERTY
VdW12
SciTegic.value.DoubleValue
5.417

@<SCITEGIC>MOL_PROPERTY
Bond
SciTegic.value.DoubleValue
0.107

@<SCITEGIC>MOL_PROPERTY
Angle
SciTegic.value.DoubleValue
2.469

@<SCITEGIC>MOL_PROPERTY
Pdih
SciTegic.value.DoubleValue
4.157

@<SCITEGIC>MOL_PROPERTY
Idih
SciTegic.value.DoubleValue
0.001

@<SCITEGIC>MOL_PROPERTY
Tether
SciTegic.value.DoubleValue
0.000

@<TRIPOS>MOLECULE
guest-s18_confgen4.mol2 : confsearch ligand conformer 365
          16          15           1
SMALL
USER_CHARGES
 
@<TRIPOS>ATOM
       1    C1      18.648407   17.346293   21.654162 C.2        1 MOL1         0.6075
       2    O1      17.556307   17.485121   22.168347 O.co2      1 MOL1        -0.6830
       3    O2      18.807640   17.043666   20.488261 O.co2      1 MOL1        -0.6830
       4    C2      19.885022   17.539422   22.527646 C.3        1 MOL1        -0.2050
       5    H1      20.738531   17.053441   22.039355 H          1 MOL1         0.0710
       6    H2      19.709933   17.002771   23.467637 H          1 MOL1         0.0710
       7    C3      20.217430   19.022998   22.833494 C.3        1 MOL1        -0.1947
       8    H3      19.344240   19.503996   23.295883 H          1 MOL1         0.0712
       9    H4      21.028298   19.061325   23.573483 H          1 MOL1         0.0712
      10    C4      20.641099   19.808595   21.573524 C.3        1 MOL1        -0.1921
      11    H5      19.828800   19.794407   20.833462 H          1 MOL1         0.0712
      12    H6      21.506510   19.319451   21.105359 H          1 MOL1         0.0712
      13    C5      20.998092   21.269836   21.910680 C.3        1 MOL1        -0.2936
      14    H7      20.139109   21.791715   22.352542 H          1 MOL1         0.0724
      15    H8      21.295931   21.813868   21.004900 H          1 MOL1         0.0724
      16    H9      21.831752   21.316376   22.623605 H          1 MOL1         0.0724
@<TRIPOS>BOND
    1     1     2    1
    2     1     3    2
    3     1     4    1
    4     4     5    1
    5     4     6    1
    6     4     7    1
    7     7     8    1
    8     7     9    1
    9     7    10    1
   10    10    11    1
   11    10    12    1
   12    10    13    1
   13    13    14    1
   14    13    15    1
   15    13    16    1
@<TRIPOS>SUBSTRUCTURE
       1 MOL1            1 RESIDUE      1      MOL     
@<SCITEGIC>MOL_PROPERTY
VConf Rank
SciTegic.value.IntegerValue
365

@<SCITEGIC>MOL_PROPERTY
Conf_Id
SciTegic.value.IntegerValue
19

@<SCITEGIC>MOL_PROPERTY
Delta U+W
SciTegic.value.DoubleValue
0.048

@<SCITEGIC>MOL_PROPERTY
U+W
SciTegic.value.DoubleValue
-56.856

@<SCITEGIC>MOL_PROPERTY
Grad RMS
SciTegic.value.DoubleValue
0.000000

@<SCITEGIC>MOL_PROPERTY
U
SciTegic.value.DoubleValue
8.276

@<SCITEGIC>MOL_PROPERTY
W
SciTegic.value.DoubleValue
-65.132

@<SCITEGIC>MOL_PROPERTY
W(PB)
SciTegic.value.DoubleValue
-67.031

@<SCITEGIC>MOL_PROPERTY
W(SA)
SciTegic.value.DoubleValue
1.899

@<SCITEGIC>MOL_PROPERTY
Valence
SciTegic.value.DoubleValue
6.513

@<SCITEGIC>MOL_PROPERTY
Coulomb
SciTegic.value.DoubleValue
1.428

@<SCITEGIC>MOL_PROPERTY
VdW
SciTegic.value.DoubleValue
0.335

@<SCITEGIC>MOL_PROPERTY
VdW6
SciTegic.value.DoubleValue
-5.021

@<SCITEGIC>MOL_PROPERTY
VdW12
SciTegic.value.DoubleValue
5.356

@<SCITEGIC>MOL_PROPERTY
Bond
SciTegic.value.DoubleValue
0.092

@<SCITEGIC>MOL_PROPERTY
Angle
SciTegic.value.DoubleValue
2.417

@<SCITEGIC>MOL_PROPERTY
Pdih
SciTegic.value.DoubleValue
4.003

@<SCITEGIC>MOL_PROPERTY
Idih
SciTegic.value.DoubleValue
0.001

@<SCITEGIC>MOL_PROPERTY
Tether
SciTegic.value.DoubleValue
0.000

@<TRIPOS>MOLECULE
guest-s18_confgen4.mol2 : confsearch ligand conformer 366
          16          15           1
SMALL
USER_CHARGES
 
@<TRIPOS>ATOM
       1    C1      18.033868   17.706346   21.719609 C.2        1 MOL1         0.6075
       2    O1      18.337525   16.679171   21.145983 O.co2      1 MOL1        -0.6830
       3    O2      17.098681   18.408181   21.389283 O.co2      1 MOL1        -0.6830
       4    C2      18.858541   18.123188   22.934375 C.3        1 MOL1        -0.2050
       5    H1      18.997770   17.232120   23.557952 H          1 MOL1         0.0710
       6    H2      18.273396   18.836773   23.527237 H          1 MOL1         0.0710
       7    C3      20.242023   18.728642   22.581606 C.3        1 MOL1        -0.1947
       8    H3      20.816561   18.868098   23.507359 H          1 MOL1         0.0712
       9    H4      20.805180   18.014906   21.964307 H          1 MOL1         0.0712
      10    C4      20.128128   20.080943   21.845060 C.3        1 MOL1        -0.1921
      11    H5      19.554239   20.789657   22.458046 H          1 MOL1         0.0712
      12    H6      19.572207   19.949572   20.906221 H          1 MOL1         0.0712
      13    C5      21.516150   20.676403   21.536559 C.3        1 MOL1        -0.2936
      14    H7      22.083015   20.851349   22.460395 H          1 MOL1         0.0724
      15    H8      21.417350   21.636023   21.012646 H          1 MOL1         0.0724
      16    H9      22.100164   20.000306   20.898381 H          1 MOL1         0.0724
@<TRIPOS>BOND
    1     1     2    1
    2     1     3    2
    3     1     4    1
    4     4     5    1
    5     4     6    1
    6     4     7    1
    7     7     8    1
    8     7     9    1
    9     7    10    1
   10    10    11    1
   11    10    12    1
   12    10    13    1
   13    13    14    1
   14    13    15    1
   15    13    16    1
@<TRIPOS>SUBSTRUCTURE
       1 MOL1            1 RESIDUE      1      MOL     
@<SCITEGIC>MOL_PROPERTY
VConf Rank
SciTegic.value.IntegerValue
366

@<SCITEGIC>MOL_PROPERTY
Conf_Id
SciTegic.value.IntegerValue
20

@<SCITEGIC>MOL_PROPERTY
Delta U+W
SciTegic.value.DoubleValue
-0.010

@<SCITEGIC>MOL_PROPERTY
U+W
SciTegic.value.DoubleValue
-56.914

@<SCITEGIC>MOL_PROPERTY
Grad RMS
SciTegic.value.DoubleValue
0.000000

@<SCITEGIC>MOL_PROPERTY
U
SciTegic.value.DoubleValue
8.277

@<SCITEGIC>MOL_PROPERTY
W
SciTegic.value.DoubleValue
-65.191

@<SCITEGIC>MOL_PROPERTY
W(PB)
SciTegic.value.DoubleValue
-67.081

@<SCITEGIC>MOL_PROPERTY
W(SA)
SciTegic.value.DoubleValue
1.890

@<SCITEGIC>MOL_PROPERTY
Valence
SciTegic.value.DoubleValue
6.513

@<SCITEGIC>MOL_PROPERTY
Coulomb
SciTegic.value.DoubleValue
1.429

@<SCITEGIC>MOL_PROPERTY
VdW
SciTegic.value.DoubleValue
0.335

@<SCITEGIC>MOL_PROPERTY
VdW6
SciTegic.value.DoubleValue
-5.021

@<SCITEGIC>MOL_PROPERTY
VdW12
SciTegic.value.DoubleValue
5.356

@<SCITEGIC>MOL_PROPERTY
Bond
SciTegic.value.DoubleValue
0.092

@<SCITEGIC>MOL_PROPERTY
Angle
SciTegic.value.DoubleValue
2.417

@<SCITEGIC>MOL_PROPERTY
Pdih
SciTegic.value.DoubleValue
4.002

@<SCITEGIC>MOL_PROPERTY
Idih
SciTegic.value.DoubleValue
0.001

@<SCITEGIC>MOL_PROPERTY
Tether
SciTegic.value.DoubleValue
0.000

@<TRIPOS>MOLECULE
guest-s18_confgen4.mol2 : confsearch ligand conformer 367
          16          15           1
SMALL
USER_CHARGES
 
@<TRIPOS>ATOM
       1    C1      18.999693   20.528966   20.757481 C.2        1 MOL1         0.6075
       2    O1      18.712102   21.677139   21.032757 O.co2      1 MOL1        -0.6830
       3    O2      18.261060   19.780542   20.148726 O.co2      1 MOL1        -0.6830
       4    C2      20.375809   20.013102   21.169709 C.3        1 MOL1        -0.2050
       5    H1      21.114685   20.746474   20.826037 H          1 MOL1         0.0710
       6    H2      20.582196   19.085704   20.623281 H          1 MOL1         0.0710
       7    C3      20.541853   19.796183   22.698779 C.3        1 MOL1        -0.1947
       8    H3      21.579240   19.503999   22.910507 H          1 MOL1         0.0712
       9    H4      20.381427   20.755180   23.210581 H          1 MOL1         0.0712
      10    C4      19.583096   18.741716   23.301170 C.3        1 MOL1        -0.1921
      11    H5      18.540172   19.040571   23.126261 H          1 MOL1         0.0712
      12    H6      19.720420   18.722360   24.391076 H          1 MOL1         0.0712
      13    C5      19.814231   17.320613   22.744856 C.3        1 MOL1        -0.2936
      14    H7      19.567732   17.266357   21.676782 H          1 MOL1         0.0724
      15    H8      19.178468   16.595432   23.269049 H          1 MOL1         0.0724
      16    H9      20.859418   17.011412   22.875408 H          1 MOL1         0.0724
@<TRIPOS>BOND
    1     1     2    1
    2     1     3    2
    3     1     4    1
    4     4     5    1
    5     4     6    1
    6     4     7    1
    7     7     8    1
    8     7     9    1
    9     7    10    1
   10    10    11    1
   11    10    12    1
   12    10    13    1
   13    13    14    1
   14    13    15    1
   15    13    16    1
@<TRIPOS>SUBSTRUCTURE
       1 MOL1            1 RESIDUE      1      MOL     
@<SCITEGIC>MOL_PROPERTY
VConf Rank
SciTegic.value.IntegerValue
367

@<SCITEGIC>MOL_PROPERTY
Conf_Id
SciTegic.value.IntegerValue
37

@<SCITEGIC>MOL_PROPERTY
Delta U+W
SciTegic.value.DoubleValue
1.063

@<SCITEGIC>MOL_PROPERTY
U+W
SciTegic.value.DoubleValue
-55.841

@<SCITEGIC>MOL_PROPERTY
Grad RMS
SciTegic.value.DoubleValue
0.000000

@<SCITEGIC>MOL_PROPERTY
U
SciTegic.value.DoubleValue
9.719

@<SCITEGIC>MOL_PROPERTY
W
SciTegic.value.DoubleValue
-65.560

@<SCITEGIC>MOL_PROPERTY
W(PB)
SciTegic.value.DoubleValue
-67.414

@<SCITEGIC>MOL_PROPERTY
W(SA)
SciTegic.value.DoubleValue
1.854

@<SCITEGIC>MOL_PROPERTY
Valence
SciTegic.value.DoubleValue
7.002

@<SCITEGIC>MOL_PROPERTY
Coulomb
SciTegic.value.DoubleValue
2.402

@<SCITEGIC>MOL_PROPERTY
VdW
SciTegic.value.DoubleValue
0.314

@<SCITEGIC>MOL_PROPERTY
VdW6
SciTegic.value.DoubleValue
-5.861

@<SCITEGIC>MOL_PROPERTY
VdW12
SciTegic.value.DoubleValue
6.175

@<SCITEGIC>MOL_PROPERTY
Bond
SciTegic.value.DoubleValue
0.134

@<SCITEGIC>MOL_PROPERTY
Angle
SciTegic.value.DoubleValue
2.733

@<SCITEGIC>MOL_PROPERTY
Pdih
SciTegic.value.DoubleValue
4.133

@<SCITEGIC>MOL_PROPERTY
Idih
SciTegic.value.DoubleValue
0.002

@<SCITEGIC>MOL_PROPERTY
Tether
SciTegic.value.DoubleValue
0.000

@<TRIPOS>MOLECULE
guest-s18_confgen4.mol2 : confsearch ligand conformer 368
          16          15           1
SMALL
USER_CHARGES
 
@<TRIPOS>ATOM
       1    C1      19.847059   18.711311   20.086705 C.2        1 MOL1         0.6075
       2    O1      19.785836   17.582783   19.640094 O.co2      1 MOL1        -0.6830
       3    O2      19.067494   19.593846   19.787186 O.co2      1 MOL1        -0.6830
       4    C2      20.985131   19.044188   21.047814 C.3        1 MOL1        -0.2050
       5    H1      21.062370   20.133760   21.137897 H          1 MOL1         0.0710
       6    H2      21.916468   18.704989   20.579372 H          1 MOL1         0.0710
       7    C3      20.847184   18.387403   22.448629 C.3        1 MOL1        -0.1947
       8    H3      20.826970   17.295668   22.325910 H          1 MOL1         0.0712
       9    H4      21.743025   18.613916   23.042374 H          1 MOL1         0.0712
      10    C4      19.589941   18.825013   23.237190 C.3        1 MOL1        -0.1921
      11    H5      19.540467   18.247301   24.170426 H          1 MOL1         0.0712
      12    H6      18.684311   18.571881   22.668547 H          1 MOL1         0.0712
      13    C5      19.580697   20.329530   23.581840 C.3        1 MOL1        -0.2936
      14    H7      20.493334   20.616123   24.120379 H          1 MOL1         0.0724
      15    H8      18.720841   20.571600   24.219735 H          1 MOL1         0.0724
      16    H9      19.505172   20.944839   22.676202 H          1 MOL1         0.0724
@<TRIPOS>BOND
    1     1     2    1
    2     1     3    2
    3     1     4    1
    4     4     5    1
    5     4     6    1
    6     4     7    1
    7     7     8    1
    8     7     9    1
    9     7    10    1
   10    10    11    1
   11    10    12    1
   12    10    13    1
   13    13    14    1
   14    13    15    1
   15    13    16    1
@<TRIPOS>SUBSTRUCTURE
       1 MOL1            1 RESIDUE      1      MOL     
@<SCITEGIC>MOL_PROPERTY
VConf Rank
SciTegic.value.IntegerValue
368

@<SCITEGIC>MOL_PROPERTY
Conf_Id
SciTegic.value.IntegerValue
39

@<SCITEGIC>MOL_PROPERTY
Delta U+W
SciTegic.value.DoubleValue
1.129

@<SCITEGIC>MOL_PROPERTY
U+W
SciTegic.value.DoubleValue
-55.775

@<SCITEGIC>MOL_PROPERTY
Grad RMS
SciTegic.value.DoubleValue
0.000000

@<SCITEGIC>MOL_PROPERTY
U
SciTegic.value.DoubleValue
9.718

@<SCITEGIC>MOL_PROPERTY
W
SciTegic.value.DoubleValue
-65.493

@<SCITEGIC>MOL_PROPERTY
W(PB)
SciTegic.value.DoubleValue
-67.361

@<SCITEGIC>MOL_PROPERTY
W(SA)
SciTegic.value.DoubleValue
1.869

@<SCITEGIC>MOL_PROPERTY
Valence
SciTegic.value.DoubleValue
7.002

@<SCITEGIC>MOL_PROPERTY
Coulomb
SciTegic.value.DoubleValue
2.402

@<SCITEGIC>MOL_PROPERTY
VdW
SciTegic.value.DoubleValue
0.314

@<SCITEGIC>MOL_PROPERTY
VdW6
SciTegic.value.DoubleValue
-5.861

@<SCITEGIC>MOL_PROPERTY
VdW12
SciTegic.value.DoubleValue
6.175

@<SCITEGIC>MOL_PROPERTY
Bond
SciTegic.value.DoubleValue
0.134

@<SCITEGIC>MOL_PROPERTY
Angle
SciTegic.value.DoubleValue
2.734

@<SCITEGIC>MOL_PROPERTY
Pdih
SciTegic.value.DoubleValue
4.133

@<SCITEGIC>MOL_PROPERTY
Idih
SciTegic.value.DoubleValue
0.002

@<SCITEGIC>MOL_PROPERTY
Tether
SciTegic.value.DoubleValue
0.000

@<TRIPOS>MOLECULE
guest-s18_confgen4.mol2 : confsearch ligand conformer 369
          16          15           1
SMALL
USER_CHARGES
 
@<TRIPOS>ATOM
       1    C1      20.231188   17.130770   22.534579 C.2        1 MOL1         0.6075
       2    O1      21.389794   16.918842   22.833810 O.co2      1 MOL1        -0.6830
       3    O2      19.640705   16.514679   21.669177 O.co2      1 MOL1        -0.6830
       4    C2      19.453076   18.162069   23.349822 C.3        1 MOL1        -0.2050
       5    H1      20.106212   18.563329   24.134285 H          1 MOL1         0.0710
       6    H2      18.652693   17.612879   23.859260 H          1 MOL1         0.0710
       7    C3      18.824796   19.322265   22.527513 C.3        1 MOL1        -0.1947
       8    H3      18.341410   18.922753   21.625144 H          1 MOL1         0.0712
       9    H4      18.021166   19.767790   23.129292 H          1 MOL1         0.0712
      10    C4      19.810688   20.452744   22.145943 C.3        1 MOL1        -0.1921
      11    H5      20.293198   20.848052   23.050458 H          1 MOL1         0.0712
      12    H6      19.235859   21.283954   21.714719 H          1 MOL1         0.0712
      13    C5      20.888007   20.023825   21.128250 C.3        1 MOL1        -0.2936
      14    H7      21.593838   19.310291   21.570596 H          1 MOL1         0.0724
      15    H8      21.466179   20.893956   20.791563 H          1 MOL1         0.0724
      16    H9      20.432480   19.556619   20.245332 H          1 MOL1         0.0724
@<TRIPOS>BOND
    1     1     2    1
    2     1     3    2
    3     1     4    1
    4     4     5    1
    5     4     6    1
    6     4     7    1
    7     7     8    1
    8     7     9    1
    9     7    10    1
   10    10    11    1
   11    10    12    1
   12    10    13    1
   13    13    14    1
   14    13    15    1
   15    13    16    1
@<TRIPOS>SUBSTRUCTURE
       1 MOL1            1 RESIDUE      1      MOL     
@<SCITEGIC>MOL_PROPERTY
VConf Rank
SciTegic.value.IntegerValue
369

@<SCITEGIC>MOL_PROPERTY
Conf_Id
SciTegic.value.IntegerValue
47

@<SCITEGIC>MOL_PROPERTY
Delta U+W
SciTegic.value.DoubleValue
2.301

@<SCITEGIC>MOL_PROPERTY
U+W
SciTegic.value.DoubleValue
-54.603

@<SCITEGIC>MOL_PROPERTY
Grad RMS
SciTegic.value.DoubleValue
0.000000

@<SCITEGIC>MOL_PROPERTY
U
SciTegic.value.DoubleValue
11.258

@<SCITEGIC>MOL_PROPERTY
W
SciTegic.value.DoubleValue
-65.861

@<SCITEGIC>MOL_PROPERTY
W(PB)
SciTegic.value.DoubleValue
-67.702

@<SCITEGIC>MOL_PROPERTY
W(SA)
SciTegic.value.DoubleValue
1.841

@<SCITEGIC>MOL_PROPERTY
Valence
SciTegic.value.DoubleValue
8.169

@<SCITEGIC>MOL_PROPERTY
Coulomb
SciTegic.value.DoubleValue
2.735

@<SCITEGIC>MOL_PROPERTY
VdW
SciTegic.value.DoubleValue
0.355

@<SCITEGIC>MOL_PROPERTY
VdW6
SciTegic.value.DoubleValue
-6.245

@<SCITEGIC>MOL_PROPERTY
VdW12
SciTegic.value.DoubleValue
6.600

@<SCITEGIC>MOL_PROPERTY
Bond
SciTegic.value.DoubleValue
0.149

@<SCITEGIC>MOL_PROPERTY
Angle
SciTegic.value.DoubleValue
3.168

@<SCITEGIC>MOL_PROPERTY
Pdih
SciTegic.value.DoubleValue
4.840

@<SCITEGIC>MOL_PROPERTY
Idih
SciTegic.value.DoubleValue
0.011

@<SCITEGIC>MOL_PROPERTY
Tether
SciTegic.value.DoubleValue
0.000

@<TRIPOS>MOLECULE
guest-s18_confgen4.mol2 : confsearch ligand conformer 370
          16          15           1
SMALL
USER_CHARGES
 
@<TRIPOS>ATOM
       1    C1      21.276478   19.830916   21.038550 C.2        1 MOL1         0.6075
       2    O1      22.011275   20.561880   21.673312 O.co2      1 MOL1        -0.6830
       3    O2      20.804382   20.130810   19.959659 O.co2      1 MOL1        -0.6830
       4    C2      21.003884   18.428821   21.580298 C.3        1 MOL1        -0.2050
       5    H1      21.974327   17.920868   21.624713 H          1 MOL1         0.0710
       6    H2      20.394707   17.877673   20.853582 H          1 MOL1         0.0710
       7    C3      20.342209   18.376740   22.986165 C.3        1 MOL1        -0.1947
       8    H3      20.528384   17.381415   23.411748 H          1 MOL1         0.0712
       9    H4      20.836294   19.091101   23.659298 H          1 MOL1         0.0712
      10    C4      18.812624   18.613198   22.990550 C.3        1 MOL1        -0.1921
      11    H5      18.430713   18.397124   23.997898 H          1 MOL1         0.0712
      12    H6      18.322665   17.898391   22.315109 H          1 MOL1         0.0712
      13    C5      18.402577   20.051152   22.610501 C.3        1 MOL1        -0.2936
      14    H7      17.325842   20.197070   22.765804 H          1 MOL1         0.0724
      15    H8      18.614768   20.261304   21.555128 H          1 MOL1         0.0724
      16    H9      18.937026   20.788554   23.223634 H          1 MOL1         0.0724
@<TRIPOS>BOND
    1     1     2    1
    2     1     3    2
    3     1     4    1
    4     4     5    1
    5     4     6    1
    6     4     7    1
    7     7     8    1
    8     7     9    1
    9     7    10    1
   10    10    11    1
   11    10    12    1
   12    10    13    1
   13    13    14    1
   14    13    15    1
   15    13    16    1
@<TRIPOS>SUBSTRUCTURE
       1 MOL1            1 RESIDUE      1      MOL     
@<SCITEGIC>MOL_PROPERTY
VConf Rank
SciTegic.value.IntegerValue
370

@<SCITEGIC>MOL_PROPERTY
Conf_Id
SciTegic.value.IntegerValue
45

@<SCITEGIC>MOL_PROPERTY
Delta U+W
SciTegic.value.DoubleValue
2.303

@<SCITEGIC>MOL_PROPERTY
U+W
SciTegic.value.DoubleValue
-54.601

@<SCITEGIC>MOL_PROPERTY
Grad RMS
SciTegic.value.DoubleValue
0.000000

@<SCITEGIC>MOL_PROPERTY
U
SciTegic.value.DoubleValue
11.258

@<SCITEGIC>MOL_PROPERTY
W
SciTegic.value.DoubleValue
-65.860

@<SCITEGIC>MOL_PROPERTY
W(PB)
SciTegic.value.DoubleValue
-67.709

@<SCITEGIC>MOL_PROPERTY
W(SA)
SciTegic.value.DoubleValue
1.849

@<SCITEGIC>MOL_PROPERTY
Valence
SciTegic.value.DoubleValue
8.169

@<SCITEGIC>MOL_PROPERTY
Coulomb
SciTegic.value.DoubleValue
2.735

@<SCITEGIC>MOL_PROPERTY
VdW
SciTegic.value.DoubleValue
0.355

@<SCITEGIC>MOL_PROPERTY
VdW6
SciTegic.value.DoubleValue
-6.245

@<SCITEGIC>MOL_PROPERTY
VdW12
SciTegic.value.DoubleValue
6.600

@<SCITEGIC>MOL_PROPERTY
Bond
SciTegic.value.DoubleValue
0.149

@<SCITEGIC>MOL_PROPERTY
Angle
SciTegic.value.DoubleValue
3.168

@<SCITEGIC>MOL_PROPERTY
Pdih
SciTegic.value.DoubleValue
4.840

@<SCITEGIC>MOL_PROPERTY
Idih
SciTegic.value.DoubleValue
0.011

@<SCITEGIC>MOL_PROPERTY
Tether
SciTegic.value.DoubleValue
0.000

@<TRIPOS>MOLECULE
guest-s18_confgen4.mol2 : confsearch ligand conformer 371
          16          15           1
SMALL
USER_CHARGES
 
@<TRIPOS>ATOM
       1    C1      21.279588   17.785163   23.974990 C.2        1 MOL1         0.6075
       2    O1      22.353020   18.322204   23.782359 O.co2      1 MOL1        -0.6830
       3    O2      21.098332   16.962270   24.849808 O.co2      1 MOL1        -0.6830
       4    C2      20.082387   18.140441   23.091598 C.3        1 MOL1        -0.2050
       5    H1      19.283475   18.498518   23.751659 H          1 MOL1         0.0710
       6    H2      19.726631   17.210256   22.632951 H          1 MOL1         0.0710
       7    C3      20.361664   19.194991   21.987841 C.3        1 MOL1        -0.1947
       8    H3      20.722901   20.122727   22.452903 H          1 MOL1         0.0712
       9    H4      21.166499   18.833130   21.333039 H          1 MOL1         0.0712
      10    C4      19.102447   19.492179   21.146824 C.3        1 MOL1        -0.1921
      11    H5      18.297298   19.855838   21.800266 H          1 MOL1         0.0712
      12    H6      18.741150   18.565473   20.679726 H          1 MOL1         0.0712
      13    C5      19.386115   20.540075   20.052480 C.3        1 MOL1        -0.2936
      14    H7      19.719615   21.488449   20.493880 H          1 MOL1         0.0724
      15    H8      18.481065   20.739697   19.464112 H          1 MOL1         0.0724
      16    H9      20.166742   20.188568   19.365069 H          1 MOL1         0.0724
@<TRIPOS>BOND
    1     1     2    1
    2     1     3    2
    3     1     4    1
    4     4     5    1
    5     4     6    1
    6     4     7    1
    7     7     8    1
    8     7     9    1
    9     7    10    1
   10    10    11    1
   11    10    12    1
   12    10    13    1
   13    13    14    1
   14    13    15    1
   15    13    16    1
@<TRIPOS>SUBSTRUCTURE
       1 MOL1            1 RESIDUE      1      MOL     
@<SCITEGIC>MOL_PROPERTY
VConf Rank
SciTegic.value.IntegerValue
371

@<SCITEGIC>MOL_PROPERTY
Conf_Id
SciTegic.value.IntegerValue
0

@<SCITEGIC>MOL_PROPERTY
Delta U+W
SciTegic.value.DoubleValue
0.000

@<SCITEGIC>MOL_PROPERTY
U+W
SciTegic.value.DoubleValue
-56.904

@<SCITEGIC>MOL_PROPERTY
Grad RMS
SciTegic.value.DoubleValue
0.000000

@<SCITEGIC>MOL_PROPERTY
U
SciTegic.value.DoubleValue
7.329

@<SCITEGIC>MOL_PROPERTY
W
SciTegic.value.DoubleValue
-64.233

@<SCITEGIC>MOL_PROPERTY
W(PB)
SciTegic.value.DoubleValue
-66.148

@<SCITEGIC>MOL_PROPERTY
W(SA)
SciTegic.value.DoubleValue
1.915

@<SCITEGIC>MOL_PROPERTY
Valence
SciTegic.value.DoubleValue
6.755

@<SCITEGIC>MOL_PROPERTY
Coulomb
SciTegic.value.DoubleValue
-0.421

@<SCITEGIC>MOL_PROPERTY
VdW
SciTegic.value.DoubleValue
0.995

@<SCITEGIC>MOL_PROPERTY
VdW6
SciTegic.value.DoubleValue
-4.495

@<SCITEGIC>MOL_PROPERTY
VdW12
SciTegic.value.DoubleValue
5.490

@<SCITEGIC>MOL_PROPERTY
Bond
SciTegic.value.DoubleValue
0.106

@<SCITEGIC>MOL_PROPERTY
Angle
SciTegic.value.DoubleValue
2.715

@<SCITEGIC>MOL_PROPERTY
Pdih
SciTegic.value.DoubleValue
3.934

@<SCITEGIC>MOL_PROPERTY
Idih
SciTegic.value.DoubleValue
0.000

@<SCITEGIC>MOL_PROPERTY
Tether
SciTegic.value.DoubleValue
0.000

@<TRIPOS>MOLECULE
guest-s18_confgen4.mol2 : confsearch ligand conformer 372
          16          15           1
SMALL
USER_CHARGES
 
@<TRIPOS>ATOM
       1    C1      21.426296   17.737359   23.844205 C.2        1 MOL1         0.6075
       2    O1      20.922098   17.745344   24.949449 O.co2      1 MOL1        -0.6830
       3    O2      22.094776   16.817222   23.417207 O.co2      1 MOL1        -0.6830
       4    C2      21.192250   18.939924   22.936658 C.3        1 MOL1        -0.2050
       5    H1      22.079415   19.068069   22.304703 H          1 MOL1         0.0710
       6    H2      21.112487   19.833219   23.567937 H          1 MOL1         0.0710
       7    C3      19.926556   18.793529   22.056517 C.3        1 MOL1        -0.1947
       8    H3      20.015992   17.888504   21.439685 H          1 MOL1         0.0712
       9    H4      19.049020   18.653618   22.702974 H          1 MOL1         0.0712
      10    C4      19.713136   20.022707   21.148698 C.3        1 MOL1        -0.1921
      11    H5      20.590196   20.162552   20.501590 H          1 MOL1         0.0712
      12    H6      19.623011   20.927876   21.765207 H          1 MOL1         0.0712
      13    C5      18.451871   19.870061   20.275766 C.3        1 MOL1        -0.2936
      14    H7      17.554268   19.759781   20.898356 H          1 MOL1         0.0724
      15    H8      18.528587   18.988789   19.625422 H          1 MOL1         0.0724
      16    H9      18.314784   20.752038   19.636646 H          1 MOL1         0.0724
@<TRIPOS>BOND
    1     1     2    1
    2     1     3    2
    3     1     4    1
    4     4     5    1
    5     4     6    1
    6     4     7    1
    7     7     8    1
    8     7     9    1
    9     7    10    1
   10    10    11    1
   11    10    12    1
   12    10    13    1
   13    13    14    1
   14    13    15    1
   15    13    16    1
@<TRIPOS>SUBSTRUCTURE
       1 MOL1            1 RESIDUE      1      MOL     
@<SCITEGIC>MOL_PROPERTY
VConf Rank
SciTegic.value.IntegerValue
372

@<SCITEGIC>MOL_PROPERTY
Conf_Id
SciTegic.value.IntegerValue
22

@<SCITEGIC>MOL_PROPERTY
Delta U+W
SciTegic.value.DoubleValue
-1.185

@<SCITEGIC>MOL_PROPERTY
U+W
SciTegic.value.DoubleValue
-58.089

@<SCITEGIC>MOL_PROPERTY
Grad RMS
SciTegic.value.DoubleValue
0.000000

@<SCITEGIC>MOL_PROPERTY
U
SciTegic.value.DoubleValue
6.298

@<SCITEGIC>MOL_PROPERTY
W
SciTegic.value.DoubleValue
-64.387

@<SCITEGIC>MOL_PROPERTY
W(PB)
SciTegic.value.DoubleValue
-66.329

@<SCITEGIC>MOL_PROPERTY
W(SA)
SciTegic.value.DoubleValue
1.942

@<SCITEGIC>MOL_PROPERTY
Valence
SciTegic.value.DoubleValue
6.246

@<SCITEGIC>MOL_PROPERTY
Coulomb
SciTegic.value.DoubleValue
-0.408

@<SCITEGIC>MOL_PROPERTY
VdW
SciTegic.value.DoubleValue
0.460

@<SCITEGIC>MOL_PROPERTY
VdW6
SciTegic.value.DoubleValue
-4.207

@<SCITEGIC>MOL_PROPERTY
VdW12
SciTegic.value.DoubleValue
4.667

@<SCITEGIC>MOL_PROPERTY
Bond
SciTegic.value.DoubleValue
0.072

@<SCITEGIC>MOL_PROPERTY
Angle
SciTegic.value.DoubleValue
2.246

@<SCITEGIC>MOL_PROPERTY
Pdih
SciTegic.value.DoubleValue
3.928

@<SCITEGIC>MOL_PROPERTY
Idih
SciTegic.value.DoubleValue
0.001

@<SCITEGIC>MOL_PROPERTY
Tether
SciTegic.value.DoubleValue
0.000

@<TRIPOS>MOLECULE
guest-s18_confgen4.mol2 : confsearch ligand conformer 373
          16          15           1
SMALL
USER_CHARGES
 
@<TRIPOS>ATOM
       1    C1      20.904189   18.383412   24.276952 C.2        1 MOL1         0.6075
       2    O1      20.592641   18.922602   25.320123 O.co2      1 MOL1        -0.6830
       3    O2      21.912849   17.720482   24.138803 O.co2      1 MOL1        -0.6830
       4    C2      19.989730   18.565496   23.070642 C.3        1 MOL1        -0.2050
       5    H1      18.958878   18.651376   23.434694 H          1 MOL1         0.0710
       6    H2      20.046408   17.652396   22.467191 H          1 MOL1         0.0710
       7    C3      20.360107   19.806409   22.217443 C.3        1 MOL1        -0.1947
       8    H3      20.378859   20.690584   22.869603 H          1 MOL1         0.0712
       9    H4      21.379068   19.689390   21.823319 H          1 MOL1         0.0712
      10    C4      19.376897   20.068589   21.053413 C.3        1 MOL1        -0.1921
      11    H5      19.645574   21.018733   20.571387 H          1 MOL1         0.0712
      12    H6      18.359660   20.197343   21.448423 H          1 MOL1         0.0712
      13    C5      19.382660   18.951130   19.988430 C.3        1 MOL1        -0.2936
      14    H7      19.010808   18.004075   20.399034 H          1 MOL1         0.0724
      15    H8      20.395618   18.784406   19.599371 H          1 MOL1         0.0724
      16    H9      18.736770   19.223149   19.143540 H          1 MOL1         0.0724
@<TRIPOS>BOND
    1     1     2    1
    2     1     3    2
    3     1     4    1
    4     4     5    1
    5     4     6    1
    6     4     7    1
    7     7     8    1
    8     7     9    1
    9     7    10    1
   10    10    11    1
   11    10    12    1
   12    10    13    1
   13    13    14    1
   14    13    15    1
   15    13    16    1
@<TRIPOS>SUBSTRUCTURE
       1 MOL1            1 RESIDUE      1      MOL     
@<SCITEGIC>MOL_PROPERTY
VConf Rank
SciTegic.value.IntegerValue
373

@<SCITEGIC>MOL_PROPERTY
Conf_Id
SciTegic.value.IntegerValue
36

@<SCITEGIC>MOL_PROPERTY
Delta U+W
SciTegic.value.DoubleValue
-0.427

@<SCITEGIC>MOL_PROPERTY
U+W
SciTegic.value.DoubleValue
-57.331

@<SCITEGIC>MOL_PROPERTY
Grad RMS
SciTegic.value.DoubleValue
0.000000

@<SCITEGIC>MOL_PROPERTY
U
SciTegic.value.DoubleValue
7.263

@<SCITEGIC>MOL_PROPERTY
W
SciTegic.value.DoubleValue
-64.594

@<SCITEGIC>MOL_PROPERTY
W(PB)
SciTegic.value.DoubleValue
-66.513

@<SCITEGIC>MOL_PROPERTY
W(SA)
SciTegic.value.DoubleValue
1.920

@<SCITEGIC>MOL_PROPERTY
Valence
SciTegic.value.DoubleValue
6.734

@<SCITEGIC>MOL_PROPERTY
Coulomb
SciTegic.value.DoubleValue
-0.068

@<SCITEGIC>MOL_PROPERTY
VdW
SciTegic.value.DoubleValue
0.598

@<SCITEGIC>MOL_PROPERTY
VdW6
SciTegic.value.DoubleValue
-4.819

@<SCITEGIC>MOL_PROPERTY
VdW12
SciTegic.value.DoubleValue
5.417

@<SCITEGIC>MOL_PROPERTY
Bond
SciTegic.value.DoubleValue
0.107

@<SCITEGIC>MOL_PROPERTY
Angle
SciTegic.value.DoubleValue
2.469

@<SCITEGIC>MOL_PROPERTY
Pdih
SciTegic.value.DoubleValue
4.157

@<SCITEGIC>MOL_PROPERTY
Idih
SciTegic.value.DoubleValue
0.001

@<SCITEGIC>MOL_PROPERTY
Tether
SciTegic.value.DoubleValue
0.000

@<TRIPOS>MOLECULE
guest-s18_confgen4.mol2 : confsearch ligand conformer 374
          16          15           1
SMALL
USER_CHARGES
 
@<TRIPOS>ATOM
       1    C1      21.135663   19.350583   19.690789 C.2        1 MOL1         0.6075
       2    O1      20.625209   18.615474   18.869199 O.co2      1 MOL1        -0.6830
       3    O2      22.246976   19.825879   19.568021 O.co2      1 MOL1        -0.6830
       4    C2      20.347276   19.678578   20.953896 C.3        1 MOL1        -0.2050
       5    H1      19.284090   19.698870   20.688677 H          1 MOL1         0.0710
       6    H2      20.622177   20.690888   21.273622 H          1 MOL1         0.0710
       7    C3      20.603356   18.667769   22.101800 C.3        1 MOL1        -0.1947
       8    H3      20.284608   17.665049   21.785158 H          1 MOL1         0.0712
       9    H4      21.685276   18.606806   22.283904 H          1 MOL1         0.0712
      10    C4      19.897687   19.046698   23.424242 C.3        1 MOL1        -0.1921
      11    H5      20.225235   20.044587   23.747213 H          1 MOL1         0.0712
      12    H6      20.216856   18.346099   24.208207 H          1 MOL1         0.0712
      13    C5      18.357658   19.013125   23.323672 C.3        1 MOL1        -0.2936
      14    H7      17.984267   19.778802   22.632224 H          1 MOL1         0.0724
      15    H8      17.904929   19.203112   24.305481 H          1 MOL1         0.0724
      16    H9      18.008027   18.032819   22.974375 H          1 MOL1         0.0724
@<TRIPOS>BOND
    1     1     2    1
    2     1     3    2
    3     1     4    1
    4     4     5    1
    5     4     6    1
    6     4     7    1
    7     7     8    1
    8     7     9    1
    9     7    10    1
   10    10    11    1
   11    10    12    1
   12    10    13    1
   13    13    14    1
   14    13    15    1
   15    13    16    1
@<TRIPOS>SUBSTRUCTURE
       1 MOL1            1 RESIDUE      1      MOL     
@<SCITEGIC>MOL_PROPERTY
VConf Rank
SciTegic.value.IntegerValue
374

@<SCITEGIC>MOL_PROPERTY
Conf_Id
SciTegic.value.IntegerValue
17

@<SCITEGIC>MOL_PROPERTY
Delta U+W
SciTegic.value.DoubleValue
-0.432

@<SCITEGIC>MOL_PROPERTY
U+W
SciTegic.value.DoubleValue
-57.336

@<SCITEGIC>MOL_PROPERTY
Grad RMS
SciTegic.value.DoubleValue
0.000000

@<SCITEGIC>MOL_PROPERTY
U
SciTegic.value.DoubleValue
7.263

@<SCITEGIC>MOL_PROPERTY
W
SciTegic.value.DoubleValue
-64.599

@<SCITEGIC>MOL_PROPERTY
W(PB)
SciTegic.value.DoubleValue
-66.503

@<SCITEGIC>MOL_PROPERTY
W(SA)
SciTegic.value.DoubleValue
1.904

@<SCITEGIC>MOL_PROPERTY
Valence
SciTegic.value.DoubleValue
6.734

@<SCITEGIC>MOL_PROPERTY
Coulomb
SciTegic.value.DoubleValue
-0.068

@<SCITEGIC>MOL_PROPERTY
VdW
SciTegic.value.DoubleValue
0.598

@<SCITEGIC>MOL_PROPERTY
VdW6
SciTegic.value.DoubleValue
-4.819

@<SCITEGIC>MOL_PROPERTY
VdW12
SciTegic.value.DoubleValue
5.417

@<SCITEGIC>MOL_PROPERTY
Bond
SciTegic.value.DoubleValue
0.107

@<SCITEGIC>MOL_PROPERTY
Angle
SciTegic.value.DoubleValue
2.469

@<SCITEGIC>MOL_PROPERTY
Pdih
SciTegic.value.DoubleValue
4.157

@<SCITEGIC>MOL_PROPERTY
Idih
SciTegic.value.DoubleValue
0.001

@<SCITEGIC>MOL_PROPERTY
Tether
SciTegic.value.DoubleValue
0.000

@<TRIPOS>MOLECULE
guest-s18_confgen4.mol2 : confsearch ligand conformer 375
          16          15           1
SMALL
USER_CHARGES
 
@<TRIPOS>ATOM
       1    C1      22.028830   17.785103   21.644453 C.2        1 MOL1         0.6075
       2    O1      23.019884   18.420523   21.343795 O.co2      1 MOL1        -0.6830
       3    O2      22.025406   16.902099   22.479051 O.co2      1 MOL1        -0.6830
       4    C2      20.724604   18.098340   20.916189 C.3        1 MOL1        -0.2050
       5    H1      20.044671   17.245527   21.032306 H          1 MOL1         0.0710
       6    H2      20.956052   18.175888   19.847240 H          1 MOL1         0.0710
       7    C3      20.032809   19.402453   21.391316 C.3        1 MOL1        -0.1947
       8    H3      20.734770   20.242576   21.296099 H          1 MOL1         0.0712
       9    H4      19.186898   19.620202   20.725298 H          1 MOL1         0.0712
      10    C4      19.523773   19.308620   22.846053 C.3        1 MOL1        -0.1921
      11    H5      20.365406   19.111128   23.524563 H          1 MOL1         0.0712
      12    H6      18.831664   18.460652   22.942550 H          1 MOL1         0.0712
      13    C5      18.811243   20.604437   23.281371 C.3        1 MOL1        -0.2936
      14    H7      19.491231   21.464522   23.223748 H          1 MOL1         0.0724
      15    H8      18.456700   20.521438   24.317000 H          1 MOL1         0.0724
      16    H9      17.943159   20.809774   22.641308 H          1 MOL1         0.0724
@<TRIPOS>BOND
    1     1     2    1
    2     1     3    2
    3     1     4    1
    4     4     5    1
    5     4     6    1
    6     4     7    1
    7     7     8    1
    8     7     9    1
    9     7    10    1
   10    10    11    1
   11    10    12    1
   12    10    13    1
   13    13    14    1
   14    13    15    1
   15    13    16    1
@<TRIPOS>SUBSTRUCTURE
       1 MOL1            1 RESIDUE      1      MOL     
@<SCITEGIC>MOL_PROPERTY
VConf Rank
SciTegic.value.IntegerValue
375

@<SCITEGIC>MOL_PROPERTY
Conf_Id
SciTegic.value.IntegerValue
19

@<SCITEGIC>MOL_PROPERTY
Delta U+W
SciTegic.value.DoubleValue
0.048

@<SCITEGIC>MOL_PROPERTY
U+W
SciTegic.value.DoubleValue
-56.856

@<SCITEGIC>MOL_PROPERTY
Grad RMS
SciTegic.value.DoubleValue
0.000000

@<SCITEGIC>MOL_PROPERTY
U
SciTegic.value.DoubleValue
8.276

@<SCITEGIC>MOL_PROPERTY
W
SciTegic.value.DoubleValue
-65.132

@<SCITEGIC>MOL_PROPERTY
W(PB)
SciTegic.value.DoubleValue
-67.031

@<SCITEGIC>MOL_PROPERTY
W(SA)
SciTegic.value.DoubleValue
1.899

@<SCITEGIC>MOL_PROPERTY
Valence
SciTegic.value.DoubleValue
6.513

@<SCITEGIC>MOL_PROPERTY
Coulomb
SciTegic.value.DoubleValue
1.428

@<SCITEGIC>MOL_PROPERTY
VdW
SciTegic.value.DoubleValue
0.335

@<SCITEGIC>MOL_PROPERTY
VdW6
SciTegic.value.DoubleValue
-5.021

@<SCITEGIC>MOL_PROPERTY
VdW12
SciTegic.value.DoubleValue
5.356

@<SCITEGIC>MOL_PROPERTY
Bond
SciTegic.value.DoubleValue
0.092

@<SCITEGIC>MOL_PROPERTY
Angle
SciTegic.value.DoubleValue
2.417

@<SCITEGIC>MOL_PROPERTY
Pdih
SciTegic.value.DoubleValue
4.003

@<SCITEGIC>MOL_PROPERTY
Idih
SciTegic.value.DoubleValue
0.001

@<SCITEGIC>MOL_PROPERTY
Tether
SciTegic.value.DoubleValue
0.000

@<TRIPOS>MOLECULE
guest-s18_confgen4.mol2 : confsearch ligand conformer 376
          16          15           1
SMALL
USER_CHARGES
 
@<TRIPOS>ATOM
       1    C1      18.429321   18.882322   23.952631 C.2        1 MOL1         0.6075
       2    O1      17.922364   19.918137   24.335284 O.co2      1 MOL1        -0.6830
       3    O2      18.977159   18.089772   24.692901 O.co2      1 MOL1        -0.6830
       4    C2      18.352057   18.549720   22.465048 C.3        1 MOL1        -0.2050
       5    H1      17.324335   18.746788   22.137654 H          1 MOL1         0.0710
       6    H2      18.524912   17.474188   22.336840 H          1 MOL1         0.0710
       7    C3      19.339338   19.358817   21.584320 C.3        1 MOL1        -0.1947
       8    H3      19.119330   19.159272   20.526805 H          1 MOL1         0.0712
       9    H4      19.173750   20.433305   21.744570 H          1 MOL1         0.0712
      10    C4      20.815489   19.008637   21.871618 C.3        1 MOL1        -0.1921
      11    H5      20.976671   17.931928   21.722972 H          1 MOL1         0.0712
      12    H6      21.052901   19.223706   22.922858 H          1 MOL1         0.0712
      13    C5      21.773258   19.801346   20.960222 C.3        1 MOL1        -0.2936
      14    H7      21.582253   19.579885   19.901974 H          1 MOL1         0.0724
      15    H8      22.817441   19.541593   21.177767 H          1 MOL1         0.0724
      16    H9      21.654219   20.882262   21.111557 H          1 MOL1         0.0724
@<TRIPOS>BOND
    1     1     2    1
    2     1     3    2
    3     1     4    1
    4     4     5    1
    5     4     6    1
    6     4     7    1
    7     7     8    1
    8     7     9    1
    9     7    10    1
   10    10    11    1
   11    10    12    1
   12    10    13    1
   13    13    14    1
   14    13    15    1
   15    13    16    1
@<TRIPOS>SUBSTRUCTURE
       1 MOL1            1 RESIDUE      1      MOL     
@<SCITEGIC>MOL_PROPERTY
VConf Rank
SciTegic.value.IntegerValue
376

@<SCITEGIC>MOL_PROPERTY
Conf_Id
SciTegic.value.IntegerValue
20

@<SCITEGIC>MOL_PROPERTY
Delta U+W
SciTegic.value.DoubleValue
-0.010

@<SCITEGIC>MOL_PROPERTY
U+W
SciTegic.value.DoubleValue
-56.914

@<SCITEGIC>MOL_PROPERTY
Grad RMS
SciTegic.value.DoubleValue
0.000000

@<SCITEGIC>MOL_PROPERTY
U
SciTegic.value.DoubleValue
8.277

@<SCITEGIC>MOL_PROPERTY
W
SciTegic.value.DoubleValue
-65.191

@<SCITEGIC>MOL_PROPERTY
W(PB)
SciTegic.value.DoubleValue
-67.081

@<SCITEGIC>MOL_PROPERTY
W(SA)
SciTegic.value.DoubleValue
1.890

@<SCITEGIC>MOL_PROPERTY
Valence
SciTegic.value.DoubleValue
6.513

@<SCITEGIC>MOL_PROPERTY
Coulomb
SciTegic.value.DoubleValue
1.429

@<SCITEGIC>MOL_PROPERTY
VdW
SciTegic.value.DoubleValue
0.335

@<SCITEGIC>MOL_PROPERTY
VdW6
SciTegic.value.DoubleValue
-5.021

@<SCITEGIC>MOL_PROPERTY
VdW12
SciTegic.value.DoubleValue
5.356

@<SCITEGIC>MOL_PROPERTY
Bond
SciTegic.value.DoubleValue
0.092

@<SCITEGIC>MOL_PROPERTY
Angle
SciTegic.value.DoubleValue
2.417

@<SCITEGIC>MOL_PROPERTY
Pdih
SciTegic.value.DoubleValue
4.002

@<SCITEGIC>MOL_PROPERTY
Idih
SciTegic.value.DoubleValue
0.001

@<SCITEGIC>MOL_PROPERTY
Tether
SciTegic.value.DoubleValue
0.000

@<TRIPOS>MOLECULE
guest-s18_confgen4.mol2 : confsearch ligand conformer 377
          16          15           1
SMALL
USER_CHARGES
 
@<TRIPOS>ATOM
       1    C1      21.487636   20.567771   22.218137 C.2        1 MOL1         0.6075
       2    O1      22.601964   20.283835   22.611123 O.co2      1 MOL1        -0.6830
       3    O2      20.897530   21.577272   22.548260 O.co2      1 MOL1        -0.6830
       4    C2      20.809711   19.621262   21.231078 C.3        1 MOL1        -0.2050
       5    H1      21.524952   19.426394   20.423404 H          1 MOL1         0.0710
       6    H2      19.959331   20.139804   20.773677 H          1 MOL1         0.0710
       7    C3      20.357962   18.271258   21.852440 C.3        1 MOL1        -0.1947
       8    H3      19.956809   17.626058   21.059240 H          1 MOL1         0.0712
       9    H4      21.240957   17.754231   22.252887 H          1 MOL1         0.0712
      10    C4      19.305468   18.407851   22.978312 C.3        1 MOL1        -0.1921
      11    H5      19.708223   19.023278   23.794790 H          1 MOL1         0.0712
      12    H6      19.115332   17.413634   23.405524 H          1 MOL1         0.0712
      13    C5      17.967804   19.004917   22.491887 C.3        1 MOL1        -0.2936
      14    H7      18.090774   20.046819   22.169697 H          1 MOL1         0.0724
      15    H8      17.225960   18.993441   23.300835 H          1 MOL1         0.0724
      16    H9      17.561188   18.427924   21.651168 H          1 MOL1         0.0724
@<TRIPOS>BOND
    1     1     2    1
    2     1     3    2
    3     1     4    1
    4     4     5    1
    5     4     6    1
    6     4     7    1
    7     7     8    1
    8     7     9    1
    9     7    10    1
   10    10    11    1
   11    10    12    1
   12    10    13    1
   13    13    14    1
   14    13    15    1
   15    13    16    1
@<TRIPOS>SUBSTRUCTURE
       1 MOL1            1 RESIDUE      1      MOL     
@<SCITEGIC>MOL_PROPERTY
VConf Rank
SciTegic.value.IntegerValue
377

@<SCITEGIC>MOL_PROPERTY
Conf_Id
SciTegic.value.IntegerValue
37

@<SCITEGIC>MOL_PROPERTY
Delta U+W
SciTegic.value.DoubleValue
1.063

@<SCITEGIC>MOL_PROPERTY
U+W
SciTegic.value.DoubleValue
-55.841

@<SCITEGIC>MOL_PROPERTY
Grad RMS
SciTegic.value.DoubleValue
0.000000

@<SCITEGIC>MOL_PROPERTY
U
SciTegic.value.DoubleValue
9.719

@<SCITEGIC>MOL_PROPERTY
W
SciTegic.value.DoubleValue
-65.560

@<SCITEGIC>MOL_PROPERTY
W(PB)
SciTegic.value.DoubleValue
-67.414

@<SCITEGIC>MOL_PROPERTY
W(SA)
SciTegic.value.DoubleValue
1.854

@<SCITEGIC>MOL_PROPERTY
Valence
SciTegic.value.DoubleValue
7.002

@<SCITEGIC>MOL_PROPERTY
Coulomb
SciTegic.value.DoubleValue
2.402

@<SCITEGIC>MOL_PROPERTY
VdW
SciTegic.value.DoubleValue
0.314

@<SCITEGIC>MOL_PROPERTY
VdW6
SciTegic.value.DoubleValue
-5.861

@<SCITEGIC>MOL_PROPERTY
VdW12
SciTegic.value.DoubleValue
6.175

@<SCITEGIC>MOL_PROPERTY
Bond
SciTegic.value.DoubleValue
0.134

@<SCITEGIC>MOL_PROPERTY
Angle
SciTegic.value.DoubleValue
2.733

@<SCITEGIC>MOL_PROPERTY
Pdih
SciTegic.value.DoubleValue
4.133

@<SCITEGIC>MOL_PROPERTY
Idih
SciTegic.value.DoubleValue
0.002

@<SCITEGIC>MOL_PROPERTY
Tether
SciTegic.value.DoubleValue
0.000

@<TRIPOS>MOLECULE
guest-s18_confgen4.mol2 : confsearch ligand conformer 378
          16          15           1
SMALL
USER_CHARGES
 
@<TRIPOS>ATOM
       1    C1      20.411244   19.944533   24.145132 C.2        1 MOL1         0.6075
       2    O1      20.036523   21.055029   24.466330 O.co2      1 MOL1        -0.6830
       3    O2      20.222026   18.952051   24.820022 O.co2      1 MOL1        -0.6830
       4    C2      21.190848   19.797192   22.841193 C.3        1 MOL1        -0.2050
       5    H1      21.681855   18.817344   22.833514 H          1 MOL1         0.0710
       6    H2      21.992028   20.545396   22.854666 H          1 MOL1         0.0710
       7    C3      20.331767   19.989152   21.561424 C.3        1 MOL1        -0.1947
       8    H3      19.898919   20.999006   21.575322 H          1 MOL1         0.0712
       9    H4      20.984942   19.946293   20.679440 H          1 MOL1         0.0712
      10    C4      19.189580   18.958059   21.399407 C.3        1 MOL1        -0.1921
      11    H5      18.594452   19.227268   20.515960 H          1 MOL1         0.0712
      12    H6      18.508616   19.015225   22.259999 H          1 MOL1         0.0712
      13    C5      19.696133   17.509225   21.235933 C.3        1 MOL1        -0.2936
      14    H7      20.407067   17.431868   20.403074 H          1 MOL1         0.0724
      15    H8      18.858107   16.830857   21.030046 H          1 MOL1         0.0724
      16    H9      20.192193   17.155651   22.148839 H          1 MOL1         0.0724
@<TRIPOS>BOND
    1     1     2    1
    2     1     3    2
    3     1     4    1
    4     4     5    1
    5     4     6    1
    6     4     7    1
    7     7     8    1
    8     7     9    1
    9     7    10    1
   10    10    11    1
   11    10    12    1
   12    10    13    1
   13    13    14    1
   14    13    15    1
   15    13    16    1
@<TRIPOS>SUBSTRUCTURE
       1 MOL1            1 RESIDUE      1      MOL     
@<SCITEGIC>MOL_PROPERTY
VConf Rank
SciTegic.value.IntegerValue
378

@<SCITEGIC>MOL_PROPERTY
Conf_Id
SciTegic.value.IntegerValue
39

@<SCITEGIC>MOL_PROPERTY
Delta U+W
SciTegic.value.DoubleValue
1.129

@<SCITEGIC>MOL_PROPERTY
U+W
SciTegic.value.DoubleValue
-55.775

@<SCITEGIC>MOL_PROPERTY
Grad RMS
SciTegic.value.DoubleValue
0.000000

@<SCITEGIC>MOL_PROPERTY
U
SciTegic.value.DoubleValue
9.718

@<SCITEGIC>MOL_PROPERTY
W
SciTegic.value.DoubleValue
-65.493

@<SCITEGIC>MOL_PROPERTY
W(PB)
SciTegic.value.DoubleValue
-67.361

@<SCITEGIC>MOL_PROPERTY
W(SA)
SciTegic.value.DoubleValue
1.869

@<SCITEGIC>MOL_PROPERTY
Valence
SciTegic.value.DoubleValue
7.002

@<SCITEGIC>MOL_PROPERTY
Coulomb
SciTegic.value.DoubleValue
2.402

@<SCITEGIC>MOL_PROPERTY
VdW
SciTegic.value.DoubleValue
0.314

@<SCITEGIC>MOL_PROPERTY
VdW6
SciTegic.value.DoubleValue
-5.861

@<SCITEGIC>MOL_PROPERTY
VdW12
SciTegic.value.DoubleValue
6.175

@<SCITEGIC>MOL_PROPERTY
Bond
SciTegic.value.DoubleValue
0.134

@<SCITEGIC>MOL_PROPERTY
Angle
SciTegic.value.DoubleValue
2.734

@<SCITEGIC>MOL_PROPERTY
Pdih
SciTegic.value.DoubleValue
4.133

@<SCITEGIC>MOL_PROPERTY
Idih
SciTegic.value.DoubleValue
0.002

@<SCITEGIC>MOL_PROPERTY
Tether
SciTegic.value.DoubleValue
0.000

@<TRIPOS>MOLECULE
guest-s18_confgen4.mol2 : confsearch ligand conformer 379
          16          15           1
SMALL
USER_CHARGES
 
@<TRIPOS>ATOM
       1    C1      19.779719   19.485409   24.219531 C.2        1 MOL1         0.6075
       2    O1      20.298825   18.609658   24.883164 O.co2      1 MOL1        -0.6830
       3    O2      18.676910   19.938430   24.455632 O.co2      1 MOL1        -0.6830
       4    C2      20.592854   20.109515   23.086854 C.3        1 MOL1        -0.2050
       5    H1      21.585318   19.643323   23.061181 H          1 MOL1         0.0710
       6    H2      20.747222   21.159909   23.359972 H          1 MOL1         0.0710
       7    C3      19.932045   20.045474   21.681075 C.3        1 MOL1        -0.1947
       8    H3      18.871031   20.322255   21.753055 H          1 MOL1         0.0712
       9    H4      20.402544   20.811652   21.050159 H          1 MOL1         0.0712
      10    C4      20.078310   18.684437   20.958756 C.3        1 MOL1        -0.1921
      11    H5      21.140155   18.410448   20.890593 H          1 MOL1         0.0712
      12    H6      19.722618   18.799634   19.925554 H          1 MOL1         0.0712
      13    C5      19.288001   17.537735   21.622664 C.3        1 MOL1        -0.2936
      14    H7      19.713774   17.271397   22.597744 H          1 MOL1         0.0724
      15    H8      19.315442   16.638355   20.994069 H          1 MOL1         0.0724
      16    H9      18.236523   17.817187   21.769736 H          1 MOL1         0.0724
@<TRIPOS>BOND
    1     1     2    1
    2     1     3    2
    3     1     4    1
    4     4     5    1
    5     4     6    1
    6     4     7    1
    7     7     8    1
    8     7     9    1
    9     7    10    1
   10    10    11    1
   11    10    12    1
   12    10    13    1
   13    13    14    1
   14    13    15    1
   15    13    16    1
@<TRIPOS>SUBSTRUCTURE
       1 MOL1            1 RESIDUE      1      MOL     
@<SCITEGIC>MOL_PROPERTY
VConf Rank
SciTegic.value.IntegerValue
379

@<SCITEGIC>MOL_PROPERTY
Conf_Id
SciTegic.value.IntegerValue
47

@<SCITEGIC>MOL_PROPERTY
Delta U+W
SciTegic.value.DoubleValue
2.301

@<SCITEGIC>MOL_PROPERTY
U+W
SciTegic.value.DoubleValue
-54.603

@<SCITEGIC>MOL_PROPERTY
Grad RMS
SciTegic.value.DoubleValue
0.000000

@<SCITEGIC>MOL_PROPERTY
U
SciTegic.value.DoubleValue
11.258

@<SCITEGIC>MOL_PROPERTY
W
SciTegic.value.DoubleValue
-65.861

@<SCITEGIC>MOL_PROPERTY
W(PB)
SciTegic.value.DoubleValue
-67.702

@<SCITEGIC>MOL_PROPERTY
W(SA)
SciTegic.value.DoubleValue
1.841

@<SCITEGIC>MOL_PROPERTY
Valence
SciTegic.value.DoubleValue
8.169

@<SCITEGIC>MOL_PROPERTY
Coulomb
SciTegic.value.DoubleValue
2.735

@<SCITEGIC>MOL_PROPERTY
VdW
SciTegic.value.DoubleValue
0.355

@<SCITEGIC>MOL_PROPERTY
VdW6
SciTegic.value.DoubleValue
-6.245

@<SCITEGIC>MOL_PROPERTY
VdW12
SciTegic.value.DoubleValue
6.600

@<SCITEGIC>MOL_PROPERTY
Bond
SciTegic.value.DoubleValue
0.149

@<SCITEGIC>MOL_PROPERTY
Angle
SciTegic.value.DoubleValue
3.168

@<SCITEGIC>MOL_PROPERTY
Pdih
SciTegic.value.DoubleValue
4.840

@<SCITEGIC>MOL_PROPERTY
Idih
SciTegic.value.DoubleValue
0.011

@<SCITEGIC>MOL_PROPERTY
Tether
SciTegic.value.DoubleValue
0.000

@<TRIPOS>MOLECULE
guest-s18_confgen4.mol2 : confsearch ligand conformer 380
          16          15           1
SMALL
USER_CHARGES
 
@<TRIPOS>ATOM
       1    C1      19.463184   17.744106   23.657246 C.2        1 MOL1         0.6075
       2    O1      19.341160   16.663282   23.114947 O.co2      1 MOL1        -0.6830
       3    O2      18.675233   18.173701   24.476636 O.co2      1 MOL1        -0.6830
       4    C2      20.716702   18.565937   23.362366 C.3        1 MOL1        -0.2050
       5    H1      21.568071   17.960668   23.694887 H          1 MOL1         0.0710
       6    H2      20.708664   19.466251   23.988745 H          1 MOL1         0.0710
       7    C3      20.923192   18.950678   21.870279 C.3        1 MOL1        -0.1947
       8    H3      21.983619   19.199023   21.727897 H          1 MOL1         0.0712
       9    H4      20.727228   18.080424   21.228565 H          1 MOL1         0.0712
      10    C4      20.086626   20.162141   21.392705 C.3        1 MOL1        -0.1921
      11    H5      20.425699   20.443114   20.386038 H          1 MOL1         0.0712
      12    H6      20.283970   21.029383   22.037822 H          1 MOL1         0.0712
      13    C5      18.568963   19.889944   21.338930 C.3        1 MOL1        -0.2936
      14    H7      18.044940   20.729444   20.864158 H          1 MOL1         0.0724
      15    H8      18.149474   19.766066   22.344755 H          1 MOL1         0.0724
      16    H9      18.351431   18.982853   20.759969 H          1 MOL1         0.0724
@<TRIPOS>BOND
    1     1     2    1
    2     1     3    2
    3     1     4    1
    4     4     5    1
    5     4     6    1
    6     4     7    1
    7     7     8    1
    8     7     9    1
    9     7    10    1
   10    10    11    1
   11    10    12    1
   12    10    13    1
   13    13    14    1
   14    13    15    1
   15    13    16    1
@<TRIPOS>SUBSTRUCTURE
       1 MOL1            1 RESIDUE      1      MOL     
@<SCITEGIC>MOL_PROPERTY
VConf Rank
SciTegic.value.IntegerValue
380

@<SCITEGIC>MOL_PROPERTY
Conf_Id
SciTegic.value.IntegerValue
45

@<SCITEGIC>MOL_PROPERTY
Delta U+W
SciTegic.value.DoubleValue
2.303

@<SCITEGIC>MOL_PROPERTY
U+W
SciTegic.value.DoubleValue
-54.601

@<SCITEGIC>MOL_PROPERTY
Grad RMS
SciTegic.value.DoubleValue
0.000000

@<SCITEGIC>MOL_PROPERTY
U
SciTegic.value.DoubleValue
11.258

@<SCITEGIC>MOL_PROPERTY
W
SciTegic.value.DoubleValue
-65.860

@<SCITEGIC>MOL_PROPERTY
W(PB)
SciTegic.value.DoubleValue
-67.709

@<SCITEGIC>MOL_PROPERTY
W(SA)
SciTegic.value.DoubleValue
1.849

@<SCITEGIC>MOL_PROPERTY
Valence
SciTegic.value.DoubleValue
8.169

@<SCITEGIC>MOL_PROPERTY
Coulomb
SciTegic.value.DoubleValue
2.735

@<SCITEGIC>MOL_PROPERTY
VdW
SciTegic.value.DoubleValue
0.355

@<SCITEGIC>MOL_PROPERTY
VdW6
SciTegic.value.DoubleValue
-6.245

@<SCITEGIC>MOL_PROPERTY
VdW12
SciTegic.value.DoubleValue
6.600

@<SCITEGIC>MOL_PROPERTY
Bond
SciTegic.value.DoubleValue
0.149

@<SCITEGIC>MOL_PROPERTY
Angle
SciTegic.value.DoubleValue
3.168

@<SCITEGIC>MOL_PROPERTY
Pdih
SciTegic.value.DoubleValue
4.840

@<SCITEGIC>MOL_PROPERTY
Idih
SciTegic.value.DoubleValue
0.011

@<SCITEGIC>MOL_PROPERTY
Tether
SciTegic.value.DoubleValue
0.000

@<TRIPOS>MOLECULE
guest-s18_confgen4.mol2 : confsearch ligand conformer 381
          16          15           1
SMALL
USER_CHARGES
 
@<TRIPOS>ATOM
       1    C1      17.949953   19.295058   23.769839 C.2        1 MOL1         0.6075
       2    O1      17.675899   20.448130   23.499473 O.co2      1 MOL1        -0.6830
       3    O2      17.359535   18.655168   24.616752 O.co2      1 MOL1        -0.6830
       4    C2      19.085856   18.589410   23.027089 C.3        1 MOL1        -0.2050
       5    H1      18.663412   17.692145   22.559524 H          1 MOL1         0.0710
       6    H2      19.807368   18.249508   23.779452 H          1 MOL1         0.0710
       7    C3      19.811224   19.446084   21.955502 C.3        1 MOL1        -0.1947
       8    H3      19.082478   19.788205   21.207604 H          1 MOL1         0.0712
       9    H4      20.227622   20.346128   22.428793 H          1 MOL1         0.0712
      10    C4      20.939322   18.657323   21.258000 C.3        1 MOL1        -0.1921
      11    H5      20.523934   17.757831   20.782746 H          1 MOL1         0.0712
      12    H6      21.669772   18.316082   22.004658 H          1 MOL1         0.0712
      13    C5      21.655855   19.513327   20.194995 C.3        1 MOL1        -0.2936
      14    H7      20.953959   19.842654   19.417592 H          1 MOL1         0.0724
      15    H8      22.454487   18.937904   19.708973 H          1 MOL1         0.0724
      16    H9      22.108253   20.405024   20.648515 H          1 MOL1         0.0724
@<TRIPOS>BOND
    1     1     2    1
    2     1     3    2
    3     1     4    1
    4     4     5    1
    5     4     6    1
    6     4     7    1
    7     7     8    1
    8     7     9    1
    9     7    10    1
   10    10    11    1
   11    10    12    1
   12    10    13    1
   13    13    14    1
   14    13    15    1
   15    13    16    1
@<TRIPOS>SUBSTRUCTURE
       1 MOL1            1 RESIDUE      1      MOL     
@<SCITEGIC>MOL_PROPERTY
VConf Rank
SciTegic.value.IntegerValue
381

@<SCITEGIC>MOL_PROPERTY
Conf_Id
SciTegic.value.IntegerValue
0

@<SCITEGIC>MOL_PROPERTY
Delta U+W
SciTegic.value.DoubleValue
0.000

@<SCITEGIC>MOL_PROPERTY
U+W
SciTegic.value.DoubleValue
-56.904

@<SCITEGIC>MOL_PROPERTY
Grad RMS
SciTegic.value.DoubleValue
0.000000

@<SCITEGIC>MOL_PROPERTY
U
SciTegic.value.DoubleValue
7.329

@<SCITEGIC>MOL_PROPERTY
W
SciTegic.value.DoubleValue
-64.233

@<SCITEGIC>MOL_PROPERTY
W(PB)
SciTegic.value.DoubleValue
-66.148

@<SCITEGIC>MOL_PROPERTY
W(SA)
SciTegic.value.DoubleValue
1.915

@<SCITEGIC>MOL_PROPERTY
Valence
SciTegic.value.DoubleValue
6.755

@<SCITEGIC>MOL_PROPERTY
Coulomb
SciTegic.value.DoubleValue
-0.421

@<SCITEGIC>MOL_PROPERTY
VdW
SciTegic.value.DoubleValue
0.995

@<SCITEGIC>MOL_PROPERTY
VdW6
SciTegic.value.DoubleValue
-4.495

@<SCITEGIC>MOL_PROPERTY
VdW12
SciTegic.value.DoubleValue
5.490

@<SCITEGIC>MOL_PROPERTY
Bond
SciTegic.value.DoubleValue
0.106

@<SCITEGIC>MOL_PROPERTY
Angle
SciTegic.value.DoubleValue
2.715

@<SCITEGIC>MOL_PROPERTY
Pdih
SciTegic.value.DoubleValue
3.934

@<SCITEGIC>MOL_PROPERTY
Idih
SciTegic.value.DoubleValue
0.000

@<SCITEGIC>MOL_PROPERTY
Tether
SciTegic.value.DoubleValue
0.000

@<TRIPOS>MOLECULE
guest-s18_confgen4.mol2 : confsearch ligand conformer 382
          16          15           1
SMALL
USER_CHARGES
 
@<TRIPOS>ATOM
       1    C1      19.471919   18.728740   19.297621 C.2        1 MOL1         0.6075
       2    O1      18.288156   18.648930   19.036510 O.co2      1 MOL1        -0.6830
       3    O2      20.301343   19.171636   18.528373 O.co2      1 MOL1        -0.6830
       4    C2      19.939486   18.264532   20.672566 C.3        1 MOL1        -0.2050
       5    H1      20.955964   17.865556   20.570392 H          1 MOL1         0.0710
       6    H2      19.296147   17.434714   20.989375 H          1 MOL1         0.0710
       7    C3      19.913445   19.394397   21.731240 C.3        1 MOL1        -0.1947
       8    H3      20.552096   20.222635   21.394051 H          1 MOL1         0.0712
       9    H4      18.892213   19.791827   21.813008 H          1 MOL1         0.0712
      10    C4      20.390696   18.898495   23.112136 C.3        1 MOL1        -0.1921
      11    H5      21.412175   18.501604   23.030919 H          1 MOL1         0.0712
      12    H6      19.751883   18.070653   23.449971 H          1 MOL1         0.0712
      13    C5      20.362121   20.028097   24.160603 C.3        1 MOL1        -0.2936
      14    H7      19.345185   20.422833   24.285086 H          1 MOL1         0.0724
      15    H8      21.017724   20.856979   23.862926 H          1 MOL1         0.0724
      16    H9      20.704192   19.658965   25.136245 H          1 MOL1         0.0724
@<TRIPOS>BOND
    1     1     2    1
    2     1     3    2
    3     1     4    1
    4     4     5    1
    5     4     6    1
    6     4     7    1
    7     7     8    1
    8     7     9    1
    9     7    10    1
   10    10    11    1
   11    10    12    1
   12    10    13    1
   13    13    14    1
   14    13    15    1
   15    13    16    1
@<TRIPOS>SUBSTRUCTURE
       1 MOL1            1 RESIDUE      1      MOL     
@<SCITEGIC>MOL_PROPERTY
VConf Rank
SciTegic.value.IntegerValue
382

@<SCITEGIC>MOL_PROPERTY
Conf_Id
SciTegic.value.IntegerValue
22

@<SCITEGIC>MOL_PROPERTY
Delta U+W
SciTegic.value.DoubleValue
-1.185

@<SCITEGIC>MOL_PROPERTY
U+W
SciTegic.value.DoubleValue
-58.089

@<SCITEGIC>MOL_PROPERTY
Grad RMS
SciTegic.value.DoubleValue
0.000000

@<SCITEGIC>MOL_PROPERTY
U
SciTegic.value.DoubleValue
6.298

@<SCITEGIC>MOL_PROPERTY
W
SciTegic.value.DoubleValue
-64.387

@<SCITEGIC>MOL_PROPERTY
W(PB)
SciTegic.value.DoubleValue
-66.329

@<SCITEGIC>MOL_PROPERTY
W(SA)
SciTegic.value.DoubleValue
1.942

@<SCITEGIC>MOL_PROPERTY
Valence
SciTegic.value.DoubleValue
6.246

@<SCITEGIC>MOL_PROPERTY
Coulomb
SciTegic.value.DoubleValue
-0.408

@<SCITEGIC>MOL_PROPERTY
VdW
SciTegic.value.DoubleValue
0.460

@<SCITEGIC>MOL_PROPERTY
VdW6
SciTegic.value.DoubleValue
-4.207

@<SCITEGIC>MOL_PROPERTY
VdW12
SciTegic.value.DoubleValue
4.667

@<SCITEGIC>MOL_PROPERTY
Bond
SciTegic.value.DoubleValue
0.072

@<SCITEGIC>MOL_PROPERTY
Angle
SciTegic.value.DoubleValue
2.246

@<SCITEGIC>MOL_PROPERTY
Pdih
SciTegic.value.DoubleValue
3.928

@<SCITEGIC>MOL_PROPERTY
Idih
SciTegic.value.DoubleValue
0.001

@<SCITEGIC>MOL_PROPERTY
Tether
SciTegic.value.DoubleValue
0.000

@<TRIPOS>MOLECULE
guest-s18_confgen4.mol2 : confsearch ligand conformer 383
          16          15           1
SMALL
USER_CHARGES
 
@<TRIPOS>ATOM
       1    C1      20.174561   19.998192   24.423689 C.2        1 MOL1         0.6075
       2    O1      19.552047   20.958027   24.832575 O.co2      1 MOL1        -0.6830
       3    O2      21.187393   19.581227   24.949302 O.co2      1 MOL1        -0.6830
       4    C2      19.668068   19.291232   23.171394 C.3        1 MOL1        -0.2050
       5    H1      18.574133   19.366461   23.156809 H          1 MOL1         0.0710
       6    H2      19.919682   18.228446   23.262464 H          1 MOL1         0.0710
       7    C3      20.261623   19.881843   21.866072 C.3        1 MOL1        -0.1947
       8    H3      20.067462   20.963224   21.847473 H          1 MOL1         0.0712
       9    H4      21.353862   19.762378   21.873191 H          1 MOL1         0.0712
      10    C4      19.675557   19.249853   20.582514 C.3        1 MOL1        -0.1921
      11    H5      20.063694   19.795388   19.711278 H          1 MOL1         0.0712
      12    H6      18.584512   19.379590   20.569520 H          1 MOL1         0.0712
      13    C5      20.022298   17.753605   20.427764 C.3        1 MOL1        -0.2936
      14    H7      19.557592   17.150590   21.217829 H          1 MOL1         0.0724
      15    H8      21.108037   17.595833   20.466860 H          1 MOL1         0.0724
      16    H9      19.660198   17.373683   19.463632 H          1 MOL1         0.0724
@<TRIPOS>BOND
    1     1     2    1
    2     1     3    2
    3     1     4    1
    4     4     5    1
    5     4     6    1
    6     4     7    1
    7     7     8    1
    8     7     9    1
    9     7    10    1
   10    10    11    1
   11    10    12    1
   12    10    13    1
   13    13    14    1
   14    13    15    1
   15    13    16    1
@<TRIPOS>SUBSTRUCTURE
       1 MOL1            1 RESIDUE      1      MOL     
@<SCITEGIC>MOL_PROPERTY
VConf Rank
SciTegic.value.IntegerValue
383

@<SCITEGIC>MOL_PROPERTY
Conf_Id
SciTegic.value.IntegerValue
36

@<SCITEGIC>MOL_PROPERTY
Delta U+W
SciTegic.value.DoubleValue
-0.427

@<SCITEGIC>MOL_PROPERTY
U+W
SciTegic.value.DoubleValue
-57.331

@<SCITEGIC>MOL_PROPERTY
Grad RMS
SciTegic.value.DoubleValue
0.000000

@<SCITEGIC>MOL_PROPERTY
U
SciTegic.value.DoubleValue
7.263

@<SCITEGIC>MOL_PROPERTY
W
SciTegic.value.DoubleValue
-64.594

@<SCITEGIC>MOL_PROPERTY
W(PB)
SciTegic.value.DoubleValue
-66.513

@<SCITEGIC>MOL_PROPERTY
W(SA)
SciTegic.value.DoubleValue
1.920

@<SCITEGIC>MOL_PROPERTY
Valence
SciTegic.value.DoubleValue
6.734

@<SCITEGIC>MOL_PROPERTY
Coulomb
SciTegic.value.DoubleValue
-0.068

@<SCITEGIC>MOL_PROPERTY
VdW
SciTegic.value.DoubleValue
0.598

@<SCITEGIC>MOL_PROPERTY
VdW6
SciTegic.value.DoubleValue
-4.819

@<SCITEGIC>MOL_PROPERTY
VdW12
SciTegic.value.DoubleValue
5.417

@<SCITEGIC>MOL_PROPERTY
Bond
SciTegic.value.DoubleValue
0.107

@<SCITEGIC>MOL_PROPERTY
Angle
SciTegic.value.DoubleValue
2.469

@<SCITEGIC>MOL_PROPERTY
Pdih
SciTegic.value.DoubleValue
4.157

@<SCITEGIC>MOL_PROPERTY
Idih
SciTegic.value.DoubleValue
0.001

@<SCITEGIC>MOL_PROPERTY
Tether
SciTegic.value.DoubleValue
0.000

@<TRIPOS>MOLECULE
guest-s18_confgen4.mol2 : confsearch ligand conformer 384
          16          15           1
SMALL
USER_CHARGES
 
@<TRIPOS>ATOM
       1    C1      17.921825   18.415529   20.575060 C.2        1 MOL1         0.6075
       2    O1      17.105484   17.824518   21.253478 O.co2      1 MOL1        -0.6830
       3    O2      17.960399   18.350708   19.362498 O.co2      1 MOL1        -0.6830
       4    C2      18.967197   19.268974   21.284568 C.3        1 MOL1        -0.2050
       5    H1      18.503992   19.683287   22.187288 H          1 MOL1         0.0710
       6    H2      19.218264   20.113043   20.631054 H          1 MOL1         0.0710
       7    C3      20.248445   18.473327   21.645598 C.3        1 MOL1        -0.1947
       8    H3      19.990974   17.656704   22.334180 H          1 MOL1         0.0712
       9    H4      20.638690   17.999747   20.734083 H          1 MOL1         0.0712
      10    C4      21.361737   19.348348   22.266345 C.3        1 MOL1        -0.1921
      11    H5      21.627596   20.158153   21.572865 H          1 MOL1         0.0712
      12    H6      22.265364   18.735451   22.389330 H          1 MOL1         0.0712
      13    C5      20.974430   19.944512   23.636569 C.3        1 MOL1        -0.2936
      14    H7      20.143457   20.654963   23.544233 H          1 MOL1         0.0724
      15    H8      21.824705   20.483116   24.074686 H          1 MOL1         0.0724
      16    H9      20.676730   19.154758   24.338646 H          1 MOL1         0.0724
@<TRIPOS>BOND
    1     1     2    1
    2     1     3    2
    3     1     4    1
    4     4     5    1
    5     4     6    1
    6     4     7    1
    7     7     8    1
    8     7     9    1
    9     7    10    1
   10    10    11    1
   11    10    12    1
   12    10    13    1
   13    13    14    1
   14    13    15    1
   15    13    16    1
@<TRIPOS>SUBSTRUCTURE
       1 MOL1            1 RESIDUE      1      MOL     
@<SCITEGIC>MOL_PROPERTY
VConf Rank
SciTegic.value.IntegerValue
384

@<SCITEGIC>MOL_PROPERTY
Conf_Id
SciTegic.value.IntegerValue
17

@<SCITEGIC>MOL_PROPERTY
Delta U+W
SciTegic.value.DoubleValue
-0.432

@<SCITEGIC>MOL_PROPERTY
U+W
SciTegic.value.DoubleValue
-57.336

@<SCITEGIC>MOL_PROPERTY
Grad RMS
SciTegic.value.DoubleValue
0.000000

@<SCITEGIC>MOL_PROPERTY
U
SciTegic.value.DoubleValue
7.263

@<SCITEGIC>MOL_PROPERTY
W
SciTegic.value.DoubleValue
-64.599

@<SCITEGIC>MOL_PROPERTY
W(PB)
SciTegic.value.DoubleValue
-66.503

@<SCITEGIC>MOL_PROPERTY
W(SA)
SciTegic.value.DoubleValue
1.904

@<SCITEGIC>MOL_PROPERTY
Valence
SciTegic.value.DoubleValue
6.734

@<SCITEGIC>MOL_PROPERTY
Coulomb
SciTegic.value.DoubleValue
-0.068

@<SCITEGIC>MOL_PROPERTY
VdW
SciTegic.value.DoubleValue
0.598

@<SCITEGIC>MOL_PROPERTY
VdW6
SciTegic.value.DoubleValue
-4.819

@<SCITEGIC>MOL_PROPERTY
VdW12
SciTegic.value.DoubleValue
5.417

@<SCITEGIC>MOL_PROPERTY
Bond
SciTegic.value.DoubleValue
0.107

@<SCITEGIC>MOL_PROPERTY
Angle
SciTegic.value.DoubleValue
2.469

@<SCITEGIC>MOL_PROPERTY
Pdih
SciTegic.value.DoubleValue
4.157

@<SCITEGIC>MOL_PROPERTY
Idih
SciTegic.value.DoubleValue
0.001

@<SCITEGIC>MOL_PROPERTY
Tether
SciTegic.value.DoubleValue
0.000

@<TRIPOS>MOLECULE
guest-s18_confgen4.mol2 : confsearch ligand conformer 385
          16          15           1
SMALL
USER_CHARGES
 
@<TRIPOS>ATOM
       1    C1      18.406485   20.748392   21.970793 C.2        1 MOL1         0.6075
       2    O1      17.834703   20.927985   23.027748 O.co2      1 MOL1        -0.6830
       3    O2      18.825333   21.650305   21.272667 O.co2      1 MOL1        -0.6830
       4    C2      18.585833   19.312898   21.484291 C.3        1 MOL1        -0.2050
       5    H1      18.785125   19.330538   20.405841 H          1 MOL1         0.0710
       6    H2      17.627583   18.797858   21.621127 H          1 MOL1         0.0710
       7    C3      19.703282   18.530455   22.221940 C.3        1 MOL1        -0.1947
       8    H3      19.505749   18.545588   23.302854 H          1 MOL1         0.0712
       9    H4      19.667859   17.478208   21.908762 H          1 MOL1         0.0712
      10    C4      21.111232   19.098050   21.939640 C.3        1 MOL1        -0.1921
      11    H5      21.164782   20.145424   22.268065 H          1 MOL1         0.0712
      12    H6      21.302429   19.093819   20.857603 H          1 MOL1         0.0712
      13    C5      22.204966   18.282291   22.657015 C.3        1 MOL1        -0.2936
      14    H7      22.054849   18.295855   23.744549 H          1 MOL1         0.0724
      15    H8      23.198550   18.699071   22.446771 H          1 MOL1         0.0724
      16    H9      22.198340   17.236543   22.322674 H          1 MOL1         0.0724
@<TRIPOS>BOND
    1     1     2    1
    2     1     3    2
    3     1     4    1
    4     4     5    1
    5     4     6    1
    6     4     7    1
    7     7     8    1
    8     7     9    1
    9     7    10    1
   10    10    11    1
   11    10    12    1
   12    10    13    1
   13    13    14    1
   14    13    15    1
   15    13    16    1
@<TRIPOS>SUBSTRUCTURE
       1 MOL1            1 RESIDUE      1      MOL     
@<SCITEGIC>MOL_PROPERTY
VConf Rank
SciTegic.value.IntegerValue
385

@<SCITEGIC>MOL_PROPERTY
Conf_Id
SciTegic.value.IntegerValue
19

@<SCITEGIC>MOL_PROPERTY
Delta U+W
SciTegic.value.DoubleValue
0.048

@<SCITEGIC>MOL_PROPERTY
U+W
SciTegic.value.DoubleValue
-56.856

@<SCITEGIC>MOL_PROPERTY
Grad RMS
SciTegic.value.DoubleValue
0.000000

@<SCITEGIC>MOL_PROPERTY
U
SciTegic.value.DoubleValue
8.276

@<SCITEGIC>MOL_PROPERTY
W
SciTegic.value.DoubleValue
-65.132

@<SCITEGIC>MOL_PROPERTY
W(PB)
SciTegic.value.DoubleValue
-67.031

@<SCITEGIC>MOL_PROPERTY
W(SA)
SciTegic.value.DoubleValue
1.899

@<SCITEGIC>MOL_PROPERTY
Valence
SciTegic.value.DoubleValue
6.513

@<SCITEGIC>MOL_PROPERTY
Coulomb
SciTegic.value.DoubleValue
1.428

@<SCITEGIC>MOL_PROPERTY
VdW
SciTegic.value.DoubleValue
0.335

@<SCITEGIC>MOL_PROPERTY
VdW6
SciTegic.value.DoubleValue
-5.021

@<SCITEGIC>MOL_PROPERTY
VdW12
SciTegic.value.DoubleValue
5.356

@<SCITEGIC>MOL_PROPERTY
Bond
SciTegic.value.DoubleValue
0.092

@<SCITEGIC>MOL_PROPERTY
Angle
SciTegic.value.DoubleValue
2.417

@<SCITEGIC>MOL_PROPERTY
Pdih
SciTegic.value.DoubleValue
4.003

@<SCITEGIC>MOL_PROPERTY
Idih
SciTegic.value.DoubleValue
0.001

@<SCITEGIC>MOL_PROPERTY
Tether
SciTegic.value.DoubleValue
0.000

@<TRIPOS>MOLECULE
guest-s18_confgen4.mol2 : confsearch ligand conformer 386
          16          15           1
SMALL
USER_CHARGES
 
@<TRIPOS>ATOM
       1    C1      20.519896   18.614330   19.881745 C.2        1 MOL1         0.6075
       2    O1      21.702710   18.791509   19.667501 O.co2      1 MOL1        -0.6830
       3    O2      19.637529   19.019496   19.151314 O.co2      1 MOL1        -0.6830
       4    C2      20.124427   17.819682   21.123372 C.3        1 MOL1        -0.2050
       5    H1      20.771932   16.935920   21.167406 H          1 MOL1         0.0710
       6    H2      19.098216   17.454705   20.993884 H          1 MOL1         0.0710
       7    C3      20.245663   18.615954   22.448625 C.3        1 MOL1        -0.1947
       8    H3      20.078250   17.932199   23.291839 H          1 MOL1         0.0712
       9    H4      21.270532   18.999140   22.550776 H          1 MOL1         0.0712
      10    C4      19.239662   19.784253   22.533660 C.3        1 MOL1        -0.1921
      11    H5      18.216208   19.401150   22.418979 H          1 MOL1         0.0712
      12    H6      19.411212   20.486253   21.705717 H          1 MOL1         0.0712
      13    C5      19.358372   20.537373   23.873462 C.3        1 MOL1        -0.2936
      14    H7      19.157594   19.867681   24.719993 H          1 MOL1         0.0724
      15    H8      18.637781   21.364387   23.917205 H          1 MOL1         0.0724
      16    H9      20.364814   20.957646   23.999542 H          1 MOL1         0.0724
@<TRIPOS>BOND
    1     1     2    1
    2     1     3    2
    3     1     4    1
    4     4     5    1
    5     4     6    1
    6     4     7    1
    7     7     8    1
    8     7     9    1
    9     7    10    1
   10    10    11    1
   11    10    12    1
   12    10    13    1
   13    13    14    1
   14    13    15    1
   15    13    16    1
@<TRIPOS>SUBSTRUCTURE
       1 MOL1            1 RESIDUE      1      MOL     
@<SCITEGIC>MOL_PROPERTY
VConf Rank
SciTegic.value.IntegerValue
386

@<SCITEGIC>MOL_PROPERTY
Conf_Id
SciTegic.value.IntegerValue
20

@<SCITEGIC>MOL_PROPERTY
Delta U+W
SciTegic.value.DoubleValue
-0.010

@<SCITEGIC>MOL_PROPERTY
U+W
SciTegic.value.DoubleValue
-56.914

@<SCITEGIC>MOL_PROPERTY
Grad RMS
SciTegic.value.DoubleValue
0.000000

@<SCITEGIC>MOL_PROPERTY
U
SciTegic.value.DoubleValue
8.277

@<SCITEGIC>MOL_PROPERTY
W
SciTegic.value.DoubleValue
-65.191

@<SCITEGIC>MOL_PROPERTY
W(PB)
SciTegic.value.DoubleValue
-67.081

@<SCITEGIC>MOL_PROPERTY
W(SA)
SciTegic.value.DoubleValue
1.890

@<SCITEGIC>MOL_PROPERTY
Valence
SciTegic.value.DoubleValue
6.513

@<SCITEGIC>MOL_PROPERTY
Coulomb
SciTegic.value.DoubleValue
1.429

@<SCITEGIC>MOL_PROPERTY
VdW
SciTegic.value.DoubleValue
0.335

@<SCITEGIC>MOL_PROPERTY
VdW6
SciTegic.value.DoubleValue
-5.021

@<SCITEGIC>MOL_PROPERTY
VdW12
SciTegic.value.DoubleValue
5.356

@<SCITEGIC>MOL_PROPERTY
Bond
SciTegic.value.DoubleValue
0.092

@<SCITEGIC>MOL_PROPERTY
Angle
SciTegic.value.DoubleValue
2.417

@<SCITEGIC>MOL_PROPERTY
Pdih
SciTegic.value.DoubleValue
4.002

@<SCITEGIC>MOL_PROPERTY
Idih
SciTegic.value.DoubleValue
0.001

@<SCITEGIC>MOL_PROPERTY
Tether
SciTegic.value.DoubleValue
0.000

@<TRIPOS>MOLECULE
guest-s18_confgen4.mol2 : confsearch ligand conformer 387
          16          15           1
SMALL
USER_CHARGES
 
@<TRIPOS>ATOM
       1    C1      19.698854   18.366521   20.182959 C.2        1 MOL1         0.6075
       2    O1      20.411324   18.720811   19.264454 O.co2      1 MOL1        -0.6830
       3    O2      18.492959   18.250727   20.089637 O.co2      1 MOL1        -0.6830
       4    C2      20.360367   18.016340   21.513192 C.3        1 MOL1        -0.2050
       5    H1      21.178316   17.319317   21.296402 H          1 MOL1         0.0710
       6    H2      19.640341   17.466977   22.130452 H          1 MOL1         0.0710
       7    C3      20.921926   19.241074   22.286081 C.3        1 MOL1        -0.1947
       8    H3      21.447064   18.889996   23.184605 H          1 MOL1         0.0712
       9    H4      21.678043   19.736140   21.661140 H          1 MOL1         0.0712
      10    C4      19.852703   20.281795   22.695534 C.3        1 MOL1        -0.1921
      11    H5      19.343292   20.667010   21.801270 H          1 MOL1         0.0712
      12    H6      20.356638   21.141339   23.158525 H          1 MOL1         0.0712
      13    C5      18.808356   19.724145   23.685892 C.3        1 MOL1        -0.2936
      14    H7      18.195703   18.941962   23.219702 H          1 MOL1         0.0724
      15    H8      18.131186   20.521435   24.018503 H          1 MOL1         0.0724
      16    H9      19.294530   19.300158   24.574113 H          1 MOL1         0.0724
@<TRIPOS>BOND
    1     1     2    1
    2     1     3    2
    3     1     4    1
    4     4     5    1
    5     4     6    1
    6     4     7    1
    7     7     8    1
    8     7     9    1
    9     7    10    1
   10    10    11    1
   11    10    12    1
   12    10    13    1
   13    13    14    1
   14    13    15    1
   15    13    16    1
@<TRIPOS>SUBSTRUCTURE
       1 MOL1            1 RESIDUE      1      MOL     
@<SCITEGIC>MOL_PROPERTY
VConf Rank
SciTegic.value.IntegerValue
387

@<SCITEGIC>MOL_PROPERTY
Conf_Id
SciTegic.value.IntegerValue
37

@<SCITEGIC>MOL_PROPERTY
Delta U+W
SciTegic.value.DoubleValue
1.063

@<SCITEGIC>MOL_PROPERTY
U+W
SciTegic.value.DoubleValue
-55.841

@<SCITEGIC>MOL_PROPERTY
Grad RMS
SciTegic.value.DoubleValue
0.000000

@<SCITEGIC>MOL_PROPERTY
U
SciTegic.value.DoubleValue
9.719

@<SCITEGIC>MOL_PROPERTY
W
SciTegic.value.DoubleValue
-65.560

@<SCITEGIC>MOL_PROPERTY
W(PB)
SciTegic.value.DoubleValue
-67.414

@<SCITEGIC>MOL_PROPERTY
W(SA)
SciTegic.value.DoubleValue
1.854

@<SCITEGIC>MOL_PROPERTY
Valence
SciTegic.value.DoubleValue
7.002

@<SCITEGIC>MOL_PROPERTY
Coulomb
SciTegic.value.DoubleValue
2.402

@<SCITEGIC>MOL_PROPERTY
VdW
SciTegic.value.DoubleValue
0.314

@<SCITEGIC>MOL_PROPERTY
VdW6
SciTegic.value.DoubleValue
-5.861

@<SCITEGIC>MOL_PROPERTY
VdW12
SciTegic.value.DoubleValue
6.175

@<SCITEGIC>MOL_PROPERTY
Bond
SciTegic.value.DoubleValue
0.134

@<SCITEGIC>MOL_PROPERTY
Angle
SciTegic.value.DoubleValue
2.733

@<SCITEGIC>MOL_PROPERTY
Pdih
SciTegic.value.DoubleValue
4.133

@<SCITEGIC>MOL_PROPERTY
Idih
SciTegic.value.DoubleValue
0.002

@<SCITEGIC>MOL_PROPERTY
Tether
SciTegic.value.DoubleValue
0.000

@<TRIPOS>MOLECULE
guest-s18_confgen4.mol2 : confsearch ligand conformer 388
          16          15           1
SMALL
USER_CHARGES
 
@<TRIPOS>ATOM
       1    C1      21.760555   19.016870   23.576172 C.2        1 MOL1         0.6075
       2    O1      22.927940   19.110543   23.251792 O.co2      1 MOL1        -0.6830
       3    O2      21.278737   19.606158   24.523215 O.co2      1 MOL1        -0.6830
       4    C2      20.862521   18.081917   22.770477 C.3        1 MOL1        -0.2050
       5    H1      19.943246   17.900406   23.339014 H          1 MOL1         0.0710
       6    H2      21.378237   17.117162   22.698585 H          1 MOL1         0.0710
       7    C3      20.530750   18.593447   21.341861 C.3        1 MOL1        -0.1947
       8    H3      21.469317   18.712883   20.783130 H          1 MOL1         0.0712
       9    H4      19.951460   17.826526   20.810235 H          1 MOL1         0.0712
      10    C4      19.755095   19.931801   21.307774 C.3        1 MOL1        -0.1921
      11    H5      19.643053   20.247658   20.261443 H          1 MOL1         0.0712
      12    H6      20.340480   20.716701   21.806627 H          1 MOL1         0.0712
      13    C5      18.355876   19.840999   21.953051 C.3        1 MOL1        -0.2936
      14    H7      17.762167   19.038948   21.495569 H          1 MOL1         0.0724
      15    H8      17.810330   20.784186   21.820241 H          1 MOL1         0.0724
      16    H9      18.426535   19.647943   23.031116 H          1 MOL1         0.0724
@<TRIPOS>BOND
    1     1     2    1
    2     1     3    2
    3     1     4    1
    4     4     5    1
    5     4     6    1
    6     4     7    1
    7     7     8    1
    8     7     9    1
    9     7    10    1
   10    10    11    1
   11    10    12    1
   12    10    13    1
   13    13    14    1
   14    13    15    1
   15    13    16    1
@<TRIPOS>SUBSTRUCTURE
       1 MOL1            1 RESIDUE      1      MOL     
@<SCITEGIC>MOL_PROPERTY
VConf Rank
SciTegic.value.IntegerValue
388

@<SCITEGIC>MOL_PROPERTY
Conf_Id
SciTegic.value.IntegerValue
39

@<SCITEGIC>MOL_PROPERTY
Delta U+W
SciTegic.value.DoubleValue
1.129

@<SCITEGIC>MOL_PROPERTY
U+W
SciTegic.value.DoubleValue
-55.775

@<SCITEGIC>MOL_PROPERTY
Grad RMS
SciTegic.value.DoubleValue
0.000000

@<SCITEGIC>MOL_PROPERTY
U
SciTegic.value.DoubleValue
9.718

@<SCITEGIC>MOL_PROPERTY
W
SciTegic.value.DoubleValue
-65.493

@<SCITEGIC>MOL_PROPERTY
W(PB)
SciTegic.value.DoubleValue
-67.361

@<SCITEGIC>MOL_PROPERTY
W(SA)
SciTegic.value.DoubleValue
1.869

@<SCITEGIC>MOL_PROPERTY
Valence
SciTegic.value.DoubleValue
7.002

@<SCITEGIC>MOL_PROPERTY
Coulomb
SciTegic.value.DoubleValue
2.402

@<SCITEGIC>MOL_PROPERTY
VdW
SciTegic.value.DoubleValue
0.314

@<SCITEGIC>MOL_PROPERTY
VdW6
SciTegic.value.DoubleValue
-5.861

@<SCITEGIC>MOL_PROPERTY
VdW12
SciTegic.value.DoubleValue
6.175

@<SCITEGIC>MOL_PROPERTY
Bond
SciTegic.value.DoubleValue
0.134

@<SCITEGIC>MOL_PROPERTY
Angle
SciTegic.value.DoubleValue
2.734

@<SCITEGIC>MOL_PROPERTY
Pdih
SciTegic.value.DoubleValue
4.133

@<SCITEGIC>MOL_PROPERTY
Idih
SciTegic.value.DoubleValue
0.002

@<SCITEGIC>MOL_PROPERTY
Tether
SciTegic.value.DoubleValue
0.000

@<TRIPOS>MOLECULE
guest-s18_confgen4.mol2 : confsearch ligand conformer 389
          16          15           1
SMALL
USER_CHARGES
 
@<TRIPOS>ATOM
       1    C1      18.010619   19.532523   21.809331 C.2        1 MOL1         0.6075
       2    O1      17.234083   19.037305   22.602156 O.co2      1 MOL1        -0.6830
       3    O2      17.875283   19.455712   20.603950 O.co2      1 MOL1        -0.6830
       4    C2      19.164784   20.369732   22.357638 C.3        1 MOL1        -0.2050
       5    H1      19.094797   20.400778   23.451766 H          1 MOL1         0.0710
       6    H2      18.998542   21.393965   22.003999 H          1 MOL1         0.0710
       7    C3      20.584631   19.909771   21.922377 C.3        1 MOL1        -0.1947
       8    H3      20.591563   19.682805   20.847212 H          1 MOL1         0.0712
       9    H4      21.271389   20.756282   22.057413 H          1 MOL1         0.0712
      10    C4      21.150016   18.711288   22.722090 C.3        1 MOL1        -0.1921
      11    H5      21.139553   18.941397   23.796414 H          1 MOL1         0.0712
      12    H6      22.204893   18.576172   22.445919 H          1 MOL1         0.0712
      13    C5      20.404600   17.384571   22.468194 C.3        1 MOL1        -0.2936
      14    H7      19.388087   17.412530   22.879192 H          1 MOL1         0.0724
      15    H8      20.931653   16.550097   22.948440 H          1 MOL1         0.0724
      16    H9      20.336794   17.169890   21.393650 H          1 MOL1         0.0724
@<TRIPOS>BOND
    1     1     2    1
    2     1     3    2
    3     1     4    1
    4     4     5    1
    5     4     6    1
    6     4     7    1
    7     7     8    1
    8     7     9    1
    9     7    10    1
   10    10    11    1
   11    10    12    1
   12    10    13    1
   13    13    14    1
   14    13    15    1
   15    13    16    1
@<TRIPOS>SUBSTRUCTURE
       1 MOL1            1 RESIDUE      1      MOL     
@<SCITEGIC>MOL_PROPERTY
VConf Rank
SciTegic.value.IntegerValue
389

@<SCITEGIC>MOL_PROPERTY
Conf_Id
SciTegic.value.IntegerValue
47

@<SCITEGIC>MOL_PROPERTY
Delta U+W
SciTegic.value.DoubleValue
2.301

@<SCITEGIC>MOL_PROPERTY
U+W
SciTegic.value.DoubleValue
-54.603

@<SCITEGIC>MOL_PROPERTY
Grad RMS
SciTegic.value.DoubleValue
0.000000

@<SCITEGIC>MOL_PROPERTY
U
SciTegic.value.DoubleValue
11.258

@<SCITEGIC>MOL_PROPERTY
W
SciTegic.value.DoubleValue
-65.861

@<SCITEGIC>MOL_PROPERTY
W(PB)
SciTegic.value.DoubleValue
-67.702

@<SCITEGIC>MOL_PROPERTY
W(SA)
SciTegic.value.DoubleValue
1.841

@<SCITEGIC>MOL_PROPERTY
Valence
SciTegic.value.DoubleValue
8.169

@<SCITEGIC>MOL_PROPERTY
Coulomb
SciTegic.value.DoubleValue
2.735

@<SCITEGIC>MOL_PROPERTY
VdW
SciTegic.value.DoubleValue
0.355

@<SCITEGIC>MOL_PROPERTY
VdW6
SciTegic.value.DoubleValue
-6.245

@<SCITEGIC>MOL_PROPERTY
VdW12
SciTegic.value.DoubleValue
6.600

@<SCITEGIC>MOL_PROPERTY
Bond
SciTegic.value.DoubleValue
0.149

@<SCITEGIC>MOL_PROPERTY
Angle
SciTegic.value.DoubleValue
3.168

@<SCITEGIC>MOL_PROPERTY
Pdih
SciTegic.value.DoubleValue
4.840

@<SCITEGIC>MOL_PROPERTY
Idih
SciTegic.value.DoubleValue
0.011

@<SCITEGIC>MOL_PROPERTY
Tether
SciTegic.value.DoubleValue
0.000

@<TRIPOS>MOLECULE
guest-s18_confgen4.mol2 : confsearch ligand conformer 390
          16          15           1
SMALL
USER_CHARGES
 
@<TRIPOS>ATOM
       1    C1      21.067047   18.293282   23.640666 C.2        1 MOL1         0.6075
       2    O1      21.591736   19.183532   24.280445 O.co2      1 MOL1        -0.6830
       3    O2      21.678945   17.347237   23.185258 O.co2      1 MOL1        -0.6830
       4    C2      19.548422   18.316272   23.476606 C.3        1 MOL1        -0.2050
       5    H1      19.127698   18.253724   24.486966 H          1 MOL1         0.0710
       6    H2      19.232719   17.408038   22.948949 H          1 MOL1         0.0710
       7    C3      18.975612   19.576235   22.768532 C.3        1 MOL1        -0.1947
       8    H3      17.911415   19.656641   23.028291 H          1 MOL1         0.0712
       9    H4      19.454164   20.480833   23.168820 H          1 MOL1         0.0712
      10    C4      19.084282   19.556435   21.224719 C.3        1 MOL1        -0.1921
      11    H5      18.512870   20.405766   20.825446 H          1 MOL1         0.0712
      12    H6      18.606392   18.649796   20.828666 H          1 MOL1         0.0712
      13    C5      20.531998   19.651547   20.699973 C.3        1 MOL1        -0.2936
      14    H7      20.537732   19.773873   19.609206 H          1 MOL1         0.0724
      15    H8      21.101709   18.743671   20.932764 H          1 MOL1         0.0724
      16    H9      21.055414   20.510136   21.140641 H          1 MOL1         0.0724
@<TRIPOS>BOND
    1     1     2    1
    2     1     3    2
    3     1     4    1
    4     4     5    1
    5     4     6    1
    6     4     7    1
    7     7     8    1
    8     7     9    1
    9     7    10    1
   10    10    11    1
   11    10    12    1
   12    10    13    1
   13    13    14    1
   14    13    15    1
   15    13    16    1
@<TRIPOS>SUBSTRUCTURE
       1 MOL1            1 RESIDUE      1      MOL     
@<SCITEGIC>MOL_PROPERTY
VConf Rank
SciTegic.value.IntegerValue
390

@<SCITEGIC>MOL_PROPERTY
Conf_Id
SciTegic.value.IntegerValue
45

@<SCITEGIC>MOL_PROPERTY
Delta U+W
SciTegic.value.DoubleValue
2.303

@<SCITEGIC>MOL_PROPERTY
U+W
SciTegic.value.DoubleValue
-54.601

@<SCITEGIC>MOL_PROPERTY
Grad RMS
SciTegic.value.DoubleValue
0.000000

@<SCITEGIC>MOL_PROPERTY
U
SciTegic.value.DoubleValue
11.258

@<SCITEGIC>MOL_PROPERTY
W
SciTegic.value.DoubleValue
-65.860

@<SCITEGIC>MOL_PROPERTY
W(PB)
SciTegic.value.DoubleValue
-67.709

@<SCITEGIC>MOL_PROPERTY
W(SA)
SciTegic.value.DoubleValue
1.849

@<SCITEGIC>MOL_PROPERTY
Valence
SciTegic.value.DoubleValue
8.169

@<SCITEGIC>MOL_PROPERTY
Coulomb
SciTegic.value.DoubleValue
2.735

@<SCITEGIC>MOL_PROPERTY
VdW
SciTegic.value.DoubleValue
0.355

@<SCITEGIC>MOL_PROPERTY
VdW6
SciTegic.value.DoubleValue
-6.245

@<SCITEGIC>MOL_PROPERTY
VdW12
SciTegic.value.DoubleValue
6.600

@<SCITEGIC>MOL_PROPERTY
Bond
SciTegic.value.DoubleValue
0.149

@<SCITEGIC>MOL_PROPERTY
Angle
SciTegic.value.DoubleValue
3.168

@<SCITEGIC>MOL_PROPERTY
Pdih
SciTegic.value.DoubleValue
4.840

@<SCITEGIC>MOL_PROPERTY
Idih
SciTegic.value.DoubleValue
0.011

@<SCITEGIC>MOL_PROPERTY
Tether
SciTegic.value.DoubleValue
0.000

@<TRIPOS>MOLECULE
guest-s18_confgen4.mol2 : confsearch ligand conformer 391
          16          15           1
SMALL
USER_CHARGES
 
@<TRIPOS>ATOM
       1    C1      20.448239   20.590627   24.220647 C.2        1 MOL1         0.6075
       2    O1      19.310663   20.475021   24.633361 O.co2      1 MOL1        -0.6830
       3    O2      21.309651   21.205466   24.816680 O.co2      1 MOL1        -0.6830
       4    C2      20.844429   19.943779   22.892296 C.3        1 MOL1        -0.2050
       5    H1      21.683284   19.267464   23.094981 H          1 MOL1         0.0710
       6    H2      21.224449   20.739851   22.241130 H          1 MOL1         0.0710
       7    C3      19.711576   19.170043   22.166814 C.3        1 MOL1        -0.1947
       8    H3      19.331195   18.377452   22.826041 H          1 MOL1         0.0712
       9    H4      18.871901   19.851358   21.971298 H          1 MOL1         0.0712
      10    C4      20.198283   18.551866   20.839324 C.3        1 MOL1        -0.1921
      11    H5      21.036913   17.868908   21.033660 H          1 MOL1         0.0712
      12    H6      20.577349   19.343690   20.178396 H          1 MOL1         0.0712
      13    C5      19.068876   17.784851   20.123594 C.3        1 MOL1        -0.2936
      14    H7      18.691798   16.966020   20.750329 H          1 MOL1         0.0724
      15    H8      19.431482   17.351906   19.182204 H          1 MOL1         0.0724
      16    H9      18.228840   18.451678   19.888752 H          1 MOL1         0.0724
@<TRIPOS>BOND
    1     1     2    1
    2     1     3    2
    3     1     4    1
    4     4     5    1
    5     4     6    1
    6     4     7    1
    7     7     8    1
    8     7     9    1
    9     7    10    1
   10    10    11    1
   11    10    12    1
   12    10    13    1
   13    13    14    1
   14    13    15    1
   15    13    16    1
@<TRIPOS>SUBSTRUCTURE
       1 MOL1            1 RESIDUE      1      MOL     
@<SCITEGIC>MOL_PROPERTY
VConf Rank
SciTegic.value.IntegerValue
391

@<SCITEGIC>MOL_PROPERTY
Conf_Id
SciTegic.value.IntegerValue
0

@<SCITEGIC>MOL_PROPERTY
Delta U+W
SciTegic.value.DoubleValue
0.000

@<SCITEGIC>MOL_PROPERTY
U+W
SciTegic.value.DoubleValue
-56.904

@<SCITEGIC>MOL_PROPERTY
Grad RMS
SciTegic.value.DoubleValue
0.000000

@<SCITEGIC>MOL_PROPERTY
U
SciTegic.value.DoubleValue
7.329

@<SCITEGIC>MOL_PROPERTY
W
SciTegic.value.DoubleValue
-64.233

@<SCITEGIC>MOL_PROPERTY
W(PB)
SciTegic.value.DoubleValue
-66.148

@<SCITEGIC>MOL_PROPERTY
W(SA)
SciTegic.value.DoubleValue
1.915

@<SCITEGIC>MOL_PROPERTY
Valence
SciTegic.value.DoubleValue
6.755

@<SCITEGIC>MOL_PROPERTY
Coulomb
SciTegic.value.DoubleValue
-0.421

@<SCITEGIC>MOL_PROPERTY
VdW
SciTegic.value.DoubleValue
0.995

@<SCITEGIC>MOL_PROPERTY
VdW6
SciTegic.value.DoubleValue
-4.495

@<SCITEGIC>MOL_PROPERTY
VdW12
SciTegic.value.DoubleValue
5.490

@<SCITEGIC>MOL_PROPERTY
Bond
SciTegic.value.DoubleValue
0.106

@<SCITEGIC>MOL_PROPERTY
Angle
SciTegic.value.DoubleValue
2.715

@<SCITEGIC>MOL_PROPERTY
Pdih
SciTegic.value.DoubleValue
3.934

@<SCITEGIC>MOL_PROPERTY
Idih
SciTegic.value.DoubleValue
0.000

@<SCITEGIC>MOL_PROPERTY
Tether
SciTegic.value.DoubleValue
0.000

@<TRIPOS>MOLECULE
guest-s18_confgen4.mol2 : confsearch ligand conformer 392
          16          15           1
SMALL
USER_CHARGES
 
@<TRIPOS>ATOM
       1    C1      21.282226   16.692916   22.059340 C.2        1 MOL1         0.6075
       2    O1      20.976755   16.010109   23.016578 O.co2      1 MOL1        -0.6830
       3    O2      21.604775   16.233670   20.981890 O.co2      1 MOL1        -0.6830
       4    C2      21.241035   18.209228   22.213233 C.3        1 MOL1        -0.2050
       5    H1      22.020672   18.638394   21.572270 H          1 MOL1         0.0710
       6    H2      21.502778   18.454076   23.249761 H          1 MOL1         0.0710
       7    C3      19.861609   18.814274   21.853840 C.3        1 MOL1        -0.1947
       8    H3      19.608162   18.550168   20.817711 H          1 MOL1         0.0712
       9    H4      19.090226   18.365792   22.495233 H          1 MOL1         0.0712
      10    C4      19.847120   20.348357   22.017974 C.3        1 MOL1        -0.1921
      11    H5      20.617930   20.797272   21.376207 H          1 MOL1         0.0712
      12    H6      20.099899   20.612852   23.054160 H          1 MOL1         0.0712
      13    C5      18.471348   20.943539   21.658650 C.3        1 MOL1        -0.2936
      14    H7      17.685122   20.534836   22.306940 H          1 MOL1         0.0724
      15    H8      18.206969   20.720597   20.616599 H          1 MOL1         0.0724
      16    H9      18.478118   22.034512   21.780637 H          1 MOL1         0.0724
@<TRIPOS>BOND
    1     1     2    1
    2     1     3    2
    3     1     4    1
    4     4     5    1
    5     4     6    1
    6     4     7    1
    7     7     8    1
    8     7     9    1
    9     7    10    1
   10    10    11    1
   11    10    12    1
   12    10    13    1
   13    13    14    1
   14    13    15    1
   15    13    16    1
@<TRIPOS>SUBSTRUCTURE
       1 MOL1            1 RESIDUE      1      MOL     
@<SCITEGIC>MOL_PROPERTY
VConf Rank
SciTegic.value.IntegerValue
392

@<SCITEGIC>MOL_PROPERTY
Conf_Id
SciTegic.value.IntegerValue
22

@<SCITEGIC>MOL_PROPERTY
Delta U+W
SciTegic.value.DoubleValue
-1.185

@<SCITEGIC>MOL_PROPERTY
U+W
SciTegic.value.DoubleValue
-58.089

@<SCITEGIC>MOL_PROPERTY
Grad RMS
SciTegic.value.DoubleValue
0.000000

@<SCITEGIC>MOL_PROPERTY
U
SciTegic.value.DoubleValue
6.298

@<SCITEGIC>MOL_PROPERTY
W
SciTegic.value.DoubleValue
-64.387

@<SCITEGIC>MOL_PROPERTY
W(PB)
SciTegic.value.DoubleValue
-66.329

@<SCITEGIC>MOL_PROPERTY
W(SA)
SciTegic.value.DoubleValue
1.942

@<SCITEGIC>MOL_PROPERTY
Valence
SciTegic.value.DoubleValue
6.246

@<SCITEGIC>MOL_PROPERTY
Coulomb
SciTegic.value.DoubleValue
-0.408

@<SCITEGIC>MOL_PROPERTY
VdW
SciTegic.value.DoubleValue
0.460

@<SCITEGIC>MOL_PROPERTY
VdW6
SciTegic.value.DoubleValue
-4.207

@<SCITEGIC>MOL_PROPERTY
VdW12
SciTegic.value.DoubleValue
4.667

@<SCITEGIC>MOL_PROPERTY
Bond
SciTegic.value.DoubleValue
0.072

@<SCITEGIC>MOL_PROPERTY
Angle
SciTegic.value.DoubleValue
2.246

@<SCITEGIC>MOL_PROPERTY
Pdih
SciTegic.value.DoubleValue
3.928

@<SCITEGIC>MOL_PROPERTY
Idih
SciTegic.value.DoubleValue
0.001

@<SCITEGIC>MOL_PROPERTY
Tether
SciTegic.value.DoubleValue
0.000

@<TRIPOS>MOLECULE
guest-s18_confgen4.mol2 : confsearch ligand conformer 393
          16          15           1
SMALL
USER_CHARGES
 
@<TRIPOS>ATOM
       1    C1      18.832665   17.879149   20.035818 C.2        1 MOL1         0.6075
       2    O1      18.999641   18.192669   18.874002 O.co2      1 MOL1        -0.6830
       3    O2      17.884695   17.227045   20.425783 O.co2      1 MOL1        -0.6830
       4    C2      19.858039   18.346684   21.062751 C.3        1 MOL1        -0.2050
       5    H1      20.837592   18.387844   20.571480 H          1 MOL1         0.0710
       6    H2      19.919059   17.582683   21.846139 H          1 MOL1         0.0710
       7    C3      19.508906   19.728142   21.674856 C.3        1 MOL1        -0.1947
       8    H3      19.369517   20.450885   20.858987 H          1 MOL1         0.0712
       9    H4      18.546166   19.663435   22.200453 H          1 MOL1         0.0712
      10    C4      20.593370   20.267162   22.636002 C.3        1 MOL1        -0.1921
      11    H5      20.322642   21.288738   22.936663 H          1 MOL1         0.0712
      12    H6      21.553622   20.343076   22.107292 H          1 MOL1         0.0712
      13    C5      20.765887   19.404300   23.904324 C.3        1 MOL1        -0.2936
      14    H7      21.146442   18.404577   23.660372 H          1 MOL1         0.0724
      15    H8      19.811457   19.290193   24.434695 H          1 MOL1         0.0724
      16    H9      21.481015   19.872990   24.592750 H          1 MOL1         0.0724
@<TRIPOS>BOND
    1     1     2    1
    2     1     3    2
    3     1     4    1
    4     4     5    1
    5     4     6    1
    6     4     7    1
    7     7     8    1
    8     7     9    1
    9     7    10    1
   10    10    11    1
   11    10    12    1
   12    10    13    1
   13    13    14    1
   14    13    15    1
   15    13    16    1
@<TRIPOS>SUBSTRUCTURE
       1 MOL1            1 RESIDUE      1      MOL     
@<SCITEGIC>MOL_PROPERTY
VConf Rank
SciTegic.value.IntegerValue
393

@<SCITEGIC>MOL_PROPERTY
Conf_Id
SciTegic.value.IntegerValue
36

@<SCITEGIC>MOL_PROPERTY
Delta U+W
SciTegic.value.DoubleValue
-0.427

@<SCITEGIC>MOL_PROPERTY
U+W
SciTegic.value.DoubleValue
-57.331

@<SCITEGIC>MOL_PROPERTY
Grad RMS
SciTegic.value.DoubleValue
0.000000

@<SCITEGIC>MOL_PROPERTY
U
SciTegic.value.DoubleValue
7.263

@<SCITEGIC>MOL_PROPERTY
W
SciTegic.value.DoubleValue
-64.594

@<SCITEGIC>MOL_PROPERTY
W(PB)
SciTegic.value.DoubleValue
-66.513

@<SCITEGIC>MOL_PROPERTY
W(SA)
SciTegic.value.DoubleValue
1.920

@<SCITEGIC>MOL_PROPERTY
Valence
SciTegic.value.DoubleValue
6.734

@<SCITEGIC>MOL_PROPERTY
Coulomb
SciTegic.value.DoubleValue
-0.068

@<SCITEGIC>MOL_PROPERTY
VdW
SciTegic.value.DoubleValue
0.598

@<SCITEGIC>MOL_PROPERTY
VdW6
SciTegic.value.DoubleValue
-4.819

@<SCITEGIC>MOL_PROPERTY
VdW12
SciTegic.value.DoubleValue
5.417

@<SCITEGIC>MOL_PROPERTY
Bond
SciTegic.value.DoubleValue
0.107

@<SCITEGIC>MOL_PROPERTY
Angle
SciTegic.value.DoubleValue
2.469

@<SCITEGIC>MOL_PROPERTY
Pdih
SciTegic.value.DoubleValue
4.157

@<SCITEGIC>MOL_PROPERTY
Idih
SciTegic.value.DoubleValue
0.001

@<SCITEGIC>MOL_PROPERTY
Tether
SciTegic.value.DoubleValue
0.000

@<TRIPOS>MOLECULE
guest-s18_confgen4.mol2 : confsearch ligand conformer 394
          16          15           1
SMALL
USER_CHARGES
 
@<TRIPOS>ATOM
       1    C1      22.306476   18.092028   22.324300 C.2        1 MOL1         0.6075
       2    O1      23.179184   18.934444   22.255937 O.co2      1 MOL1        -0.6830
       3    O2      22.510497   16.901602   22.192935 O.co2      1 MOL1        -0.6830
       4    C2      20.874422   18.554986   22.568157 C.3        1 MOL1        -0.2050
       5    H1      20.915155   19.449276   23.200377 H          1 MOL1         0.0710
       6    H2      20.357296   17.775381   23.140314 H          1 MOL1         0.0710
       7    C3      20.106425   18.851299   21.253861 C.3        1 MOL1        -0.1947
       8    H3      20.609663   19.662797   20.710233 H          1 MOL1         0.0712
       9    H4      20.158600   17.964752   20.606758 H          1 MOL1         0.0712
      10    C4      18.620735   19.215792   21.478091 C.3        1 MOL1        -0.1921
      11    H5      18.114487   18.399284   22.011390 H          1 MOL1         0.0712
      12    H6      18.126699   19.301627   20.500406 H          1 MOL1         0.0712
      13    C5      18.428403   20.538283   22.250720 C.3        1 MOL1        -0.2936
      14    H7      18.807362   20.461485   23.277498 H          1 MOL1         0.0724
      15    H8      17.363257   20.797412   22.308367 H          1 MOL1         0.0724
      16    H9      18.950628   21.364690   21.751135 H          1 MOL1         0.0724
@<TRIPOS>BOND
    1     1     2    1
    2     1     3    2
    3     1     4    1
    4     4     5    1
    5     4     6    1
    6     4     7    1
    7     7     8    1
    8     7     9    1
    9     7    10    1
   10    10    11    1
   11    10    12    1
   12    10    13    1
   13    13    14    1
   14    13    15    1
   15    13    16    1
@<TRIPOS>SUBSTRUCTURE
       1 MOL1            1 RESIDUE      1      MOL     
@<SCITEGIC>MOL_PROPERTY
VConf Rank
SciTegic.value.IntegerValue
394

@<SCITEGIC>MOL_PROPERTY
Conf_Id
SciTegic.value.IntegerValue
17

@<SCITEGIC>MOL_PROPERTY
Delta U+W
SciTegic.value.DoubleValue
-0.432

@<SCITEGIC>MOL_PROPERTY
U+W
SciTegic.value.DoubleValue
-57.336

@<SCITEGIC>MOL_PROPERTY
Grad RMS
SciTegic.value.DoubleValue
0.000000

@<SCITEGIC>MOL_PROPERTY
U
SciTegic.value.DoubleValue
7.263

@<SCITEGIC>MOL_PROPERTY
W
SciTegic.value.DoubleValue
-64.599

@<SCITEGIC>MOL_PROPERTY
W(PB)
SciTegic.value.DoubleValue
-66.503

@<SCITEGIC>MOL_PROPERTY
W(SA)
SciTegic.value.DoubleValue
1.904

@<SCITEGIC>MOL_PROPERTY
Valence
SciTegic.value.DoubleValue
6.734

@<SCITEGIC>MOL_PROPERTY
Coulomb
SciTegic.value.DoubleValue
-0.068

@<SCITEGIC>MOL_PROPERTY
VdW
SciTegic.value.DoubleValue
0.598

@<SCITEGIC>MOL_PROPERTY
VdW6
SciTegic.value.DoubleValue
-4.819

@<SCITEGIC>MOL_PROPERTY
VdW12
SciTegic.value.DoubleValue
5.417

@<SCITEGIC>MOL_PROPERTY
Bond
SciTegic.value.DoubleValue
0.107

@<SCITEGIC>MOL_PROPERTY
Angle
SciTegic.value.DoubleValue
2.469

@<SCITEGIC>MOL_PROPERTY
Pdih
SciTegic.value.DoubleValue
4.157

@<SCITEGIC>MOL_PROPERTY
Idih
SciTegic.value.DoubleValue
0.001

@<SCITEGIC>MOL_PROPERTY
Tether
SciTegic.value.DoubleValue
0.000

@<TRIPOS>MOLECULE
guest-s18_confgen4.mol2 : confsearch ligand conformer 395
          16          15           1
SMALL
USER_CHARGES
 
@<TRIPOS>ATOM
       1    C1      19.993911   20.594975   20.231498 C.2        1 MOL1         0.6075
       2    O1      19.235547   20.206612   19.365241 O.co2      1 MOL1        -0.6830
       3    O2      19.977751   21.723708   20.680901 O.co2      1 MOL1        -0.6830
       4    C2      21.037819   19.617822   20.765278 C.3        1 MOL1        -0.2050
       5    H1      21.836135   20.189870   21.253679 H          1 MOL1         0.0710
       6    H2      21.490127   19.116497   19.901377 H          1 MOL1         0.0710
       7    C3      20.468332   18.554708   21.740218 C.3        1 MOL1        -0.1947
       8    H3      19.651280   18.009388   21.247598 H          1 MOL1         0.0712
       9    H4      21.252192   17.817662   21.961317 H          1 MOL1         0.0712
      10    C4      19.962771   19.171680   23.062314 C.3        1 MOL1        -0.1921
      11    H5      19.163162   19.896468   22.854870 H          1 MOL1         0.0712
      12    H6      20.777388   19.726971   23.547523 H          1 MOL1         0.0712
      13    C5      19.433746   18.090835   24.025772 C.3        1 MOL1        -0.2936
      14    H7      18.596851   17.540247   23.576429 H          1 MOL1         0.0724
      15    H8      19.077868   18.545825   24.959288 H          1 MOL1         0.0724
      16    H9      20.222219   17.370015   24.279038 H          1 MOL1         0.0724
@<TRIPOS>BOND
    1     1     2    1
    2     1     3    2
    3     1     4    1
    4     4     5    1
    5     4     6    1
    6     4     7    1
    7     7     8    1
    8     7     9    1
    9     7    10    1
   10    10    11    1
   11    10    12    1
   12    10    13    1
   13    13    14    1
   14    13    15    1
   15    13    16    1
@<TRIPOS>SUBSTRUCTURE
       1 MOL1            1 RESIDUE      1      MOL     
@<SCITEGIC>MOL_PROPERTY
VConf Rank
SciTegic.value.IntegerValue
395

@<SCITEGIC>MOL_PROPERTY
Conf_Id
SciTegic.value.IntegerValue
19

@<SCITEGIC>MOL_PROPERTY
Delta U+W
SciTegic.value.DoubleValue
0.048

@<SCITEGIC>MOL_PROPERTY
U+W
SciTegic.value.DoubleValue
-56.856

@<SCITEGIC>MOL_PROPERTY
Grad RMS
SciTegic.value.DoubleValue
0.000000

@<SCITEGIC>MOL_PROPERTY
U
SciTegic.value.DoubleValue
8.276

@<SCITEGIC>MOL_PROPERTY
W
SciTegic.value.DoubleValue
-65.132

@<SCITEGIC>MOL_PROPERTY
W(PB)
SciTegic.value.DoubleValue
-67.031

@<SCITEGIC>MOL_PROPERTY
W(SA)
SciTegic.value.DoubleValue
1.899

@<SCITEGIC>MOL_PROPERTY
Valence
SciTegic.value.DoubleValue
6.513

@<SCITEGIC>MOL_PROPERTY
Coulomb
SciTegic.value.DoubleValue
1.428

@<SCITEGIC>MOL_PROPERTY
VdW
SciTegic.value.DoubleValue
0.335

@<SCITEGIC>MOL_PROPERTY
VdW6
SciTegic.value.DoubleValue
-5.021

@<SCITEGIC>MOL_PROPERTY
VdW12
SciTegic.value.DoubleValue
5.356

@<SCITEGIC>MOL_PROPERTY
Bond
SciTegic.value.DoubleValue
0.092

@<SCITEGIC>MOL_PROPERTY
Angle
SciTegic.value.DoubleValue
2.417

@<SCITEGIC>MOL_PROPERTY
Pdih
SciTegic.value.DoubleValue
4.003

@<SCITEGIC>MOL_PROPERTY
Idih
SciTegic.value.DoubleValue
0.001

@<SCITEGIC>MOL_PROPERTY
Tether
SciTegic.value.DoubleValue
0.000

@<TRIPOS>MOLECULE
guest-s18_confgen4.mol2 : confsearch ligand conformer 396
          16          15           1
SMALL
USER_CHARGES
 
@<TRIPOS>ATOM
       1    C1      21.808231   19.849891   20.926341 C.2        1 MOL1         0.6075
       2    O1      22.229473   20.932903   21.281282 O.co2      1 MOL1        -0.6830
       3    O2      21.638031   19.544559   19.762697 O.co2      1 MOL1        -0.6830
       4    C2      21.499118   18.810557   22.000460 C.3        1 MOL1        -0.2050
       5    H1      22.339340   18.806758   22.704908 H          1 MOL1         0.0710
       6    H2      21.473687   17.819115   21.531971 H          1 MOL1         0.0710
       7    C3      20.179171   19.071757   22.771537 C.3        1 MOL1        -0.1947
       8    H3      20.108949   18.363390   23.608103 H          1 MOL1         0.0712
       9    H4      20.207317   20.078549   23.211083 H          1 MOL1         0.0712
      10    C4      18.929629   18.926847   21.876084 C.3        1 MOL1        -0.1921
      11    H5      18.909397   17.923966   21.427533 H          1 MOL1         0.0712
      12    H6      18.979090   19.645581   21.046205 H          1 MOL1         0.0712
      13    C5      17.631165   19.158166   22.674102 C.3        1 MOL1        -0.2936
      14    H7      17.536969   18.430755   23.491056 H          1 MOL1         0.0724
      15    H8      16.753436   19.052502   22.023300 H          1 MOL1         0.0724
      16    H9      17.611796   20.166381   23.108359 H          1 MOL1         0.0724
@<TRIPOS>BOND
    1     1     2    1
    2     1     3    2
    3     1     4    1
    4     4     5    1
    5     4     6    1
    6     4     7    1
    7     7     8    1
    8     7     9    1
    9     7    10    1
   10    10    11    1
   11    10    12    1
   12    10    13    1
   13    13    14    1
   14    13    15    1
   15    13    16    1
@<TRIPOS>SUBSTRUCTURE
       1 MOL1            1 RESIDUE      1      MOL     
@<SCITEGIC>MOL_PROPERTY
VConf Rank
SciTegic.value.IntegerValue
396

@<SCITEGIC>MOL_PROPERTY
Conf_Id
SciTegic.value.IntegerValue
20

@<SCITEGIC>MOL_PROPERTY
Delta U+W
SciTegic.value.DoubleValue
-0.010

@<SCITEGIC>MOL_PROPERTY
U+W
SciTegic.value.DoubleValue
-56.914

@<SCITEGIC>MOL_PROPERTY
Grad RMS
SciTegic.value.DoubleValue
0.000000

@<SCITEGIC>MOL_PROPERTY
U
SciTegic.value.DoubleValue
8.277

@<SCITEGIC>MOL_PROPERTY
W
SciTegic.value.DoubleValue
-65.191

@<SCITEGIC>MOL_PROPERTY
W(PB)
SciTegic.value.DoubleValue
-67.081

@<SCITEGIC>MOL_PROPERTY
W(SA)
SciTegic.value.DoubleValue
1.890

@<SCITEGIC>MOL_PROPERTY
Valence
SciTegic.value.DoubleValue
6.513

@<SCITEGIC>MOL_PROPERTY
Coulomb
SciTegic.value.DoubleValue
1.429

@<SCITEGIC>MOL_PROPERTY
VdW
SciTegic.value.DoubleValue
0.335

@<SCITEGIC>MOL_PROPERTY
VdW6
SciTegic.value.DoubleValue
-5.021

@<SCITEGIC>MOL_PROPERTY
VdW12
SciTegic.value.DoubleValue
5.356

@<SCITEGIC>MOL_PROPERTY
Bond
SciTegic.value.DoubleValue
0.092

@<SCITEGIC>MOL_PROPERTY
Angle
SciTegic.value.DoubleValue
2.417

@<SCITEGIC>MOL_PROPERTY
Pdih
SciTegic.value.DoubleValue
4.002

@<SCITEGIC>MOL_PROPERTY
Idih
SciTegic.value.DoubleValue
0.001

@<SCITEGIC>MOL_PROPERTY
Tether
SciTegic.value.DoubleValue
0.000

@<TRIPOS>MOLECULE
guest-s18_confgen4.mol2 : confsearch ligand conformer 397
          16          15           1
SMALL
USER_CHARGES
 
@<TRIPOS>ATOM
       1    C1      17.919899   19.196835   21.255968 C.2        1 MOL1         0.6075
       2    O1      17.111799   18.297186   21.375931 O.co2      1 MOL1        -0.6830
       3    O2      18.185999   19.721366   20.192785 O.co2      1 MOL1        -0.6830
       4    C2      18.610505   19.716406   22.514084 C.3        1 MOL1        -0.2050
       5    H1      17.827687   19.923503   23.253129 H          1 MOL1         0.0710
       6    H2      19.082521   20.678582   22.284593 H          1 MOL1         0.0710
       7    C3      19.644396   18.731238   23.124978 C.3        1 MOL1        -0.1947
       8    H3      20.029618   19.150213   24.064359 H          1 MOL1         0.0712
       9    H4      19.127976   17.798973   23.392460 H          1 MOL1         0.0712
      10    C4      20.832580   18.394619   22.192833 C.3        1 MOL1        -0.1921
      11    H5      20.462143   17.942021   21.262494 H          1 MOL1         0.0712
      12    H6      21.457570   17.633228   22.679453 H          1 MOL1         0.0712
      13    C5      21.709992   19.619697   21.858504 C.3        1 MOL1        -0.2936
      14    H7      21.155706   20.355250   21.261665 H          1 MOL1         0.0724
      15    H8      22.588773   19.314530   21.275857 H          1 MOL1         0.0724
      16    H9      22.064435   20.112100   22.773368 H          1 MOL1         0.0724
@<TRIPOS>BOND
    1     1     2    1
    2     1     3    2
    3     1     4    1
    4     4     5    1
    5     4     6    1
    6     4     7    1
    7     7     8    1
    8     7     9    1
    9     7    10    1
   10    10    11    1
   11    10    12    1
   12    10    13    1
   13    13    14    1
   14    13    15    1
   15    13    16    1
@<TRIPOS>SUBSTRUCTURE
       1 MOL1            1 RESIDUE      1      MOL     
@<SCITEGIC>MOL_PROPERTY
VConf Rank
SciTegic.value.IntegerValue
397

@<SCITEGIC>MOL_PROPERTY
Conf_Id
SciTegic.value.IntegerValue
37

@<SCITEGIC>MOL_PROPERTY
Delta U+W
SciTegic.value.DoubleValue
1.063

@<SCITEGIC>MOL_PROPERTY
U+W
SciTegic.value.DoubleValue
-55.841

@<SCITEGIC>MOL_PROPERTY
Grad RMS
SciTegic.value.DoubleValue
0.000000

@<SCITEGIC>MOL_PROPERTY
U
SciTegic.value.DoubleValue
9.719

@<SCITEGIC>MOL_PROPERTY
W
SciTegic.value.DoubleValue
-65.560

@<SCITEGIC>MOL_PROPERTY
W(PB)
SciTegic.value.DoubleValue
-67.414

@<SCITEGIC>MOL_PROPERTY
W(SA)
SciTegic.value.DoubleValue
1.854

@<SCITEGIC>MOL_PROPERTY
Valence
SciTegic.value.DoubleValue
7.002

@<SCITEGIC>MOL_PROPERTY
Coulomb
SciTegic.value.DoubleValue
2.402

@<SCITEGIC>MOL_PROPERTY
VdW
SciTegic.value.DoubleValue
0.314

@<SCITEGIC>MOL_PROPERTY
VdW6
SciTegic.value.DoubleValue
-5.861

@<SCITEGIC>MOL_PROPERTY
VdW12
SciTegic.value.DoubleValue
6.175

@<SCITEGIC>MOL_PROPERTY
Bond
SciTegic.value.DoubleValue
0.134

@<SCITEGIC>MOL_PROPERTY
Angle
SciTegic.value.DoubleValue
2.733

@<SCITEGIC>MOL_PROPERTY
Pdih
SciTegic.value.DoubleValue
4.133

@<SCITEGIC>MOL_PROPERTY
Idih
SciTegic.value.DoubleValue
0.002

@<SCITEGIC>MOL_PROPERTY
Tether
SciTegic.value.DoubleValue
0.000

@<TRIPOS>MOLECULE
guest-s18_confgen4.mol2 : confsearch ligand conformer 398
          16          15           1
SMALL
USER_CHARGES
 
@<TRIPOS>ATOM
       1    C1      21.549870   20.542296   21.370476 C.2        1 MOL1         0.6075
       2    O1      21.524864   21.729828   21.627243 O.co2      1 MOL1        -0.6830
       3    O2      22.564122   19.873560   21.390098 O.co2      1 MOL1        -0.6830
       4    C2      20.242277   19.865172   20.968669 C.3        1 MOL1        -0.2050
       5    H1      20.473513   18.895018   20.514160 H          1 MOL1         0.0710
       6    H2      19.788017   20.476594   20.180194 H          1 MOL1         0.0710
       7    C3      19.229261   19.696318   22.133988 C.3        1 MOL1        -0.1947
       8    H3      18.978617   20.690041   22.530278 H          1 MOL1         0.0712
       9    H4      18.293666   19.277075   21.739946 H          1 MOL1         0.0712
      10    C4      19.735478   18.808229   23.295468 C.3        1 MOL1        -0.1921
      11    H5      18.986888   18.819183   24.099595 H          1 MOL1         0.0712
      12    H6      20.653345   19.236491   23.721741 H          1 MOL1         0.0712
      13    C5      19.993682   17.345583   22.875421 C.3        1 MOL1        -0.2936
      14    H7      19.100860   16.904779   22.413224 H          1 MOL1         0.0724
      15    H8      20.258374   16.736565   23.749432 H          1 MOL1         0.0724
      16    H9      20.823464   17.277417   22.160367 H          1 MOL1         0.0724
@<TRIPOS>BOND
    1     1     2    1
    2     1     3    2
    3     1     4    1
    4     4     5    1
    5     4     6    1
    6     4     7    1
    7     7     8    1
    8     7     9    1
    9     7    10    1
   10    10    11    1
   11    10    12    1
   12    10    13    1
   13    13    14    1
   14    13    15    1
   15    13    16    1
@<TRIPOS>SUBSTRUCTURE
       1 MOL1            1 RESIDUE      1      MOL     
@<SCITEGIC>MOL_PROPERTY
VConf Rank
SciTegic.value.IntegerValue
398

@<SCITEGIC>MOL_PROPERTY
Conf_Id
SciTegic.value.IntegerValue
39

@<SCITEGIC>MOL_PROPERTY
Delta U+W
SciTegic.value.DoubleValue
1.129

@<SCITEGIC>MOL_PROPERTY
U+W
SciTegic.value.DoubleValue
-55.775

@<SCITEGIC>MOL_PROPERTY
Grad RMS
SciTegic.value.DoubleValue
0.000000

@<SCITEGIC>MOL_PROPERTY
U
SciTegic.value.DoubleValue
9.718

@<SCITEGIC>MOL_PROPERTY
W
SciTegic.value.DoubleValue
-65.493

@<SCITEGIC>MOL_PROPERTY
W(PB)
SciTegic.value.DoubleValue
-67.361

@<SCITEGIC>MOL_PROPERTY
W(SA)
SciTegic.value.DoubleValue
1.869

@<SCITEGIC>MOL_PROPERTY
Valence
SciTegic.value.DoubleValue
7.002

@<SCITEGIC>MOL_PROPERTY
Coulomb
SciTegic.value.DoubleValue
2.402

@<SCITEGIC>MOL_PROPERTY
VdW
SciTegic.value.DoubleValue
0.314

@<SCITEGIC>MOL_PROPERTY
VdW6
SciTegic.value.DoubleValue
-5.861

@<SCITEGIC>MOL_PROPERTY
VdW12
SciTegic.value.DoubleValue
6.175

@<SCITEGIC>MOL_PROPERTY
Bond
SciTegic.value.DoubleValue
0.134

@<SCITEGIC>MOL_PROPERTY
Angle
SciTegic.value.DoubleValue
2.734

@<SCITEGIC>MOL_PROPERTY
Pdih
SciTegic.value.DoubleValue
4.133

@<SCITEGIC>MOL_PROPERTY
Idih
SciTegic.value.DoubleValue
0.002

@<SCITEGIC>MOL_PROPERTY
Tether
SciTegic.value.DoubleValue
0.000

@<TRIPOS>MOLECULE
guest-s18_confgen4.mol2 : confsearch ligand conformer 399
          16          15           1
SMALL
USER_CHARGES
 
@<TRIPOS>ATOM
       1    C1      17.992282   19.113762   21.681630 C.2        1 MOL1         0.6075
       2    O1      17.690834   20.200187   21.228163 O.co2      1 MOL1        -0.6830
       3    O2      17.321319   18.523541   22.505405 O.co2      1 MOL1        -0.6830
       4    C2      19.229952   18.416320   21.120020 C.3        1 MOL1        -0.2050
       5    H1      19.669745   19.045784   20.336862 H          1 MOL1         0.0710
       6    H2      18.873360   17.505027   20.625919 H          1 MOL1         0.0710
       7    C3      20.309713   18.031449   22.170244 C.3        1 MOL1        -0.1947
       8    H3      19.831624   17.580223   23.050793 H          1 MOL1         0.0712
       9    H4      20.942384   17.246703   21.733949 H          1 MOL1         0.0712
      10    C4      21.233347   19.194894   22.604822 C.3        1 MOL1        -0.1921
      11    H5      21.707776   19.644480   21.721634 H          1 MOL1         0.0712
      12    H6      22.047889   18.781999   23.215831 H          1 MOL1         0.0712
      13    C5      20.515793   20.289183   23.422094 C.3        1 MOL1        -0.2936
      14    H7      19.802154   20.846611   22.803230 H          1 MOL1         0.0724
      15    H8      21.241961   21.010359   23.818772 H          1 MOL1         0.0724
      16    H9      19.971156   19.854295   24.270371 H          1 MOL1         0.0724
@<TRIPOS>BOND
    1     1     2    1
    2     1     3    2
    3     1     4    1
    4     4     5    1
    5     4     6    1
    6     4     7    1
    7     7     8    1
    8     7     9    1
    9     7    10    1
   10    10    11    1
   11    10    12    1
   12    10    13    1
   13    13    14    1
   14    13    15    1
   15    13    16    1
@<TRIPOS>SUBSTRUCTURE
       1 MOL1            1 RESIDUE      1      MOL     
@<SCITEGIC>MOL_PROPERTY
VConf Rank
SciTegic.value.IntegerValue
399

@<SCITEGIC>MOL_PROPERTY
Conf_Id
SciTegic.value.IntegerValue
47

@<SCITEGIC>MOL_PROPERTY
Delta U+W
SciTegic.value.DoubleValue
2.301

@<SCITEGIC>MOL_PROPERTY
U+W
SciTegic.value.DoubleValue
-54.603

@<SCITEGIC>MOL_PROPERTY
Grad RMS
SciTegic.value.DoubleValue
0.000000

@<SCITEGIC>MOL_PROPERTY
U
SciTegic.value.DoubleValue
11.258

@<SCITEGIC>MOL_PROPERTY
W
SciTegic.value.DoubleValue
-65.861

@<SCITEGIC>MOL_PROPERTY
W(PB)
SciTegic.value.DoubleValue
-67.702

@<SCITEGIC>MOL_PROPERTY
W(SA)
SciTegic.value.DoubleValue
1.841

@<SCITEGIC>MOL_PROPERTY
Valence
SciTegic.value.DoubleValue
8.169

@<SCITEGIC>MOL_PROPERTY
Coulomb
SciTegic.value.DoubleValue
2.735

@<SCITEGIC>MOL_PROPERTY
VdW
SciTegic.value.DoubleValue
0.355

@<SCITEGIC>MOL_PROPERTY
VdW6
SciTegic.value.DoubleValue
-6.245

@<SCITEGIC>MOL_PROPERTY
VdW12
SciTegic.value.DoubleValue
6.600

@<SCITEGIC>MOL_PROPERTY
Bond
SciTegic.value.DoubleValue
0.149

@<SCITEGIC>MOL_PROPERTY
Angle
SciTegic.value.DoubleValue
3.168

@<SCITEGIC>MOL_PROPERTY
Pdih
SciTegic.value.DoubleValue
4.840

@<SCITEGIC>MOL_PROPERTY
Idih
SciTegic.value.DoubleValue
0.011

@<SCITEGIC>MOL_PROPERTY
Tether
SciTegic.value.DoubleValue
0.000

@<TRIPOS>MOLECULE
guest-s18_confgen4.mol2 : confsearch ligand conformer 400
          16          15           1
SMALL
USER_CHARGES
 
@<TRIPOS>ATOM
       1    C1      19.813729   17.261673   23.007304 C.2        1 MOL1         0.6075
       2    O1      20.557810   17.202334   23.966460 O.co2      1 MOL1        -0.6830
       3    O2      19.800187   16.432093   22.119367 O.co2      1 MOL1        -0.6830
       4    C2      18.780898   18.386226   22.959280 C.3        1 MOL1        -0.2050
       5    H1      18.136977   18.251752   23.836224 H          1 MOL1         0.0710
       6    H2      18.142999   18.247463   22.077913 H          1 MOL1         0.0710
       7    C3      19.365572   19.826633   22.978619 C.3        1 MOL1        -0.1947
       8    H3      18.570260   20.510936   23.303676 H          1 MOL1         0.0712
       9    H4      20.156708   19.899507   23.737785 H          1 MOL1         0.0712
      10    C4      19.891846   20.329723   21.612787 C.3        1 MOL1        -0.1921
      11    H5      20.128974   21.398684   21.704371 H          1 MOL1         0.0712
      12    H6      19.098650   20.253518   20.856306 H          1 MOL1         0.0712
      13    C5      21.152599   19.590034   21.119183 C.3        1 MOL1        -0.2936
      14    H7      21.558304   20.078297   20.223766 H          1 MOL1         0.0724
      15    H8      20.927301   18.549909   20.853889 H          1 MOL1         0.0724
      16    H9      21.935340   19.588236   21.889016 H          1 MOL1         0.0724
@<TRIPOS>BOND
    1     1     2    1
    2     1     3    2
    3     1     4    1
    4     4     5    1
    5     4     6    1
    6     4     7    1
    7     7     8    1
    8     7     9    1
    9     7    10    1
   10    10    11    1
   11    10    12    1
   12    10    13    1
   13    13    14    1
   14    13    15    1
   15    13    16    1
@<TRIPOS>SUBSTRUCTURE
       1 MOL1            1 RESIDUE      1      MOL     
@<SCITEGIC>MOL_PROPERTY
VConf Rank
SciTegic.value.IntegerValue
400

@<SCITEGIC>MOL_PROPERTY
Conf_Id
SciTegic.value.IntegerValue
45

@<SCITEGIC>MOL_PROPERTY
Delta U+W
SciTegic.value.DoubleValue
2.303

@<SCITEGIC>MOL_PROPERTY
U+W
SciTegic.value.DoubleValue
-54.601

@<SCITEGIC>MOL_PROPERTY
Grad RMS
SciTegic.value.DoubleValue
0.000000

@<SCITEGIC>MOL_PROPERTY
U
SciTegic.value.DoubleValue
11.258

@<SCITEGIC>MOL_PROPERTY
W
SciTegic.value.DoubleValue
-65.860

@<SCITEGIC>MOL_PROPERTY
W(PB)
SciTegic.value.DoubleValue
-67.709

@<SCITEGIC>MOL_PROPERTY
W(SA)
SciTegic.value.DoubleValue
1.849

@<SCITEGIC>MOL_PROPERTY
Valence
SciTegic.value.DoubleValue
8.169

@<SCITEGIC>MOL_PROPERTY
Coulomb
SciTegic.value.DoubleValue
2.735

@<SCITEGIC>MOL_PROPERTY
VdW
SciTegic.value.DoubleValue
0.355

@<SCITEGIC>MOL_PROPERTY
VdW6
SciTegic.value.DoubleValue
-6.245

@<SCITEGIC>MOL_PROPERTY
VdW12
SciTegic.value.DoubleValue
6.600

@<SCITEGIC>MOL_PROPERTY
Bond
SciTegic.value.DoubleValue
0.149

@<SCITEGIC>MOL_PROPERTY
Angle
SciTegic.value.DoubleValue
3.168

@<SCITEGIC>MOL_PROPERTY
Pdih
SciTegic.value.DoubleValue
4.840

@<SCITEGIC>MOL_PROPERTY
Idih
SciTegic.value.DoubleValue
0.011

@<SCITEGIC>MOL_PROPERTY
Tether
SciTegic.value.DoubleValue
0.000

@<TRIPOS>MOLECULE
guest-s18_confgen4.mol2 : confsearch ligand conformer 401
          16          15           1
SMALL
USER_CHARGES
 
@<TRIPOS>ATOM
       1    C1      19.076682   16.520229   21.949491 C.2        1 MOL1         0.6075
       2    O1      20.177989   16.029884   22.105893 O.co2      1 MOL1        -0.6830
       3    O2      18.062957   15.856990   21.861234 O.co2      1 MOL1        -0.6830
       4    C2      18.927440   18.039688   21.855335 C.3        1 MOL1        -0.2050
       5    H1      18.233815   18.349988   22.645752 H          1 MOL1         0.0710
       6    H2      18.442390   18.262154   20.897526 H          1 MOL1         0.0710
       7    C3      20.248851   18.844976   21.972524 C.3        1 MOL1        -0.1947
       8    H3      20.732906   18.613868   22.931559 H          1 MOL1         0.0712
       9    H4      20.941682   18.525954   21.181525 H          1 MOL1         0.0712
      10    C4      20.005328   20.365122   21.867115 C.3        1 MOL1        -0.1921
      11    H5      19.313946   20.685784   22.658738 H          1 MOL1         0.0712
      12    H6      19.522846   20.597831   20.907658 H          1 MOL1         0.0712
      13    C5      21.321228   21.159375   21.984208 C.3        1 MOL1        -0.2936
      14    H7      21.810021   20.969514   22.948834 H          1 MOL1         0.0724
      15    H8      21.130382   22.237707   21.907280 H          1 MOL1         0.0724
      16    H9      22.020466   20.880916   21.184836 H          1 MOL1         0.0724
@<TRIPOS>BOND
    1     1     2    1
    2     1     3    2
    3     1     4    1
    4     4     5    1
    5     4     6    1
    6     4     7    1
    7     7     8    1
    8     7     9    1
    9     7    10    1
   10    10    11    1
   11    10    12    1
   12    10    13    1
   13    13    14    1
   14    13    15    1
   15    13    16    1
@<TRIPOS>SUBSTRUCTURE
       1 MOL1            1 RESIDUE      1      MOL     
@<SCITEGIC>MOL_PROPERTY
VConf Rank
SciTegic.value.IntegerValue
401

@<SCITEGIC>MOL_PROPERTY
Conf_Id
SciTegic.value.IntegerValue
0

@<SCITEGIC>MOL_PROPERTY
Delta U+W
SciTegic.value.DoubleValue
0.000

@<SCITEGIC>MOL_PROPERTY
U+W
SciTegic.value.DoubleValue
-56.904

@<SCITEGIC>MOL_PROPERTY
Grad RMS
SciTegic.value.DoubleValue
0.000000

@<SCITEGIC>MOL_PROPERTY
U
SciTegic.value.DoubleValue
7.329

@<SCITEGIC>MOL_PROPERTY
W
SciTegic.value.DoubleValue
-64.233

@<SCITEGIC>MOL_PROPERTY
W(PB)
SciTegic.value.DoubleValue
-66.148

@<SCITEGIC>MOL_PROPERTY
W(SA)
SciTegic.value.DoubleValue
1.915

@<SCITEGIC>MOL_PROPERTY
Valence
SciTegic.value.DoubleValue
6.755

@<SCITEGIC>MOL_PROPERTY
Coulomb
SciTegic.value.DoubleValue
-0.421

@<SCITEGIC>MOL_PROPERTY
VdW
SciTegic.value.DoubleValue
0.995

@<SCITEGIC>MOL_PROPERTY
VdW6
SciTegic.value.DoubleValue
-4.495

@<SCITEGIC>MOL_PROPERTY
VdW12
SciTegic.value.DoubleValue
5.490

@<SCITEGIC>MOL_PROPERTY
Bond
SciTegic.value.DoubleValue
0.106

@<SCITEGIC>MOL_PROPERTY
Angle
SciTegic.value.DoubleValue
2.715

@<SCITEGIC>MOL_PROPERTY
Pdih
SciTegic.value.DoubleValue
3.934

@<SCITEGIC>MOL_PROPERTY
Idih
SciTegic.value.DoubleValue
0.000

@<SCITEGIC>MOL_PROPERTY
Tether
SciTegic.value.DoubleValue
0.000

@<TRIPOS>MOLECULE
guest-s18_confgen4.mol2 : confsearch ligand conformer 402
          16          15           1
SMALL
USER_CHARGES
 
@<TRIPOS>ATOM
       1    C1      18.975471   21.033216   23.581786 C.2        1 MOL1         0.6075
       2    O1      19.766681   21.871267   23.965845 O.co2      1 MOL1        -0.6830
       3    O2      17.793920   21.254874   23.406721 O.co2      1 MOL1        -0.6830
       4    C2      19.497275   19.631499   23.285997 C.3        1 MOL1        -0.2050
       5    H1      18.698630   18.915162   23.513761 H          1 MOL1         0.0710
       6    H2      20.325122   19.423387   23.974626 H          1 MOL1         0.0710
       7    C3      19.966259   19.459812   21.820173 C.3        1 MOL1        -0.1947
       8    H3      19.130259   19.683511   21.142964 H          1 MOL1         0.0712
       9    H4      20.756782   20.191808   21.603821 H          1 MOL1         0.0712
      10    C4      20.489016   18.033940   21.547821 C.3        1 MOL1        -0.1921
      11    H5      19.698540   17.301678   21.763409 H          1 MOL1         0.0712
      12    H6      21.325465   17.810090   22.224417 H          1 MOL1         0.0712
      13    C5      20.953979   17.870411   20.087284 C.3        1 MOL1        -0.2936
      14    H7      21.766908   18.570272   19.853167 H          1 MOL1         0.0724
      15    H8      20.127971   18.058129   19.388754 H          1 MOL1         0.0724
      16    H9      21.322466   16.851536   19.910477 H          1 MOL1         0.0724
@<TRIPOS>BOND
    1     1     2    1
    2     1     3    2
    3     1     4    1
    4     4     5    1
    5     4     6    1
    6     4     7    1
    7     7     8    1
    8     7     9    1
    9     7    10    1
   10    10    11    1
   11    10    12    1
   12    10    13    1
   13    13    14    1
   14    13    15    1
   15    13    16    1
@<TRIPOS>SUBSTRUCTURE
       1 MOL1            1 RESIDUE      1      MOL     
@<SCITEGIC>MOL_PROPERTY
VConf Rank
SciTegic.value.IntegerValue
402

@<SCITEGIC>MOL_PROPERTY
Conf_Id
SciTegic.value.IntegerValue
22

@<SCITEGIC>MOL_PROPERTY
Delta U+W
SciTegic.value.DoubleValue
-1.185

@<SCITEGIC>MOL_PROPERTY
U+W
SciTegic.value.DoubleValue
-58.089

@<SCITEGIC>MOL_PROPERTY
Grad RMS
SciTegic.value.DoubleValue
0.000000

@<SCITEGIC>MOL_PROPERTY
U
SciTegic.value.DoubleValue
6.298

@<SCITEGIC>MOL_PROPERTY
W
SciTegic.value.DoubleValue
-64.387

@<SCITEGIC>MOL_PROPERTY
W(PB)
SciTegic.value.DoubleValue
-66.329

@<SCITEGIC>MOL_PROPERTY
W(SA)
SciTegic.value.DoubleValue
1.942

@<SCITEGIC>MOL_PROPERTY
Valence
SciTegic.value.DoubleValue
6.246

@<SCITEGIC>MOL_PROPERTY
Coulomb
SciTegic.value.DoubleValue
-0.408

@<SCITEGIC>MOL_PROPERTY
VdW
SciTegic.value.DoubleValue
0.460

@<SCITEGIC>MOL_PROPERTY
VdW6
SciTegic.value.DoubleValue
-4.207

@<SCITEGIC>MOL_PROPERTY
VdW12
SciTegic.value.DoubleValue
4.667

@<SCITEGIC>MOL_PROPERTY
Bond
SciTegic.value.DoubleValue
0.072

@<SCITEGIC>MOL_PROPERTY
Angle
SciTegic.value.DoubleValue
2.246

@<SCITEGIC>MOL_PROPERTY
Pdih
SciTegic.value.DoubleValue
3.928

@<SCITEGIC>MOL_PROPERTY
Idih
SciTegic.value.DoubleValue
0.001

@<SCITEGIC>MOL_PROPERTY
Tether
SciTegic.value.DoubleValue
0.000

@<TRIPOS>MOLECULE
guest-s18_confgen4.mol2 : confsearch ligand conformer 403
          16          15           1
SMALL
USER_CHARGES
 
@<TRIPOS>ATOM
       1    C1      21.699131   20.618899   20.756239 C.2        1 MOL1         0.6075
       2    O1      22.590667   20.145775   20.079991 O.co2      1 MOL1        -0.6830
       3    O2      21.732102   21.740837   21.221132 O.co2      1 MOL1        -0.6830
       4    C2      20.482171   19.750066   21.054081 C.3        1 MOL1        -0.2050
       5    H1      20.317681   19.088481   20.195120 H          1 MOL1         0.0710
       6    H2      19.610216   20.409882   21.127930 H          1 MOL1         0.0710
       7    C3      20.643608   18.913260   22.349722 C.3        1 MOL1        -0.1947
       8    H3      21.571695   18.329168   22.279571 H          1 MOL1         0.0712
       9    H4      20.765019   19.587478   23.208790 H          1 MOL1         0.0712
      10    C4      19.465931   17.945362   22.607906 C.3        1 MOL1        -0.1921
      11    H5      19.708516   17.317769   23.476576 H          1 MOL1         0.0712
      12    H6      19.351808   17.263295   21.754009 H          1 MOL1         0.0712
      13    C5      18.129626   18.670400   22.875381 C.3        1 MOL1        -0.2936
      14    H7      17.788577   19.221890   21.990324 H          1 MOL1         0.0724
      15    H8      18.227248   19.379834   23.707501 H          1 MOL1         0.0724
      16    H9      17.346723   17.947177   23.138094 H          1 MOL1         0.0724
@<TRIPOS>BOND
    1     1     2    1
    2     1     3    2
    3     1     4    1
    4     4     5    1
    5     4     6    1
    6     4     7    1
    7     7     8    1
    8     7     9    1
    9     7    10    1
   10    10    11    1
   11    10    12    1
   12    10    13    1
   13    13    14    1
   14    13    15    1
   15    13    16    1
@<TRIPOS>SUBSTRUCTURE
       1 MOL1            1 RESIDUE      1      MOL     
@<SCITEGIC>MOL_PROPERTY
VConf Rank
SciTegic.value.IntegerValue
403

@<SCITEGIC>MOL_PROPERTY
Conf_Id
SciTegic.value.IntegerValue
36

@<SCITEGIC>MOL_PROPERTY
Delta U+W
SciTegic.value.DoubleValue
-0.427

@<SCITEGIC>MOL_PROPERTY
U+W
SciTegic.value.DoubleValue
-57.331

@<SCITEGIC>MOL_PROPERTY
Grad RMS
SciTegic.value.DoubleValue
0.000000

@<SCITEGIC>MOL_PROPERTY
U
SciTegic.value.DoubleValue
7.263

@<SCITEGIC>MOL_PROPERTY
W
SciTegic.value.DoubleValue
-64.594

@<SCITEGIC>MOL_PROPERTY
W(PB)
SciTegic.value.DoubleValue
-66.513

@<SCITEGIC>MOL_PROPERTY
W(SA)
SciTegic.value.DoubleValue
1.920

@<SCITEGIC>MOL_PROPERTY
Valence
SciTegic.value.DoubleValue
6.734

@<SCITEGIC>MOL_PROPERTY
Coulomb
SciTegic.value.DoubleValue
-0.068

@<SCITEGIC>MOL_PROPERTY
VdW
SciTegic.value.DoubleValue
0.598

@<SCITEGIC>MOL_PROPERTY
VdW6
SciTegic.value.DoubleValue
-4.819

@<SCITEGIC>MOL_PROPERTY
VdW12
SciTegic.value.DoubleValue
5.417

@<SCITEGIC>MOL_PROPERTY
Bond
SciTegic.value.DoubleValue
0.107

@<SCITEGIC>MOL_PROPERTY
Angle
SciTegic.value.DoubleValue
2.469

@<SCITEGIC>MOL_PROPERTY
Pdih
SciTegic.value.DoubleValue
4.157

@<SCITEGIC>MOL_PROPERTY
Idih
SciTegic.value.DoubleValue
0.001

@<SCITEGIC>MOL_PROPERTY
Tether
SciTegic.value.DoubleValue
0.000

@<TRIPOS>MOLECULE
guest-s18_confgen4.mol2 : confsearch ligand conformer 404
          16          15           1
SMALL
USER_CHARGES
 
@<TRIPOS>ATOM
       1    C1      21.414507   17.131712   22.735591 C.2        1 MOL1         0.6075
       2    O1      22.485717   17.126162   22.162498 O.co2      1 MOL1        -0.6830
       3    O2      20.941278   16.156365   23.283997 O.co2      1 MOL1        -0.6830
       4    C2      20.610952   18.427340   22.750364 C.3        1 MOL1        -0.2050
       5    H1      21.321636   19.261414   22.769509 H          1 MOL1         0.0710
       6    H2      20.041108   18.463941   23.686583 H          1 MOL1         0.0710
       7    C3      19.653666   18.554837   21.536963 C.3        1 MOL1        -0.1947
       8    H3      20.239100   18.559948   20.607151 H          1 MOL1         0.0712
       9    H4      19.013981   17.662317   21.496456 H          1 MOL1         0.0712
      10    C4      18.752332   19.809753   21.593437 C.3        1 MOL1        -0.1921
      11    H5      18.158152   19.798875   22.517673 H          1 MOL1         0.0712
      12    H6      18.034879   19.766975   20.762330 H          1 MOL1         0.0712
      13    C5      19.543449   21.132029   21.500426 C.3        1 MOL1        -0.2936
      14    H7      20.193754   21.272354   22.372891 H          1 MOL1         0.0724
      15    H8      18.856940   21.987494   21.456917 H          1 MOL1         0.0724
      16    H9      20.167838   21.153622   20.597695 H          1 MOL1         0.0724
@<TRIPOS>BOND
    1     1     2    1
    2     1     3    2
    3     1     4    1
    4     4     5    1
    5     4     6    1
    6     4     7    1
    7     7     8    1
    8     7     9    1
    9     7    10    1
   10    10    11    1
   11    10    12    1
   12    10    13    1
   13    13    14    1
   14    13    15    1
   15    13    16    1
@<TRIPOS>SUBSTRUCTURE
       1 MOL1            1 RESIDUE      1      MOL     
@<SCITEGIC>MOL_PROPERTY
VConf Rank
SciTegic.value.IntegerValue
404

@<SCITEGIC>MOL_PROPERTY
Conf_Id
SciTegic.value.IntegerValue
17

@<SCITEGIC>MOL_PROPERTY
Delta U+W
SciTegic.value.DoubleValue
-0.432

@<SCITEGIC>MOL_PROPERTY
U+W
SciTegic.value.DoubleValue
-57.336

@<SCITEGIC>MOL_PROPERTY
Grad RMS
SciTegic.value.DoubleValue
0.000000

@<SCITEGIC>MOL_PROPERTY
U
SciTegic.value.DoubleValue
7.263

@<SCITEGIC>MOL_PROPERTY
W
SciTegic.value.DoubleValue
-64.599

@<SCITEGIC>MOL_PROPERTY
W(PB)
SciTegic.value.DoubleValue
-66.503

@<SCITEGIC>MOL_PROPERTY
W(SA)
SciTegic.value.DoubleValue
1.904

@<SCITEGIC>MOL_PROPERTY
Valence
SciTegic.value.DoubleValue
6.734

@<SCITEGIC>MOL_PROPERTY
Coulomb
SciTegic.value.DoubleValue
-0.068

@<SCITEGIC>MOL_PROPERTY
VdW
SciTegic.value.DoubleValue
0.598

@<SCITEGIC>MOL_PROPERTY
VdW6
SciTegic.value.DoubleValue
-4.819

@<SCITEGIC>MOL_PROPERTY
VdW12
SciTegic.value.DoubleValue
5.417

@<SCITEGIC>MOL_PROPERTY
Bond
SciTegic.value.DoubleValue
0.107

@<SCITEGIC>MOL_PROPERTY
Angle
SciTegic.value.DoubleValue
2.469

@<SCITEGIC>MOL_PROPERTY
Pdih
SciTegic.value.DoubleValue
4.157

@<SCITEGIC>MOL_PROPERTY
Idih
SciTegic.value.DoubleValue
0.001

@<SCITEGIC>MOL_PROPERTY
Tether
SciTegic.value.DoubleValue
0.000

@<TRIPOS>MOLECULE
guest-s18_confgen4.mol2 : confsearch ligand conformer 405
          16          15           1
SMALL
USER_CHARGES
 
@<TRIPOS>ATOM
       1    C1      21.188297   19.539853   20.008515 C.2        1 MOL1         0.6075
       2    O1      21.780957   20.599471   19.960483 O.co2      1 MOL1        -0.6830
       3    O2      21.674077   18.482742   19.658095 O.co2      1 MOL1        -0.6830
       4    C2      19.748167   19.542896   20.513992 C.3        1 MOL1        -0.2050
       5    H1      19.256224   18.622459   20.176543 H          1 MOL1         0.0710
       6    H2      19.230450   20.376575   20.024930 H          1 MOL1         0.0710
       7    C3      19.618693   19.685258   22.052824 C.3        1 MOL1        -0.1947
       8    H3      20.140101   20.595787   22.379466 H          1 MOL1         0.0712
       9    H4      18.559204   19.817910   22.310594 H          1 MOL1         0.0712
      10    C4      20.177457   18.461986   22.811488 C.3        1 MOL1        -0.1921
      11    H5      21.243154   18.331518   22.576989 H          1 MOL1         0.0712
      12    H6      19.663825   17.550803   22.474880 H          1 MOL1         0.0712
      13    C5      20.005824   18.614200   24.335863 C.3        1 MOL1        -0.2936
      14    H7      20.536436   19.502204   24.703764 H          1 MOL1         0.0724
      15    H8      20.408499   17.737496   24.859657 H          1 MOL1         0.0724
      16    H9      18.945734   18.712123   24.604257 H          1 MOL1         0.0724
@<TRIPOS>BOND
    1     1     2    1
    2     1     3    2
    3     1     4    1
    4     4     5    1
    5     4     6    1
    6     4     7    1
    7     7     8    1
    8     7     9    1
    9     7    10    1
   10    10    11    1
   11    10    12    1
   12    10    13    1
   13    13    14    1
   14    13    15    1
   15    13    16    1
@<TRIPOS>SUBSTRUCTURE
       1 MOL1            1 RESIDUE      1      MOL     
@<SCITEGIC>MOL_PROPERTY
VConf Rank
SciTegic.value.IntegerValue
405

@<SCITEGIC>MOL_PROPERTY
Conf_Id
SciTegic.value.IntegerValue
19

@<SCITEGIC>MOL_PROPERTY
Delta U+W
SciTegic.value.DoubleValue
0.048

@<SCITEGIC>MOL_PROPERTY
U+W
SciTegic.value.DoubleValue
-56.856

@<SCITEGIC>MOL_PROPERTY
Grad RMS
SciTegic.value.DoubleValue
0.000000

@<SCITEGIC>MOL_PROPERTY
U
SciTegic.value.DoubleValue
8.276

@<SCITEGIC>MOL_PROPERTY
W
SciTegic.value.DoubleValue
-65.132

@<SCITEGIC>MOL_PROPERTY
W(PB)
SciTegic.value.DoubleValue
-67.031

@<SCITEGIC>MOL_PROPERTY
W(SA)
SciTegic.value.DoubleValue
1.899

@<SCITEGIC>MOL_PROPERTY
Valence
SciTegic.value.DoubleValue
6.513

@<SCITEGIC>MOL_PROPERTY
Coulomb
SciTegic.value.DoubleValue
1.428

@<SCITEGIC>MOL_PROPERTY
VdW
SciTegic.value.DoubleValue
0.335

@<SCITEGIC>MOL_PROPERTY
VdW6
SciTegic.value.DoubleValue
-5.021

@<SCITEGIC>MOL_PROPERTY
VdW12
SciTegic.value.DoubleValue
5.356

@<SCITEGIC>MOL_PROPERTY
Bond
SciTegic.value.DoubleValue
0.092

@<SCITEGIC>MOL_PROPERTY
Angle
SciTegic.value.DoubleValue
2.417

@<SCITEGIC>MOL_PROPERTY
Pdih
SciTegic.value.DoubleValue
4.003

@<SCITEGIC>MOL_PROPERTY
Idih
SciTegic.value.DoubleValue
0.001

@<SCITEGIC>MOL_PROPERTY
Tether
SciTegic.value.DoubleValue
0.000

@<TRIPOS>MOLECULE
guest-s18_confgen4.mol2 : confsearch ligand conformer 406
          16          15           1
SMALL
USER_CHARGES
 
@<TRIPOS>ATOM
       1    C1      18.366560   17.386312   21.630750 C.2        1 MOL1         0.6075
       2    O1      18.707772   16.324769   22.113494 O.co2      1 MOL1        -0.6830
       3    O2      18.023467   17.517474   20.472586 O.co2      1 MOL1        -0.6830
       4    C2      18.346179   18.615174   22.535726 C.3        1 MOL1        -0.2050
       5    H1      17.863626   18.322481   23.475784 H          1 MOL1         0.0710
       6    H2      17.707182   19.378802   22.075682 H          1 MOL1         0.0710
       7    C3      19.749761   19.202379   22.836043 C.3        1 MOL1        -0.1947
       8    H3      19.651952   19.988035   23.597448 H          1 MOL1         0.0712
       9    H4      20.386996   18.419150   23.269756 H          1 MOL1         0.0712
      10    C4      20.427738   19.792427   21.580503 C.3        1 MOL1        -0.1921
      11    H5      19.783843   20.566716   21.140897 H          1 MOL1         0.0712
      12    H6      20.549511   19.009735   20.818737 H          1 MOL1         0.0712
      13    C5      21.805406   20.398900   21.913027 C.3        1 MOL1        -0.2936
      14    H7      21.711212   21.209152   22.647897 H          1 MOL1         0.0724
      15    H8      22.273661   20.812663   21.010445 H          1 MOL1         0.0724
      16    H9      22.479932   19.637509   22.326244 H          1 MOL1         0.0724
@<TRIPOS>BOND
    1     1     2    1
    2     1     3    2
    3     1     4    1
    4     4     5    1
    5     4     6    1
    6     4     7    1
    7     7     8    1
    8     7     9    1
    9     7    10    1
   10    10    11    1
   11    10    12    1
   12    10    13    1
   13    13    14    1
   14    13    15    1
   15    13    16    1
@<TRIPOS>SUBSTRUCTURE
       1 MOL1            1 RESIDUE      1      MOL     
@<SCITEGIC>MOL_PROPERTY
VConf Rank
SciTegic.value.IntegerValue
406

@<SCITEGIC>MOL_PROPERTY
Conf_Id
SciTegic.value.IntegerValue
20

@<SCITEGIC>MOL_PROPERTY
Delta U+W
SciTegic.value.DoubleValue
-0.010

@<SCITEGIC>MOL_PROPERTY
U+W
SciTegic.value.DoubleValue
-56.914

@<SCITEGIC>MOL_PROPERTY
Grad RMS
SciTegic.value.DoubleValue
0.000000

@<SCITEGIC>MOL_PROPERTY
U
SciTegic.value.DoubleValue
8.277

@<SCITEGIC>MOL_PROPERTY
W
SciTegic.value.DoubleValue
-65.191

@<SCITEGIC>MOL_PROPERTY
W(PB)
SciTegic.value.DoubleValue
-67.081

@<SCITEGIC>MOL_PROPERTY
W(SA)
SciTegic.value.DoubleValue
1.890

@<SCITEGIC>MOL_PROPERTY
Valence
SciTegic.value.DoubleValue
6.513

@<SCITEGIC>MOL_PROPERTY
Coulomb
SciTegic.value.DoubleValue
1.429

@<SCITEGIC>MOL_PROPERTY
VdW
SciTegic.value.DoubleValue
0.335

@<SCITEGIC>MOL_PROPERTY
VdW6
SciTegic.value.DoubleValue
-5.021

@<SCITEGIC>MOL_PROPERTY
VdW12
SciTegic.value.DoubleValue
5.356

@<SCITEGIC>MOL_PROPERTY
Bond
SciTegic.value.DoubleValue
0.092

@<SCITEGIC>MOL_PROPERTY
Angle
SciTegic.value.DoubleValue
2.417

@<SCITEGIC>MOL_PROPERTY
Pdih
SciTegic.value.DoubleValue
4.002

@<SCITEGIC>MOL_PROPERTY
Idih
SciTegic.value.DoubleValue
0.001

@<SCITEGIC>MOL_PROPERTY
Tether
SciTegic.value.DoubleValue
0.000

@<TRIPOS>MOLECULE
guest-s18_confgen4.mol2 : confsearch ligand conformer 407
          16          15           1
SMALL
USER_CHARGES
 
@<TRIPOS>ATOM
       1    C1      19.925450   20.816787   23.541808 C.2        1 MOL1         0.6075
       2    O1      18.963106   21.519922   23.779043 O.co2      1 MOL1        -0.6830
       3    O2      21.034625   21.254950   23.309333 O.co2      1 MOL1        -0.6830
       4    C2      19.735312   19.302622   23.571737 C.3        1 MOL1        -0.2050
       5    H1      19.231792   19.056381   24.513923 H          1 MOL1         0.0710
       6    H2      20.720881   18.824911   23.612896 H          1 MOL1         0.0710
       7    C3      18.904460   18.742401   22.384928 C.3        1 MOL1        -0.1947
       8    H3      18.750762   17.664575   22.529974 H          1 MOL1         0.0712
       9    H4      17.906303   19.201333   22.405403 H          1 MOL1         0.0712
      10    C4      19.536937   18.983575   20.993599 C.3        1 MOL1        -0.1921
      11    H5      19.663953   20.061504   20.821740 H          1 MOL1         0.0712
      12    H6      18.839377   18.627813   20.222903 H          1 MOL1         0.0712
      13    C5      20.891442   18.267057   20.808238 C.3        1 MOL1        -0.2936
      14    H7      21.655534   18.680683   21.478735 H          1 MOL1         0.0724
      15    H8      21.252356   18.389414   19.778855 H          1 MOL1         0.0724
      16    H9      20.799312   17.191820   21.009345 H          1 MOL1         0.0724
@<TRIPOS>BOND
    1     1     2    1
    2     1     3    2
    3     1     4    1
    4     4     5    1
    5     4     6    1
    6     4     7    1
    7     7     8    1
    8     7     9    1
    9     7    10    1
   10    10    11    1
   11    10    12    1
   12    10    13    1
   13    13    14    1
   14    13    15    1
   15    13    16    1
@<TRIPOS>SUBSTRUCTURE
       1 MOL1            1 RESIDUE      1      MOL     
@<SCITEGIC>MOL_PROPERTY
VConf Rank
SciTegic.value.IntegerValue
407

@<SCITEGIC>MOL_PROPERTY
Conf_Id
SciTegic.value.IntegerValue
37

@<SCITEGIC>MOL_PROPERTY
Delta U+W
SciTegic.value.DoubleValue
1.063

@<SCITEGIC>MOL_PROPERTY
U+W
SciTegic.value.DoubleValue
-55.841

@<SCITEGIC>MOL_PROPERTY
Grad RMS
SciTegic.value.DoubleValue
0.000000

@<SCITEGIC>MOL_PROPERTY
U
SciTegic.value.DoubleValue
9.719

@<SCITEGIC>MOL_PROPERTY
W
SciTegic.value.DoubleValue
-65.560

@<SCITEGIC>MOL_PROPERTY
W(PB)
SciTegic.value.DoubleValue
-67.414

@<SCITEGIC>MOL_PROPERTY
W(SA)
SciTegic.value.DoubleValue
1.854

@<SCITEGIC>MOL_PROPERTY
Valence
SciTegic.value.DoubleValue
7.002

@<SCITEGIC>MOL_PROPERTY
Coulomb
SciTegic.value.DoubleValue
2.402

@<SCITEGIC>MOL_PROPERTY
VdW
SciTegic.value.DoubleValue
0.314

@<SCITEGIC>MOL_PROPERTY
VdW6
SciTegic.value.DoubleValue
-5.861

@<SCITEGIC>MOL_PROPERTY
VdW12
SciTegic.value.DoubleValue
6.175

@<SCITEGIC>MOL_PROPERTY
Bond
SciTegic.value.DoubleValue
0.134

@<SCITEGIC>MOL_PROPERTY
Angle
SciTegic.value.DoubleValue
2.733

@<SCITEGIC>MOL_PROPERTY
Pdih
SciTegic.value.DoubleValue
4.133

@<SCITEGIC>MOL_PROPERTY
Idih
SciTegic.value.DoubleValue
0.002

@<SCITEGIC>MOL_PROPERTY
Tether
SciTegic.value.DoubleValue
0.000

@<TRIPOS>MOLECULE
guest-s18_confgen4.mol2 : confsearch ligand conformer 408
          16          15           1
SMALL
USER_CHARGES
 
@<TRIPOS>ATOM
       1    C1      18.995572   18.363517   23.821686 C.2        1 MOL1         0.6075
       2    O1      18.027241   17.643034   23.680179 O.co2      1 MOL1        -0.6830
       3    O2      19.882744   18.144336   24.622427 O.co2      1 MOL1        -0.6830
       4    C2      19.081949   19.628272   22.971580 C.3        1 MOL1        -0.2050
       5    H1      19.843648   20.289341   23.400592 H          1 MOL1         0.0710
       6    H2      18.124522   20.153057   23.070663 H          1 MOL1         0.0710
       7    C3      19.369158   19.365455   21.467878 C.3        1 MOL1        -0.1947
       8    H3      18.559913   18.745911   21.057217 H          1 MOL1         0.0712
       9    H4      19.334336   20.318306   20.922687 H          1 MOL1         0.0712
      10    C4      20.722364   18.668885   21.189284 C.3        1 MOL1        -0.1921
      11    H5      20.793374   18.453998   20.114152 H          1 MOL1         0.0712
      12    H6      20.755878   17.697283   21.701595 H          1 MOL1         0.0712
      13    C5      21.941512   19.517353   21.609073 C.3        1 MOL1        -0.2936
      14    H7      21.913159   20.508331   21.137665 H          1 MOL1         0.0724
      15    H8      22.874367   19.024640   21.305966 H          1 MOL1         0.0724
      16    H9      21.976562   19.652429   22.697656 H          1 MOL1         0.0724
@<TRIPOS>BOND
    1     1     2    1
    2     1     3    2
    3     1     4    1
    4     4     5    1
    5     4     6    1
    6     4     7    1
    7     7     8    1
    8     7     9    1
    9     7    10    1
   10    10    11    1
   11    10    12    1
   12    10    13    1
   13    13    14    1
   14    13    15    1
   15    13    16    1
@<TRIPOS>SUBSTRUCTURE
       1 MOL1            1 RESIDUE      1      MOL     
@<SCITEGIC>MOL_PROPERTY
VConf Rank
SciTegic.value.IntegerValue
408

@<SCITEGIC>MOL_PROPERTY
Conf_Id
SciTegic.value.IntegerValue
39

@<SCITEGIC>MOL_PROPERTY
Delta U+W
SciTegic.value.DoubleValue
1.129

@<SCITEGIC>MOL_PROPERTY
U+W
SciTegic.value.DoubleValue
-55.775

@<SCITEGIC>MOL_PROPERTY
Grad RMS
SciTegic.value.DoubleValue
0.000000

@<SCITEGIC>MOL_PROPERTY
U
SciTegic.value.DoubleValue
9.718

@<SCITEGIC>MOL_PROPERTY
W
SciTegic.value.DoubleValue
-65.493

@<SCITEGIC>MOL_PROPERTY
W(PB)
SciTegic.value.DoubleValue
-67.361

@<SCITEGIC>MOL_PROPERTY
W(SA)
SciTegic.value.DoubleValue
1.869

@<SCITEGIC>MOL_PROPERTY
Valence
SciTegic.value.DoubleValue
7.002

@<SCITEGIC>MOL_PROPERTY
Coulomb
SciTegic.value.DoubleValue
2.402

@<SCITEGIC>MOL_PROPERTY
VdW
SciTegic.value.DoubleValue
0.314

@<SCITEGIC>MOL_PROPERTY
VdW6
SciTegic.value.DoubleValue
-5.861

@<SCITEGIC>MOL_PROPERTY
VdW12
SciTegic.value.DoubleValue
6.175

@<SCITEGIC>MOL_PROPERTY
Bond
SciTegic.value.DoubleValue
0.134

@<SCITEGIC>MOL_PROPERTY
Angle
SciTegic.value.DoubleValue
2.734

@<SCITEGIC>MOL_PROPERTY
Pdih
SciTegic.value.DoubleValue
4.133

@<SCITEGIC>MOL_PROPERTY
Idih
SciTegic.value.DoubleValue
0.002

@<SCITEGIC>MOL_PROPERTY
Tether
SciTegic.value.DoubleValue
0.000

@<TRIPOS>MOLECULE
guest-s18_confgen4.mol2 : confsearch ligand conformer 409
          16          15           1
SMALL
USER_CHARGES
 
@<TRIPOS>ATOM
       1    C1      19.014679   19.947528   23.833861 C.2        1 MOL1         0.6075
       2    O1      18.699715   21.093779   23.581422 O.co2      1 MOL1        -0.6830
       3    O2      19.608133   19.624212   24.844028 O.co2      1 MOL1        -0.6830
       4    C2      18.561723   18.847625   22.875373 C.3        1 MOL1        -0.2050
       5    H1      17.975583   19.299012   22.065639 H          1 MOL1         0.0710
       6    H2      17.873808   18.208779   23.441410 H          1 MOL1         0.0710
       7    C3      19.700737   17.967139   22.288540 C.3        1 MOL1        -0.1947
       8    H3      20.404134   17.685393   23.084399 H          1 MOL1         0.0712
       9    H4      19.254577   17.028622   21.932759 H          1 MOL1         0.0712
      10    C4      20.466263   18.604497   21.103927 C.3        1 MOL1        -0.1921
      11    H5      19.759424   18.886484   20.311405 H          1 MOL1         0.0712
      12    H6      21.129339   17.843716   20.669374 H          1 MOL1         0.0712
      13    C5      21.319022   19.828236   21.498328 C.3        1 MOL1        -0.2936
      14    H7      20.688595   20.678891   21.784592 H          1 MOL1         0.0724
      15    H8      21.942973   20.149452   20.654365 H          1 MOL1         0.0724
      16    H9      21.982585   19.591458   22.340320 H          1 MOL1         0.0724
@<TRIPOS>BOND
    1     1     2    1
    2     1     3    2
    3     1     4    1
    4     4     5    1
    5     4     6    1
    6     4     7    1
    7     7     8    1
    8     7     9    1
    9     7    10    1
   10    10    11    1
   11    10    12    1
   12    10    13    1
   13    13    14    1
   14    13    15    1
   15    13    16    1
@<TRIPOS>SUBSTRUCTURE
       1 MOL1            1 RESIDUE      1      MOL     
@<SCITEGIC>MOL_PROPERTY
VConf Rank
SciTegic.value.IntegerValue
409

@<SCITEGIC>MOL_PROPERTY
Conf_Id
SciTegic.value.IntegerValue
47

@<SCITEGIC>MOL_PROPERTY
Delta U+W
SciTegic.value.DoubleValue
2.301

@<SCITEGIC>MOL_PROPERTY
U+W
SciTegic.value.DoubleValue
-54.603

@<SCITEGIC>MOL_PROPERTY
Grad RMS
SciTegic.value.DoubleValue
0.000000

@<SCITEGIC>MOL_PROPERTY
U
SciTegic.value.DoubleValue
11.258

@<SCITEGIC>MOL_PROPERTY
W
SciTegic.value.DoubleValue
-65.861

@<SCITEGIC>MOL_PROPERTY
W(PB)
SciTegic.value.DoubleValue
-67.702

@<SCITEGIC>MOL_PROPERTY
W(SA)
SciTegic.value.DoubleValue
1.841

@<SCITEGIC>MOL_PROPERTY
Valence
SciTegic.value.DoubleValue
8.169

@<SCITEGIC>MOL_PROPERTY
Coulomb
SciTegic.value.DoubleValue
2.735

@<SCITEGIC>MOL_PROPERTY
VdW
SciTegic.value.DoubleValue
0.355

@<SCITEGIC>MOL_PROPERTY
VdW6
SciTegic.value.DoubleValue
-6.245

@<SCITEGIC>MOL_PROPERTY
VdW12
SciTegic.value.DoubleValue
6.600

@<SCITEGIC>MOL_PROPERTY
Bond
SciTegic.value.DoubleValue
0.149

@<SCITEGIC>MOL_PROPERTY
Angle
SciTegic.value.DoubleValue
3.168

@<SCITEGIC>MOL_PROPERTY
Pdih
SciTegic.value.DoubleValue
4.840

@<SCITEGIC>MOL_PROPERTY
Idih
SciTegic.value.DoubleValue
0.011

@<SCITEGIC>MOL_PROPERTY
Tether
SciTegic.value.DoubleValue
0.000

@<TRIPOS>MOLECULE
guest-s18_confgen4.mol2 : confsearch ligand conformer 410
          16          15           1
SMALL
USER_CHARGES
 
@<TRIPOS>ATOM
       1    C1      19.653856   17.960955   23.879394 C.2        1 MOL1         0.6075
       2    O1      18.508052   17.557065   23.913522 O.co2      1 MOL1        -0.6830
       3    O2      20.223909   18.436786   24.841394 O.co2      1 MOL1        -0.6830
       4    C2      20.448472   17.779554   22.587362 C.3        1 MOL1        -0.2050
       5    H1      20.500829   16.699673   22.406075 H          1 MOL1         0.0710
       6    H2      21.478159   18.120104   22.750908 H          1 MOL1         0.0710
       7    C3      19.845370   18.473112   21.333475 C.3        1 MOL1        -0.1947
       8    H3      20.268847   17.990237   20.442435 H          1 MOL1         0.0712
       9    H4      18.762351   18.292221   21.290015 H          1 MOL1         0.0712
      10    C4      20.135248   19.990016   21.230831 C.3        1 MOL1        -0.1921
      11    H5      19.807080   20.340178   20.242405 H          1 MOL1         0.0712
      12    H6      21.218721   20.166733   21.276510 H          1 MOL1         0.0712
      13    C5      19.425633   20.835109   22.309047 C.3        1 MOL1        -0.2936
      14    H7      19.553514   21.905690   22.103446 H          1 MOL1         0.0724
      15    H8      19.838853   20.639348   23.306006 H          1 MOL1         0.0724
      16    H9      18.349260   20.620235   22.333123 H          1 MOL1         0.0724
@<TRIPOS>BOND
    1     1     2    1
    2     1     3    2
    3     1     4    1
    4     4     5    1
    5     4     6    1
    6     4     7    1
    7     7     8    1
    8     7     9    1
    9     7    10    1
   10    10    11    1
   11    10    12    1
   12    10    13    1
   13    13    14    1
   14    13    15    1
   15    13    16    1
@<TRIPOS>SUBSTRUCTURE
       1 MOL1            1 RESIDUE      1      MOL     
@<SCITEGIC>MOL_PROPERTY
VConf Rank
SciTegic.value.IntegerValue
410

@<SCITEGIC>MOL_PROPERTY
Conf_Id
SciTegic.value.IntegerValue
45

@<SCITEGIC>MOL_PROPERTY
Delta U+W
SciTegic.value.DoubleValue
2.303

@<SCITEGIC>MOL_PROPERTY
U+W
SciTegic.value.DoubleValue
-54.601

@<SCITEGIC>MOL_PROPERTY
Grad RMS
SciTegic.value.DoubleValue
0.000000

@<SCITEGIC>MOL_PROPERTY
U
SciTegic.value.DoubleValue
11.258

@<SCITEGIC>MOL_PROPERTY
W
SciTegic.value.DoubleValue
-65.860

@<SCITEGIC>MOL_PROPERTY
W(PB)
SciTegic.value.DoubleValue
-67.709

@<SCITEGIC>MOL_PROPERTY
W(SA)
SciTegic.value.DoubleValue
1.849

@<SCITEGIC>MOL_PROPERTY
Valence
SciTegic.value.DoubleValue
8.169

@<SCITEGIC>MOL_PROPERTY
Coulomb
SciTegic.value.DoubleValue
2.735

@<SCITEGIC>MOL_PROPERTY
VdW
SciTegic.value.DoubleValue
0.355

@<SCITEGIC>MOL_PROPERTY
VdW6
SciTegic.value.DoubleValue
-6.245

@<SCITEGIC>MOL_PROPERTY
VdW12
SciTegic.value.DoubleValue
6.600

@<SCITEGIC>MOL_PROPERTY
Bond
SciTegic.value.DoubleValue
0.149

@<SCITEGIC>MOL_PROPERTY
Angle
SciTegic.value.DoubleValue
3.168

@<SCITEGIC>MOL_PROPERTY
Pdih
SciTegic.value.DoubleValue
4.840

@<SCITEGIC>MOL_PROPERTY
Idih
SciTegic.value.DoubleValue
0.011

@<SCITEGIC>MOL_PROPERTY
Tether
SciTegic.value.DoubleValue
0.000

@<TRIPOS>MOLECULE
guest-s18_confgen4.mol2 : confsearch ligand conformer 411
          16          15           1
SMALL
USER_CHARGES
 
@<TRIPOS>ATOM
       1    C1      21.366796   16.908826   22.848724 C.2        1 MOL1         0.6075
       2    O1      20.361964   16.275056   23.106453 O.co2      1 MOL1        -0.6830
       3    O2      22.487224   16.477211   23.032201 O.co2      1 MOL1        -0.6830
       4    C2      21.248133   18.318023   22.265650 C.3        1 MOL1        -0.2050
       5    H1      21.788285   18.323949   21.311521 H          1 MOL1         0.0710
       6    H2      21.781965   18.997475   22.940581 H          1 MOL1         0.0710
       7    C3      19.798112   18.827043   22.049578 C.3        1 MOL1        -0.1947
       8    H3      19.266688   18.139484   21.377030 H          1 MOL1         0.0712
       9    H4      19.260373   18.813718   23.007768 H          1 MOL1         0.0712
      10    C4      19.772707   20.252864   21.459961 C.3        1 MOL1        -0.1921
      11    H5      20.308667   20.267199   20.500774 H          1 MOL1         0.0712
      12    H6      20.302348   20.941846   22.132480 H          1 MOL1         0.0712
      13    C5      18.330078   20.752765   21.247680 C.3        1 MOL1        -0.2936
      14    H7      17.785988   20.098818   20.553570 H          1 MOL1         0.0724
      15    H8      18.329984   21.767259   20.828223 H          1 MOL1         0.0724
      16    H9      17.779617   20.778446   22.197313 H          1 MOL1         0.0724
@<TRIPOS>BOND
    1     1     2    1
    2     1     3    2
    3     1     4    1
    4     4     5    1
    5     4     6    1
    6     4     7    1
    7     7     8    1
    8     7     9    1
    9     7    10    1
   10    10    11    1
   11    10    12    1
   12    10    13    1
   13    13    14    1
   14    13    15    1
   15    13    16    1
@<TRIPOS>SUBSTRUCTURE
       1 MOL1            1 RESIDUE      1      MOL     
@<SCITEGIC>MOL_PROPERTY
VConf Rank
SciTegic.value.IntegerValue
411

@<SCITEGIC>MOL_PROPERTY
Conf_Id
SciTegic.value.IntegerValue
0

@<SCITEGIC>MOL_PROPERTY
Delta U+W
SciTegic.value.DoubleValue
0.000

@<SCITEGIC>MOL_PROPERTY
U+W
SciTegic.value.DoubleValue
-56.904

@<SCITEGIC>MOL_PROPERTY
Grad RMS
SciTegic.value.DoubleValue
0.000000

@<SCITEGIC>MOL_PROPERTY
U
SciTegic.value.DoubleValue
7.329

@<SCITEGIC>MOL_PROPERTY
W
SciTegic.value.DoubleValue
-64.233

@<SCITEGIC>MOL_PROPERTY
W(PB)
SciTegic.value.DoubleValue
-66.148

@<SCITEGIC>MOL_PROPERTY
W(SA)
SciTegic.value.DoubleValue
1.915

@<SCITEGIC>MOL_PROPERTY
Valence
SciTegic.value.DoubleValue
6.755

@<SCITEGIC>MOL_PROPERTY
Coulomb
SciTegic.value.DoubleValue
-0.421

@<SCITEGIC>MOL_PROPERTY
VdW
SciTegic.value.DoubleValue
0.995

@<SCITEGIC>MOL_PROPERTY
VdW6
SciTegic.value.DoubleValue
-4.495

@<SCITEGIC>MOL_PROPERTY
VdW12
SciTegic.value.DoubleValue
5.490

@<SCITEGIC>MOL_PROPERTY
Bond
SciTegic.value.DoubleValue
0.106

@<SCITEGIC>MOL_PROPERTY
Angle
SciTegic.value.DoubleValue
2.715

@<SCITEGIC>MOL_PROPERTY
Pdih
SciTegic.value.DoubleValue
3.934

@<SCITEGIC>MOL_PROPERTY
Idih
SciTegic.value.DoubleValue
0.000

@<SCITEGIC>MOL_PROPERTY
Tether
SciTegic.value.DoubleValue
0.000

@<TRIPOS>MOLECULE
guest-s18_confgen4.mol2 : confsearch ligand conformer 412
          16          15           1
SMALL
USER_CHARGES
 
@<TRIPOS>ATOM
       1    C1      21.713516   20.983238   20.848931 C.2        1 MOL1         0.6075
       2    O1      21.893120   20.866562   19.653117 O.co2      1 MOL1        -0.6830
       3    O2      21.740348   22.048869   21.431644 O.co2      1 MOL1        -0.6830
       4    C2      21.420478   19.725722   21.659712 C.3        1 MOL1        -0.2050
       5    H1      21.834749   19.864290   22.665709 H          1 MOL1         0.0710
       6    H2      21.960587   18.889536   21.199358 H          1 MOL1         0.0710
       7    C3      19.908469   19.402269   21.744973 C.3        1 MOL1        -0.1947
       8    H3      19.380023   20.253439   22.196420 H          1 MOL1         0.0712
       9    H4      19.505844   19.278707   20.729996 H          1 MOL1         0.0712
      10    C4      19.639837   18.126430   22.569978 C.3        1 MOL1        -0.1921
      11    H5      20.041722   18.249864   23.585257 H          1 MOL1         0.0712
      12    H6      20.167610   17.274881   22.118473 H          1 MOL1         0.0712
      13    C5      18.133210   17.810699   22.650539 C.3        1 MOL1        -0.2936
      14    H7      17.711204   17.651371   21.649541 H          1 MOL1         0.0724
      15    H8      17.584382   18.633567   23.127138 H          1 MOL1         0.0724
      16    H9      17.959643   16.901149   23.240237 H          1 MOL1         0.0724
@<TRIPOS>BOND
    1     1     2    1
    2     1     3    2
    3     1     4    1
    4     4     5    1
    5     4     6    1
    6     4     7    1
    7     7     8    1
    8     7     9    1
    9     7    10    1
   10    10    11    1
   11    10    12    1
   12    10    13    1
   13    13    14    1
   14    13    15    1
   15    13    16    1
@<TRIPOS>SUBSTRUCTURE
       1 MOL1            1 RESIDUE      1      MOL     
@<SCITEGIC>MOL_PROPERTY
VConf Rank
SciTegic.value.IntegerValue
412

@<SCITEGIC>MOL_PROPERTY
Conf_Id
SciTegic.value.IntegerValue
22

@<SCITEGIC>MOL_PROPERTY
Delta U+W
SciTegic.value.DoubleValue
-1.185

@<SCITEGIC>MOL_PROPERTY
U+W
SciTegic.value.DoubleValue
-58.089

@<SCITEGIC>MOL_PROPERTY
Grad RMS
SciTegic.value.DoubleValue
0.000000

@<SCITEGIC>MOL_PROPERTY
U
SciTegic.value.DoubleValue
6.298

@<SCITEGIC>MOL_PROPERTY
W
SciTegic.value.DoubleValue
-64.387

@<SCITEGIC>MOL_PROPERTY
W(PB)
SciTegic.value.DoubleValue
-66.329

@<SCITEGIC>MOL_PROPERTY
W(SA)
SciTegic.value.DoubleValue
1.942

@<SCITEGIC>MOL_PROPERTY
Valence
SciTegic.value.DoubleValue
6.246

@<SCITEGIC>MOL_PROPERTY
Coulomb
SciTegic.value.DoubleValue
-0.408

@<SCITEGIC>MOL_PROPERTY
VdW
SciTegic.value.DoubleValue
0.460

@<SCITEGIC>MOL_PROPERTY
VdW6
SciTegic.value.DoubleValue
-4.207

@<SCITEGIC>MOL_PROPERTY
VdW12
SciTegic.value.DoubleValue
4.667

@<SCITEGIC>MOL_PROPERTY
Bond
SciTegic.value.DoubleValue
0.072

@<SCITEGIC>MOL_PROPERTY
Angle
SciTegic.value.DoubleValue
2.246

@<SCITEGIC>MOL_PROPERTY
Pdih
SciTegic.value.DoubleValue
3.928

@<SCITEGIC>MOL_PROPERTY
Idih
SciTegic.value.DoubleValue
0.001

@<SCITEGIC>MOL_PROPERTY
Tether
SciTegic.value.DoubleValue
0.000

@<TRIPOS>MOLECULE
guest-s18_confgen4.mol2 : confsearch ligand conformer 413
          16          15           1
SMALL
USER_CHARGES
 
@<TRIPOS>ATOM
       1    C1      22.052751   19.231820   23.515568 C.2        1 MOL1         0.6075
       2    O1      22.147444   18.564245   24.526197 O.co2      1 MOL1        -0.6830
       3    O2      22.706207   20.235133   23.309860 O.co2      1 MOL1        -0.6830
       4    C2      21.044719   18.797817   22.457228 C.3        1 MOL1        -0.2050
       5    H1      20.976776   17.703549   22.480145 H          1 MOL1         0.0710
       6    H2      21.447224   19.078117   21.477157 H          1 MOL1         0.0710
       7    C3      19.642313   19.424720   22.669934 C.3        1 MOL1        -0.1947
       8    H3      19.305439   19.198329   23.691057 H          1 MOL1         0.0712
       9    H4      19.715882   20.518953   22.602478 H          1 MOL1         0.0712
      10    C4      18.580306   18.910194   21.671029 C.3        1 MOL1        -0.1921
      11    H5      17.600182   19.315950   21.957434 H          1 MOL1         0.0712
      12    H6      18.498174   17.817073   21.746666 H          1 MOL1         0.0712
      13    C5      18.876060   19.308655   20.209286 C.3        1 MOL1        -0.2936
      14    H7      19.792937   18.831443   19.841338 H          1 MOL1         0.0724
      15    H8      18.991130   20.396293   20.114145 H          1 MOL1         0.0724
      16    H9      18.053174   18.997280   19.552847 H          1 MOL1         0.0724
@<TRIPOS>BOND
    1     1     2    1
    2     1     3    2
    3     1     4    1
    4     4     5    1
    5     4     6    1
    6     4     7    1
    7     7     8    1
    8     7     9    1
    9     7    10    1
   10    10    11    1
   11    10    12    1
   12    10    13    1
   13    13    14    1
   14    13    15    1
   15    13    16    1
@<TRIPOS>SUBSTRUCTURE
       1 MOL1            1 RESIDUE      1      MOL     
@<SCITEGIC>MOL_PROPERTY
VConf Rank
SciTegic.value.IntegerValue
413

@<SCITEGIC>MOL_PROPERTY
Conf_Id
SciTegic.value.IntegerValue
36

@<SCITEGIC>MOL_PROPERTY
Delta U+W
SciTegic.value.DoubleValue
-0.427

@<SCITEGIC>MOL_PROPERTY
U+W
SciTegic.value.DoubleValue
-57.331

@<SCITEGIC>MOL_PROPERTY
Grad RMS
SciTegic.value.DoubleValue
0.000000

@<SCITEGIC>MOL_PROPERTY
U
SciTegic.value.DoubleValue
7.263

@<SCITEGIC>MOL_PROPERTY
W
SciTegic.value.DoubleValue
-64.594

@<SCITEGIC>MOL_PROPERTY
W(PB)
SciTegic.value.DoubleValue
-66.513

@<SCITEGIC>MOL_PROPERTY
W(SA)
SciTegic.value.DoubleValue
1.920

@<SCITEGIC>MOL_PROPERTY
Valence
SciTegic.value.DoubleValue
6.734

@<SCITEGIC>MOL_PROPERTY
Coulomb
SciTegic.value.DoubleValue
-0.068

@<SCITEGIC>MOL_PROPERTY
VdW
SciTegic.value.DoubleValue
0.598

@<SCITEGIC>MOL_PROPERTY
VdW6
SciTegic.value.DoubleValue
-4.819

@<SCITEGIC>MOL_PROPERTY
VdW12
SciTegic.value.DoubleValue
5.417

@<SCITEGIC>MOL_PROPERTY
Bond
SciTegic.value.DoubleValue
0.107

@<SCITEGIC>MOL_PROPERTY
Angle
SciTegic.value.DoubleValue
2.469

@<SCITEGIC>MOL_PROPERTY
Pdih
SciTegic.value.DoubleValue
4.157

@<SCITEGIC>MOL_PROPERTY
Idih
SciTegic.value.DoubleValue
0.001

@<SCITEGIC>MOL_PROPERTY
Tether
SciTegic.value.DoubleValue
0.000

@<TRIPOS>MOLECULE
guest-s18_confgen4.mol2 : confsearch ligand conformer 414
          16          15           1
SMALL
USER_CHARGES
 
@<TRIPOS>ATOM
       1    C1      20.069219   19.629708   19.449708 C.2        1 MOL1         0.6075
       2    O1      20.965412   20.407244   19.188489 O.co2      1 MOL1        -0.6830
       3    O2      19.134945   19.407356   18.705608 O.co2      1 MOL1        -0.6830
       4    C2      20.108179   18.908757   20.792572 C.3        1 MOL1        -0.2050
       5    H1      21.159822   18.743098   21.052804 H          1 MOL1         0.0710
       6    H2      19.645849   17.922808   20.663254 H          1 MOL1         0.0710
       7    C3      19.385596   19.694202   21.917715 C.3        1 MOL1        -0.1947
       8    H3      19.883804   20.662053   22.067261 H          1 MOL1         0.0712
       9    H4      18.361381   19.919400   21.589541 H          1 MOL1         0.0712
      10    C4      19.320205   18.927804   23.258895 C.3        1 MOL1        -0.1921
      11    H5      18.811558   17.964962   23.111948 H          1 MOL1         0.0712
      12    H6      18.702257   19.501255   23.963594 H          1 MOL1         0.0712
      13    C5      20.707665   18.690552   23.892613 C.3        1 MOL1        -0.2936
      14    H7      21.322730   18.025515   23.273578 H          1 MOL1         0.0724
      15    H8      20.603355   18.222716   24.880163 H          1 MOL1         0.0724
      16    H9      21.247309   19.637707   24.022736 H          1 MOL1         0.0724
@<TRIPOS>BOND
    1     1     2    1
    2     1     3    2
    3     1     4    1
    4     4     5    1
    5     4     6    1
    6     4     7    1
    7     7     8    1
    8     7     9    1
    9     7    10    1
   10    10    11    1
   11    10    12    1
   12    10    13    1
   13    13    14    1
   14    13    15    1
   15    13    16    1
@<TRIPOS>SUBSTRUCTURE
       1 MOL1            1 RESIDUE      1      MOL     
@<SCITEGIC>MOL_PROPERTY
VConf Rank
SciTegic.value.IntegerValue
414

@<SCITEGIC>MOL_PROPERTY
Conf_Id
SciTegic.value.IntegerValue
17

@<SCITEGIC>MOL_PROPERTY
Delta U+W
SciTegic.value.DoubleValue
-0.432

@<SCITEGIC>MOL_PROPERTY
U+W
SciTegic.value.DoubleValue
-57.336

@<SCITEGIC>MOL_PROPERTY
Grad RMS
SciTegic.value.DoubleValue
0.000000

@<SCITEGIC>MOL_PROPERTY
U
SciTegic.value.DoubleValue
7.263

@<SCITEGIC>MOL_PROPERTY
W
SciTegic.value.DoubleValue
-64.599

@<SCITEGIC>MOL_PROPERTY
W(PB)
SciTegic.value.DoubleValue
-66.503

@<SCITEGIC>MOL_PROPERTY
W(SA)
SciTegic.value.DoubleValue
1.904

@<SCITEGIC>MOL_PROPERTY
Valence
SciTegic.value.DoubleValue
6.734

@<SCITEGIC>MOL_PROPERTY
Coulomb
SciTegic.value.DoubleValue
-0.068

@<SCITEGIC>MOL_PROPERTY
VdW
SciTegic.value.DoubleValue
0.598

@<SCITEGIC>MOL_PROPERTY
VdW6
SciTegic.value.DoubleValue
-4.819

@<SCITEGIC>MOL_PROPERTY
VdW12
SciTegic.value.DoubleValue
5.417

@<SCITEGIC>MOL_PROPERTY
Bond
SciTegic.value.DoubleValue
0.107

@<SCITEGIC>MOL_PROPERTY
Angle
SciTegic.value.DoubleValue
2.469

@<SCITEGIC>MOL_PROPERTY
Pdih
SciTegic.value.DoubleValue
4.157

@<SCITEGIC>MOL_PROPERTY
Idih
SciTegic.value.DoubleValue
0.001

@<SCITEGIC>MOL_PROPERTY
Tether
SciTegic.value.DoubleValue
0.000

@<TRIPOS>MOLECULE
guest-s18_confgen4.mol2 : confsearch ligand conformer 415
          16          15           1
SMALL
USER_CHARGES
 
@<TRIPOS>ATOM
       1    C1      21.266847   20.854604   23.262679 C.2        1 MOL1         0.6075
       2    O1      21.141565   20.784471   24.469214 O.co2      1 MOL1        -0.6830
       3    O2      22.336875   21.003211   22.706605 O.co2      1 MOL1        -0.6830
       4    C2      20.008489   20.775619   22.402569 C.3        1 MOL1        -0.2050
       5    H1      20.233007   21.193498   21.413604 H          1 MOL1         0.0710
       6    H2      19.256785   21.429874   22.859872 H          1 MOL1         0.0710
       7    C3      19.429536   19.344063   22.259408 C.3        1 MOL1        -0.1947
       8    H3      19.236470   18.927777   23.257934 H          1 MOL1         0.0712
       9    H4      18.459219   19.401543   21.747803 H          1 MOL1         0.0712
      10    C4      20.364828   18.401256   21.471673 C.3        1 MOL1        -0.1921
      11    H5      21.332759   18.319832   21.985680 H          1 MOL1         0.0712
      12    H6      20.566917   18.824874   20.478152 H          1 MOL1         0.0712
      13    C5      19.751044   16.995892   21.314937 C.3        1 MOL1        -0.2936
      14    H7      19.567312   16.536396   22.295016 H          1 MOL1         0.0724
      15    H8      20.428230   16.338672   20.754046 H          1 MOL1         0.0724
      16    H9      18.797219   17.041699   20.773147 H          1 MOL1         0.0724
@<TRIPOS>BOND
    1     1     2    1
    2     1     3    2
    3     1     4    1
    4     4     5    1
    5     4     6    1
    6     4     7    1
    7     7     8    1
    8     7     9    1
    9     7    10    1
   10    10    11    1
   11    10    12    1
   12    10    13    1
   13    13    14    1
   14    13    15    1
   15    13    16    1
@<TRIPOS>SUBSTRUCTURE
       1 MOL1            1 RESIDUE      1      MOL     
@<SCITEGIC>MOL_PROPERTY
VConf Rank
SciTegic.value.IntegerValue
415

@<SCITEGIC>MOL_PROPERTY
Conf_Id
SciTegic.value.IntegerValue
19

@<SCITEGIC>MOL_PROPERTY
Delta U+W
SciTegic.value.DoubleValue
0.048

@<SCITEGIC>MOL_PROPERTY
U+W
SciTegic.value.DoubleValue
-56.856

@<SCITEGIC>MOL_PROPERTY
Grad RMS
SciTegic.value.DoubleValue
0.000000

@<SCITEGIC>MOL_PROPERTY
U
SciTegic.value.DoubleValue
8.276

@<SCITEGIC>MOL_PROPERTY
W
SciTegic.value.DoubleValue
-65.132

@<SCITEGIC>MOL_PROPERTY
W(PB)
SciTegic.value.DoubleValue
-67.031

@<SCITEGIC>MOL_PROPERTY
W(SA)
SciTegic.value.DoubleValue
1.899

@<SCITEGIC>MOL_PROPERTY
Valence
SciTegic.value.DoubleValue
6.513

@<SCITEGIC>MOL_PROPERTY
Coulomb
SciTegic.value.DoubleValue
1.428

@<SCITEGIC>MOL_PROPERTY
VdW
SciTegic.value.DoubleValue
0.335

@<SCITEGIC>MOL_PROPERTY
VdW6
SciTegic.value.DoubleValue
-5.021

@<SCITEGIC>MOL_PROPERTY
VdW12
SciTegic.value.DoubleValue
5.356

@<SCITEGIC>MOL_PROPERTY
Bond
SciTegic.value.DoubleValue
0.092

@<SCITEGIC>MOL_PROPERTY
Angle
SciTegic.value.DoubleValue
2.417

@<SCITEGIC>MOL_PROPERTY
Pdih
SciTegic.value.DoubleValue
4.003

@<SCITEGIC>MOL_PROPERTY
Idih
SciTegic.value.DoubleValue
0.001

@<SCITEGIC>MOL_PROPERTY
Tether
SciTegic.value.DoubleValue
0.000

@<TRIPOS>MOLECULE
guest-s18_confgen4.mol2 : confsearch ligand conformer 416
          16          15           1
SMALL
USER_CHARGES
 
@<TRIPOS>ATOM
       1    C1      20.694120   19.272159   24.305278 C.2        1 MOL1         0.6075
       2    O1      21.139108   20.362654   24.603854 O.co2      1 MOL1        -0.6830
       3    O2      21.284880   18.229095   24.503475 O.co2      1 MOL1        -0.6830
       4    C2      19.308417   19.209956   23.668525 C.3        1 MOL1        -0.2050
       5    H1      18.651290   19.869663   24.247495 H          1 MOL1         0.0710
       6    H2      18.915734   18.192130   23.782172 H          1 MOL1         0.0710
       7    C3      19.279007   19.631043   22.176257 C.3        1 MOL1        -0.1947
       8    H3      18.233965   19.690335   21.843194 H          1 MOL1         0.0712
       9    H4      19.701234   20.640478   22.074328 H          1 MOL1         0.0712
      10    C4      20.047792   18.648337   21.266615 C.3        1 MOL1        -0.1921
      11    H5      19.632559   17.637223   21.378899 H          1 MOL1         0.0712
      12    H6      21.100450   18.596339   21.577952 H          1 MOL1         0.0712
      13    C5      19.974372   19.071550   19.786125 C.3        1 MOL1        -0.2936
      14    H7      18.934065   19.098960   19.436233 H          1 MOL1         0.0724
      15    H8      20.526073   18.363701   19.153913 H          1 MOL1         0.0724
      16    H9      20.411733   20.068054   19.640706 H          1 MOL1         0.0724
@<TRIPOS>BOND
    1     1     2    1
    2     1     3    2
    3     1     4    1
    4     4     5    1
    5     4     6    1
    6     4     7    1
    7     7     8    1
    8     7     9    1
    9     7    10    1
   10    10    11    1
   11    10    12    1
   12    10    13    1
   13    13    14    1
   14    13    15    1
   15    13    16    1
@<TRIPOS>SUBSTRUCTURE
       1 MOL1            1 RESIDUE      1      MOL     
@<SCITEGIC>MOL_PROPERTY
VConf Rank
SciTegic.value.IntegerValue
416

@<SCITEGIC>MOL_PROPERTY
Conf_Id
SciTegic.value.IntegerValue
20

@<SCITEGIC>MOL_PROPERTY
Delta U+W
SciTegic.value.DoubleValue
-0.010

@<SCITEGIC>MOL_PROPERTY
U+W
SciTegic.value.DoubleValue
-56.914

@<SCITEGIC>MOL_PROPERTY
Grad RMS
SciTegic.value.DoubleValue
0.000000

@<SCITEGIC>MOL_PROPERTY
U
SciTegic.value.DoubleValue
8.277

@<SCITEGIC>MOL_PROPERTY
W
SciTegic.value.DoubleValue
-65.191

@<SCITEGIC>MOL_PROPERTY
W(PB)
SciTegic.value.DoubleValue
-67.081

@<SCITEGIC>MOL_PROPERTY
W(SA)
SciTegic.value.DoubleValue
1.890

@<SCITEGIC>MOL_PROPERTY
Valence
SciTegic.value.DoubleValue
6.513

@<SCITEGIC>MOL_PROPERTY
Coulomb
SciTegic.value.DoubleValue
1.429

@<SCITEGIC>MOL_PROPERTY
VdW
SciTegic.value.DoubleValue
0.335

@<SCITEGIC>MOL_PROPERTY
VdW6
SciTegic.value.DoubleValue
-5.021

@<SCITEGIC>MOL_PROPERTY
VdW12
SciTegic.value.DoubleValue
5.356

@<SCITEGIC>MOL_PROPERTY
Bond
SciTegic.value.DoubleValue
0.092

@<SCITEGIC>MOL_PROPERTY
Angle
SciTegic.value.DoubleValue
2.417

@<SCITEGIC>MOL_PROPERTY
Pdih
SciTegic.value.DoubleValue
4.002

@<SCITEGIC>MOL_PROPERTY
Idih
SciTegic.value.DoubleValue
0.001

@<SCITEGIC>MOL_PROPERTY
Tether
SciTegic.value.DoubleValue
0.000

@<TRIPOS>MOLECULE
guest-s18_confgen4.mol2 : confsearch ligand conformer 417
          16          15           1
SMALL
USER_CHARGES
 
@<TRIPOS>ATOM
       1    C1      19.900493   17.015903   22.285012 C.2        1 MOL1         0.6075
       2    O1      19.027006   16.362945   22.821156 O.co2      1 MOL1        -0.6830
       3    O2      21.086727   16.824106   22.464912 O.co2      1 MOL1        -0.6830
       4    C2      19.482895   18.111932   21.308243 C.3        1 MOL1        -0.2050
       5    H1      18.771259   17.666020   20.603531 H          1 MOL1         0.0710
       6    H2      20.357502   18.409911   20.718736 H          1 MOL1         0.0710
       7    C3      18.829524   19.349417   21.982346 C.3        1 MOL1        -0.1947
       8    H3      18.489936   20.046096   21.204085 H          1 MOL1         0.0712
       9    H4      17.927673   19.023717   22.518945 H          1 MOL1         0.0712
      10    C4      19.754424   20.100580   22.969414 C.3        1 MOL1        -0.1921
      11    H5      20.073506   19.422692   23.773311 H          1 MOL1         0.0712
      12    H6      19.178298   20.902258   23.451617 H          1 MOL1         0.0712
      13    C5      20.995425   20.718302   22.290608 C.3        1 MOL1        -0.2936
      14    H7      21.664567   19.940466   21.901110 H          1 MOL1         0.0724
      15    H8      21.567633   21.317912   23.010265 H          1 MOL1         0.0724
      16    H9      20.704732   21.373491   21.459169 H          1 MOL1         0.0724
@<TRIPOS>BOND
    1     1     2    1
    2     1     3    2
    3     1     4    1
    4     4     5    1
    5     4     6    1
    6     4     7    1
    7     7     8    1
    8     7     9    1
    9     7    10    1
   10    10    11    1
   11    10    12    1
   12    10    13    1
   13    13    14    1
   14    13    15    1
   15    13    16    1
@<TRIPOS>SUBSTRUCTURE
       1 MOL1            1 RESIDUE      1      MOL     
@<SCITEGIC>MOL_PROPERTY
VConf Rank
SciTegic.value.IntegerValue
417

@<SCITEGIC>MOL_PROPERTY
Conf_Id
SciTegic.value.IntegerValue
37

@<SCITEGIC>MOL_PROPERTY
Delta U+W
SciTegic.value.DoubleValue
1.063

@<SCITEGIC>MOL_PROPERTY
U+W
SciTegic.value.DoubleValue
-55.841

@<SCITEGIC>MOL_PROPERTY
Grad RMS
SciTegic.value.DoubleValue
0.000000

@<SCITEGIC>MOL_PROPERTY
U
SciTegic.value.DoubleValue
9.719

@<SCITEGIC>MOL_PROPERTY
W
SciTegic.value.DoubleValue
-65.560

@<SCITEGIC>MOL_PROPERTY
W(PB)
SciTegic.value.DoubleValue
-67.414

@<SCITEGIC>MOL_PROPERTY
W(SA)
SciTegic.value.DoubleValue
1.854

@<SCITEGIC>MOL_PROPERTY
Valence
SciTegic.value.DoubleValue
7.002

@<SCITEGIC>MOL_PROPERTY
Coulomb
SciTegic.value.DoubleValue
2.402

@<SCITEGIC>MOL_PROPERTY
VdW
SciTegic.value.DoubleValue
0.314

@<SCITEGIC>MOL_PROPERTY
VdW6
SciTegic.value.DoubleValue
-5.861

@<SCITEGIC>MOL_PROPERTY
VdW12
SciTegic.value.DoubleValue
6.175

@<SCITEGIC>MOL_PROPERTY
Bond
SciTegic.value.DoubleValue
0.134

@<SCITEGIC>MOL_PROPERTY
Angle
SciTegic.value.DoubleValue
2.733

@<SCITEGIC>MOL_PROPERTY
Pdih
SciTegic.value.DoubleValue
4.133

@<SCITEGIC>MOL_PROPERTY
Idih
SciTegic.value.DoubleValue
0.002

@<SCITEGIC>MOL_PROPERTY
Tether
SciTegic.value.DoubleValue
0.000

@<TRIPOS>MOLECULE
guest-s18_confgen4.mol2 : confsearch ligand conformer 418
          16          15           1
SMALL
USER_CHARGES
 
@<TRIPOS>ATOM
       1    C1      22.215876   19.367880   22.666381 C.2        1 MOL1         0.6075
       2    O1      22.943921   20.171036   22.117131 O.co2      1 MOL1        -0.6830
       3    O2      22.176549   19.213156   23.870879 O.co2      1 MOL1        -0.6830
       4    C2      21.330349   18.483871   21.792243 C.3        1 MOL1        -0.2050
       5    H1      20.955478   17.651699   22.399046 H          1 MOL1         0.0710
       6    H2      21.972110   18.041156   21.021511 H          1 MOL1         0.0710
       7    C3      20.155418   19.237021   21.110346 C.3        1 MOL1        -0.1947
       8    H3      20.568288   20.028049   20.469123 H          1 MOL1         0.0712
       9    H4      19.623675   18.545732   20.442708 H          1 MOL1         0.0712
      10    C4      19.145309   19.869783   22.096898 C.3        1 MOL1        -0.1921
      11    H5      18.405409   20.444782   21.523267 H          1 MOL1         0.0712
      12    H6      19.659252   20.590294   22.748298 H          1 MOL1         0.0712
      13    C5      18.404502   18.827596   22.961476 C.3        1 MOL1        -0.2936
      14    H7      17.910974   18.074113   22.333974 H          1 MOL1         0.0724
      15    H8      17.635040   19.314806   23.574187 H          1 MOL1         0.0724
      16    H9      19.094149   18.313175   23.642831 H          1 MOL1         0.0724
@<TRIPOS>BOND
    1     1     2    1
    2     1     3    2
    3     1     4    1
    4     4     5    1
    5     4     6    1
    6     4     7    1
    7     7     8    1
    8     7     9    1
    9     7    10    1
   10    10    11    1
   11    10    12    1
   12    10    13    1
   13    13    14    1
   14    13    15    1
   15    13    16    1
@<TRIPOS>SUBSTRUCTURE
       1 MOL1            1 RESIDUE      1      MOL     
@<SCITEGIC>MOL_PROPERTY
VConf Rank
SciTegic.value.IntegerValue
418

@<SCITEGIC>MOL_PROPERTY
Conf_Id
SciTegic.value.IntegerValue
39

@<SCITEGIC>MOL_PROPERTY
Delta U+W
SciTegic.value.DoubleValue
1.129

@<SCITEGIC>MOL_PROPERTY
U+W
SciTegic.value.DoubleValue
-55.775

@<SCITEGIC>MOL_PROPERTY
Grad RMS
SciTegic.value.DoubleValue
0.000000

@<SCITEGIC>MOL_PROPERTY
U
SciTegic.value.DoubleValue
9.718

@<SCITEGIC>MOL_PROPERTY
W
SciTegic.value.DoubleValue
-65.493

@<SCITEGIC>MOL_PROPERTY
W(PB)
SciTegic.value.DoubleValue
-67.361

@<SCITEGIC>MOL_PROPERTY
W(SA)
SciTegic.value.DoubleValue
1.869

@<SCITEGIC>MOL_PROPERTY
Valence
SciTegic.value.DoubleValue
7.002

@<SCITEGIC>MOL_PROPERTY
Coulomb
SciTegic.value.DoubleValue
2.402

@<SCITEGIC>MOL_PROPERTY
VdW
SciTegic.value.DoubleValue
0.314

@<SCITEGIC>MOL_PROPERTY
VdW6
SciTegic.value.DoubleValue
-5.861

@<SCITEGIC>MOL_PROPERTY
VdW12
SciTegic.value.DoubleValue
6.175

@<SCITEGIC>MOL_PROPERTY
Bond
SciTegic.value.DoubleValue
0.134

@<SCITEGIC>MOL_PROPERTY
Angle
SciTegic.value.DoubleValue
2.734

@<SCITEGIC>MOL_PROPERTY
Pdih
SciTegic.value.DoubleValue
4.133

@<SCITEGIC>MOL_PROPERTY
Idih
SciTegic.value.DoubleValue
0.002

@<SCITEGIC>MOL_PROPERTY
Tether
SciTegic.value.DoubleValue
0.000

@<TRIPOS>MOLECULE
guest-s18_confgen4.mol2 : confsearch ligand conformer 419
          16          15           1
SMALL
USER_CHARGES
 
@<TRIPOS>ATOM
       1    C1      20.211354   20.541659   20.947150 C.2        1 MOL1         0.6075
       2    O1      20.279684   20.103773   19.815599 O.co2      1 MOL1        -0.6830
       3    O2      21.020012   21.320457   21.412667 O.co2      1 MOL1        -0.6830
       4    C2      18.998050   20.163120   21.794652 C.3        1 MOL1        -0.2050
       5    H1      18.333544   19.523659   21.200936 H          1 MOL1         0.0710
       6    H2      18.450628   21.093971   21.983321 H          1 MOL1         0.0710
       7    C3      19.323436   19.484442   23.154984 C.3        1 MOL1        -0.1947
       8    H3      20.141253   20.021478   23.655291 H          1 MOL1         0.0712
       9    H4      18.446165   19.593898   23.806802 H          1 MOL1         0.0712
      10    C4      19.656936   17.975898   23.062063 C.3        1 MOL1        -0.1921
      11    H5      18.837913   17.442992   22.559626 H          1 MOL1         0.0712
      12    H6      19.710426   17.568654   24.081173 H          1 MOL1         0.0712
      13    C5      20.989255   17.674558   22.344842 C.3        1 MOL1        -0.2936
      14    H7      20.930186   17.912657   21.275815 H          1 MOL1         0.0724
      15    H8      21.239925   16.609516   22.432132 H          1 MOL1         0.0724
      16    H9      21.812521   18.254088   22.782687 H          1 MOL1         0.0724
@<TRIPOS>BOND
    1     1     2    1
    2     1     3    2
    3     1     4    1
    4     4     5    1
    5     4     6    1
    6     4     7    1
    7     7     8    1
    8     7     9    1
    9     7    10    1
   10    10    11    1
   11    10    12    1
   12    10    13    1
   13    13    14    1
   14    13    15    1
   15    13    16    1
@<TRIPOS>SUBSTRUCTURE
       1 MOL1            1 RESIDUE      1      MOL     
@<SCITEGIC>MOL_PROPERTY
VConf Rank
SciTegic.value.IntegerValue
419

@<SCITEGIC>MOL_PROPERTY
Conf_Id
SciTegic.value.IntegerValue
47

@<SCITEGIC>MOL_PROPERTY
Delta U+W
SciTegic.value.DoubleValue
2.301

@<SCITEGIC>MOL_PROPERTY
U+W
SciTegic.value.DoubleValue
-54.603

@<SCITEGIC>MOL_PROPERTY
Grad RMS
SciTegic.value.DoubleValue
0.000000

@<SCITEGIC>MOL_PROPERTY
U
SciTegic.value.DoubleValue
11.258

@<SCITEGIC>MOL_PROPERTY
W
SciTegic.value.DoubleValue
-65.861

@<SCITEGIC>MOL_PROPERTY
W(PB)
SciTegic.value.DoubleValue
-67.702

@<SCITEGIC>MOL_PROPERTY
W(SA)
SciTegic.value.DoubleValue
1.841

@<SCITEGIC>MOL_PROPERTY
Valence
SciTegic.value.DoubleValue
8.169

@<SCITEGIC>MOL_PROPERTY
Coulomb
SciTegic.value.DoubleValue
2.735

@<SCITEGIC>MOL_PROPERTY
VdW
SciTegic.value.DoubleValue
0.355

@<SCITEGIC>MOL_PROPERTY
VdW6
SciTegic.value.DoubleValue
-6.245

@<SCITEGIC>MOL_PROPERTY
VdW12
SciTegic.value.DoubleValue
6.600

@<SCITEGIC>MOL_PROPERTY
Bond
SciTegic.value.DoubleValue
0.149

@<SCITEGIC>MOL_PROPERTY
Angle
SciTegic.value.DoubleValue
3.168

@<SCITEGIC>MOL_PROPERTY
Pdih
SciTegic.value.DoubleValue
4.840

@<SCITEGIC>MOL_PROPERTY
Idih
SciTegic.value.DoubleValue
0.011

@<SCITEGIC>MOL_PROPERTY
Tether
SciTegic.value.DoubleValue
0.000

@<TRIPOS>MOLECULE
guest-s18_confgen4.mol2 : confsearch ligand conformer 420
          16          15           1
SMALL
USER_CHARGES
 
@<TRIPOS>ATOM
       1    C1      18.253670   20.269840   22.161778 C.2        1 MOL1         0.6075
       2    O1      18.268584   20.865851   21.102671 O.co2      1 MOL1        -0.6830
       3    O2      18.027635   20.807103   23.228115 O.co2      1 MOL1        -0.6830
       4    C2      18.439078   18.753612   22.143251 C.3        1 MOL1        -0.2050
       5    H1      17.608335   18.348110   21.554029 H          1 MOL1         0.0710
       6    H2      18.318407   18.366876   23.162493 H          1 MOL1         0.0710
       7    C3      19.780023   18.255591   21.534295 C.3        1 MOL1        -0.1947
       8    H3      19.650543   17.204319   21.243579 H          1 MOL1         0.0712
       9    H4      19.995494   18.802192   20.605672 H          1 MOL1         0.0712
      10    C4      20.994013   18.334446   22.491150 C.3        1 MOL1        -0.1921
      11    H5      21.840809   17.815339   22.021302 H          1 MOL1         0.0712
      12    H6      20.773918   17.788444   23.418874 H          1 MOL1         0.0712
      13    C5      21.430226   19.775454   22.828048 C.3        1 MOL1        -0.2936
      14    H7      22.372300   19.769635   23.391280 H          1 MOL1         0.0724
      15    H8      20.680595   20.285815   23.444965 H          1 MOL1         0.0724
      16    H9      21.584524   20.364392   21.914444 H          1 MOL1         0.0724
@<TRIPOS>BOND
    1     1     2    1
    2     1     3    2
    3     1     4    1
    4     4     5    1
    5     4     6    1
    6     4     7    1
    7     7     8    1
    8     7     9    1
    9     7    10    1
   10    10    11    1
   11    10    12    1
   12    10    13    1
   13    13    14    1
   14    13    15    1
   15    13    16    1
@<TRIPOS>SUBSTRUCTURE
       1 MOL1            1 RESIDUE      1      MOL     
@<SCITEGIC>MOL_PROPERTY
VConf Rank
SciTegic.value.IntegerValue
420

@<SCITEGIC>MOL_PROPERTY
Conf_Id
SciTegic.value.IntegerValue
45

@<SCITEGIC>MOL_PROPERTY
Delta U+W
SciTegic.value.DoubleValue
2.303

@<SCITEGIC>MOL_PROPERTY
U+W
SciTegic.value.DoubleValue
-54.601

@<SCITEGIC>MOL_PROPERTY
Grad RMS
SciTegic.value.DoubleValue
0.000000

@<SCITEGIC>MOL_PROPERTY
U
SciTegic.value.DoubleValue
11.258

@<SCITEGIC>MOL_PROPERTY
W
SciTegic.value.DoubleValue
-65.860

@<SCITEGIC>MOL_PROPERTY
W(PB)
SciTegic.value.DoubleValue
-67.709

@<SCITEGIC>MOL_PROPERTY
W(SA)
SciTegic.value.DoubleValue
1.849

@<SCITEGIC>MOL_PROPERTY
Valence
SciTegic.value.DoubleValue
8.169

@<SCITEGIC>MOL_PROPERTY
Coulomb
SciTegic.value.DoubleValue
2.735

@<SCITEGIC>MOL_PROPERTY
VdW
SciTegic.value.DoubleValue
0.355

@<SCITEGIC>MOL_PROPERTY
VdW6
SciTegic.value.DoubleValue
-6.245

@<SCITEGIC>MOL_PROPERTY
VdW12
SciTegic.value.DoubleValue
6.600

@<SCITEGIC>MOL_PROPERTY
Bond
SciTegic.value.DoubleValue
0.149

@<SCITEGIC>MOL_PROPERTY
Angle
SciTegic.value.DoubleValue
3.168

@<SCITEGIC>MOL_PROPERTY
Pdih
SciTegic.value.DoubleValue
4.840

@<SCITEGIC>MOL_PROPERTY
Idih
SciTegic.value.DoubleValue
0.011

@<SCITEGIC>MOL_PROPERTY
Tether
SciTegic.value.DoubleValue
0.000

@<TRIPOS>MOLECULE
guest-s18_confgen4.mol2 : confsearch ligand conformer 421
          16          15           1
SMALL
USER_CHARGES
 
@<TRIPOS>ATOM
       1    C1      20.961646   17.288350   20.104809 C.2        1 MOL1         0.6075
       2    O1      21.285285   16.475068   20.948377 O.co2      1 MOL1        -0.6830
       3    O2      21.120986   17.106883   18.914433 O.co2      1 MOL1        -0.6830
       4    C2      20.322007   18.611199   20.530046 C.3        1 MOL1        -0.2050
       5    H1      19.348588   18.679639   20.030114 H          1 MOL1         0.0710
       6    H2      20.945437   19.419630   20.130123 H          1 MOL1         0.0710
       7    C3      20.139320   18.798706   22.059691 C.3        1 MOL1        -0.1947
       8    H3      19.518535   17.982971   22.455509 H          1 MOL1         0.0712
       9    H4      21.117027   18.723740   22.555613 H          1 MOL1         0.0712
      10    C4      19.488852   20.156688   22.397381 C.3        1 MOL1        -0.1921
      11    H5      18.510173   20.232224   21.903436 H          1 MOL1         0.0712
      12    H6      20.109614   20.973446   22.003603 H          1 MOL1         0.0712
      13    C5      19.310068   20.337002   23.917796 C.3        1 MOL1        -0.2936
      14    H7      18.666761   19.550402   24.333590 H          1 MOL1         0.0724
      15    H8      18.846627   21.306937   24.140484 H          1 MOL1         0.0724
      16    H9      20.278000   20.297094   24.434501 H          1 MOL1         0.0724
@<TRIPOS>BOND
    1     1     2    1
    2     1     3    2
    3     1     4    1
    4     4     5    1
    5     4     6    1
    6     4     7    1
    7     7     8    1
    8     7     9    1
    9     7    10    1
   10    10    11    1
   11    10    12    1
   12    10    13    1
   13    13    14    1
   14    13    15    1
   15    13    16    1
@<TRIPOS>SUBSTRUCTURE
       1 MOL1            1 RESIDUE      1      MOL     
@<SCITEGIC>MOL_PROPERTY
VConf Rank
SciTegic.value.IntegerValue
421

@<SCITEGIC>MOL_PROPERTY
Conf_Id
SciTegic.value.IntegerValue
0

@<SCITEGIC>MOL_PROPERTY
Delta U+W
SciTegic.value.DoubleValue
0.000

@<SCITEGIC>MOL_PROPERTY
U+W
SciTegic.value.DoubleValue
-56.904

@<SCITEGIC>MOL_PROPERTY
Grad RMS
SciTegic.value.DoubleValue
0.000000

@<SCITEGIC>MOL_PROPERTY
U
SciTegic.value.DoubleValue
7.329

@<SCITEGIC>MOL_PROPERTY
W
SciTegic.value.DoubleValue
-64.233

@<SCITEGIC>MOL_PROPERTY
W(PB)
SciTegic.value.DoubleValue
-66.148

@<SCITEGIC>MOL_PROPERTY
W(SA)
SciTegic.value.DoubleValue
1.915

@<SCITEGIC>MOL_PROPERTY
Valence
SciTegic.value.DoubleValue
6.755

@<SCITEGIC>MOL_PROPERTY
Coulomb
SciTegic.value.DoubleValue
-0.421

@<SCITEGIC>MOL_PROPERTY
VdW
SciTegic.value.DoubleValue
0.995

@<SCITEGIC>MOL_PROPERTY
VdW6
SciTegic.value.DoubleValue
-4.495

@<SCITEGIC>MOL_PROPERTY
VdW12
SciTegic.value.DoubleValue
5.490

@<SCITEGIC>MOL_PROPERTY
Bond
SciTegic.value.DoubleValue
0.106

@<SCITEGIC>MOL_PROPERTY
Angle
SciTegic.value.DoubleValue
2.715

@<SCITEGIC>MOL_PROPERTY
Pdih
SciTegic.value.DoubleValue
3.934

@<SCITEGIC>MOL_PROPERTY
Idih
SciTegic.value.DoubleValue
0.000

@<SCITEGIC>MOL_PROPERTY
Tether
SciTegic.value.DoubleValue
0.000

@<TRIPOS>MOLECULE
guest-s18_confgen4.mol2 : confsearch ligand conformer 422
          16          15           1
SMALL
USER_CHARGES
 
@<TRIPOS>ATOM
       1    C1      18.142493   17.424002   20.945860 C.2        1 MOL1         0.6075
       2    O1      17.852902   16.498772   21.677933 O.co2      1 MOL1        -0.6830
       3    O2      17.362963   17.932532   20.165108 O.co2      1 MOL1        -0.6830
       4    C2      19.556157   17.989692   21.024165 C.3        1 MOL1        -0.2050
       5    H1      19.834884   18.350452   20.026662 H          1 MOL1         0.0710
       6    H2      20.238784   17.168446   21.274015 H          1 MOL1         0.0710
       7    C3      19.691970   19.131130   22.061824 C.3        1 MOL1        -0.1947
       8    H3      18.993813   19.940006   21.805219 H          1 MOL1         0.0712
       9    H4      19.397665   18.757968   23.052625 H          1 MOL1         0.0712
      10    C4      21.130762   19.685152   22.120995 C.3        1 MOL1        -0.1921
      11    H5      21.425198   20.059045   21.130515 H          1 MOL1         0.0712
      12    H6      21.829164   18.876688   22.378209 H          1 MOL1         0.0712
      13    C5      21.258454   20.820613   23.155655 C.3        1 MOL1        -0.2936
      14    H7      20.999742   20.465934   24.162006 H          1 MOL1         0.0724
      15    H8      20.592773   21.657014   22.905109 H          1 MOL1         0.0724
      16    H9      22.287021   21.203146   23.185123 H          1 MOL1         0.0724
@<TRIPOS>BOND
    1     1     2    1
    2     1     3    2
    3     1     4    1
    4     4     5    1
    5     4     6    1
    6     4     7    1
    7     7     8    1
    8     7     9    1
    9     7    10    1
   10    10    11    1
   11    10    12    1
   12    10    13    1
   13    13    14    1
   14    13    15    1
   15    13    16    1
@<TRIPOS>SUBSTRUCTURE
       1 MOL1            1 RESIDUE      1      MOL     
@<SCITEGIC>MOL_PROPERTY
VConf Rank
SciTegic.value.IntegerValue
422

@<SCITEGIC>MOL_PROPERTY
Conf_Id
SciTegic.value.IntegerValue
22

@<SCITEGIC>MOL_PROPERTY
Delta U+W
SciTegic.value.DoubleValue
-1.185

@<SCITEGIC>MOL_PROPERTY
U+W
SciTegic.value.DoubleValue
-58.089

@<SCITEGIC>MOL_PROPERTY
Grad RMS
SciTegic.value.DoubleValue
0.000000

@<SCITEGIC>MOL_PROPERTY
U
SciTegic.value.DoubleValue
6.298

@<SCITEGIC>MOL_PROPERTY
W
SciTegic.value.DoubleValue
-64.387

@<SCITEGIC>MOL_PROPERTY
W(PB)
SciTegic.value.DoubleValue
-66.329

@<SCITEGIC>MOL_PROPERTY
W(SA)
SciTegic.value.DoubleValue
1.942

@<SCITEGIC>MOL_PROPERTY
Valence
SciTegic.value.DoubleValue
6.246

@<SCITEGIC>MOL_PROPERTY
Coulomb
SciTegic.value.DoubleValue
-0.408

@<SCITEGIC>MOL_PROPERTY
VdW
SciTegic.value.DoubleValue
0.460

@<SCITEGIC>MOL_PROPERTY
VdW6
SciTegic.value.DoubleValue
-4.207

@<SCITEGIC>MOL_PROPERTY
VdW12
SciTegic.value.DoubleValue
4.667

@<SCITEGIC>MOL_PROPERTY
Bond
SciTegic.value.DoubleValue
0.072

@<SCITEGIC>MOL_PROPERTY
Angle
SciTegic.value.DoubleValue
2.246

@<SCITEGIC>MOL_PROPERTY
Pdih
SciTegic.value.DoubleValue
3.928

@<SCITEGIC>MOL_PROPERTY
Idih
SciTegic.value.DoubleValue
0.001

@<SCITEGIC>MOL_PROPERTY
Tether
SciTegic.value.DoubleValue
0.000

@<TRIPOS>MOLECULE
guest-s18_confgen4.mol2 : confsearch ligand conformer 423
          16          15           1
SMALL
USER_CHARGES
 
@<TRIPOS>ATOM
       1    C1      21.637568   18.723804   20.059663 C.2        1 MOL1         0.6075
       2    O1      21.403347   19.049519   18.912909 O.co2      1 MOL1        -0.6830
       3    O2      22.454681   17.877792   20.363878 O.co2      1 MOL1        -0.6830
       4    C2      20.848758   19.399298   21.175933 C.3        1 MOL1        -0.2050
       5    H1      20.624813   20.425756   20.861613 H          1 MOL1         0.0710
       6    H2      21.500623   19.463248   22.054625 H          1 MOL1         0.0710
       7    C3      19.536964   18.648954   21.524034 C.3        1 MOL1        -0.1947
       8    H3      18.946443   18.525335   20.605649 H          1 MOL1         0.0712
       9    H4      19.776546   17.636707   21.877964 H          1 MOL1         0.0712
      10    C4      18.671251   19.378931   22.576688 C.3        1 MOL1        -0.1921
      11    H5      17.718307   18.842501   22.683694 H          1 MOL1         0.0712
      12    H6      18.421700   20.387037   22.217763 H          1 MOL1         0.0712
      13    C5      19.347385   19.473409   23.961192 C.3        1 MOL1        -0.2936
      14    H7      20.248118   20.098867   23.925624 H          1 MOL1         0.0724
      15    H8      19.632369   18.478663   24.327951 H          1 MOL1         0.0724
      16    H9      18.661843   19.919751   24.693188 H          1 MOL1         0.0724
@<TRIPOS>BOND
    1     1     2    1
    2     1     3    2
    3     1     4    1
    4     4     5    1
    5     4     6    1
    6     4     7    1
    7     7     8    1
    8     7     9    1
    9     7    10    1
   10    10    11    1
   11    10    12    1
   12    10    13    1
   13    13    14    1
   14    13    15    1
   15    13    16    1
@<TRIPOS>SUBSTRUCTURE
       1 MOL1            1 RESIDUE      1      MOL     
@<SCITEGIC>MOL_PROPERTY
VConf Rank
SciTegic.value.IntegerValue
423

@<SCITEGIC>MOL_PROPERTY
Conf_Id
SciTegic.value.IntegerValue
36

@<SCITEGIC>MOL_PROPERTY
Delta U+W
SciTegic.value.DoubleValue
-0.427

@<SCITEGIC>MOL_PROPERTY
U+W
SciTegic.value.DoubleValue
-57.331

@<SCITEGIC>MOL_PROPERTY
Grad RMS
SciTegic.value.DoubleValue
0.000000

@<SCITEGIC>MOL_PROPERTY
U
SciTegic.value.DoubleValue
7.263

@<SCITEGIC>MOL_PROPERTY
W
SciTegic.value.DoubleValue
-64.594

@<SCITEGIC>MOL_PROPERTY
W(PB)
SciTegic.value.DoubleValue
-66.513

@<SCITEGIC>MOL_PROPERTY
W(SA)
SciTegic.value.DoubleValue
1.920

@<SCITEGIC>MOL_PROPERTY
Valence
SciTegic.value.DoubleValue
6.734

@<SCITEGIC>MOL_PROPERTY
Coulomb
SciTegic.value.DoubleValue
-0.068

@<SCITEGIC>MOL_PROPERTY
VdW
SciTegic.value.DoubleValue
0.598

@<SCITEGIC>MOL_PROPERTY
VdW6
SciTegic.value.DoubleValue
-4.819

@<SCITEGIC>MOL_PROPERTY
VdW12
SciTegic.value.DoubleValue
5.417

@<SCITEGIC>MOL_PROPERTY
Bond
SciTegic.value.DoubleValue
0.107

@<SCITEGIC>MOL_PROPERTY
Angle
SciTegic.value.DoubleValue
2.469

@<SCITEGIC>MOL_PROPERTY
Pdih
SciTegic.value.DoubleValue
4.157

@<SCITEGIC>MOL_PROPERTY
Idih
SciTegic.value.DoubleValue
0.001

@<SCITEGIC>MOL_PROPERTY
Tether
SciTegic.value.DoubleValue
0.000

@<TRIPOS>MOLECULE
guest-s18_confgen4.mol2 : confsearch ligand conformer 424
          16          15           1
SMALL
USER_CHARGES
 
@<TRIPOS>ATOM
       1    C1      19.409446   17.169236   20.407843 C.2        1 MOL1         0.6075
       2    O1      18.246074   16.835480   20.513343 O.co2      1 MOL1        -0.6830
       3    O2      20.270228   16.460584   19.925287 O.co2      1 MOL1        -0.6830
       4    C2      19.815527   18.543936   20.927335 C.3        1 MOL1        -0.2050
       5    H1      18.966799   19.221384   20.779544 H          1 MOL1         0.0710
       6    H2      20.639082   18.913599   20.304701 H          1 MOL1         0.0710
       7    C3      20.241535   18.521351   22.418309 C.3        1 MOL1        -0.1947
       8    H3      19.395464   18.190360   23.036305 H          1 MOL1         0.0712
       9    H4      21.033447   17.770700   22.548025 H          1 MOL1         0.0712
      10    C4      20.760643   19.884581   22.930692 C.3        1 MOL1        -0.1921
      11    H5      21.614219   20.210162   22.320129 H          1 MOL1         0.0712
      12    H6      21.141324   19.755801   23.953338 H          1 MOL1         0.0712
      13    C5      19.677717   20.984651   22.937600 C.3        1 MOL1        -0.2936
      14    H7      19.347228   21.228272   21.920148 H          1 MOL1         0.0724
      15    H8      20.069250   21.905484   23.389016 H          1 MOL1         0.0724
      16    H9      18.801305   20.669558   23.518865 H          1 MOL1         0.0724
@<TRIPOS>BOND
    1     1     2    1
    2     1     3    2
    3     1     4    1
    4     4     5    1
    5     4     6    1
    6     4     7    1
    7     7     8    1
    8     7     9    1
    9     7    10    1
   10    10    11    1
   11    10    12    1
   12    10    13    1
   13    13    14    1
   14    13    15    1
   15    13    16    1
@<TRIPOS>SUBSTRUCTURE
       1 MOL1            1 RESIDUE      1      MOL     
@<SCITEGIC>MOL_PROPERTY
VConf Rank
SciTegic.value.IntegerValue
424

@<SCITEGIC>MOL_PROPERTY
Conf_Id
SciTegic.value.IntegerValue
17

@<SCITEGIC>MOL_PROPERTY
Delta U+W
SciTegic.value.DoubleValue
-0.432

@<SCITEGIC>MOL_PROPERTY
U+W
SciTegic.value.DoubleValue
-57.336

@<SCITEGIC>MOL_PROPERTY
Grad RMS
SciTegic.value.DoubleValue
0.000000

@<SCITEGIC>MOL_PROPERTY
U
SciTegic.value.DoubleValue
7.263

@<SCITEGIC>MOL_PROPERTY
W
SciTegic.value.DoubleValue
-64.599

@<SCITEGIC>MOL_PROPERTY
W(PB)
SciTegic.value.DoubleValue
-66.503

@<SCITEGIC>MOL_PROPERTY
W(SA)
SciTegic.value.DoubleValue
1.904

@<SCITEGIC>MOL_PROPERTY
Valence
SciTegic.value.DoubleValue
6.734

@<SCITEGIC>MOL_PROPERTY
Coulomb
SciTegic.value.DoubleValue
-0.068

@<SCITEGIC>MOL_PROPERTY
VdW
SciTegic.value.DoubleValue
0.598

@<SCITEGIC>MOL_PROPERTY
VdW6
SciTegic.value.DoubleValue
-4.819

@<SCITEGIC>MOL_PROPERTY
VdW12
SciTegic.value.DoubleValue
5.417

@<SCITEGIC>MOL_PROPERTY
Bond
SciTegic.value.DoubleValue
0.107

@<SCITEGIC>MOL_PROPERTY
Angle
SciTegic.value.DoubleValue
2.469

@<SCITEGIC>MOL_PROPERTY
Pdih
SciTegic.value.DoubleValue
4.157

@<SCITEGIC>MOL_PROPERTY
Idih
SciTegic.value.DoubleValue
0.001

@<SCITEGIC>MOL_PROPERTY
Tether
SciTegic.value.DoubleValue
0.000

@<TRIPOS>MOLECULE
guest-s18_confgen4.mol2 : confsearch ligand conformer 425
          16          15           1
SMALL
USER_CHARGES
 
@<TRIPOS>ATOM
       1    C1      20.517056   17.235718   20.730392 C.2        1 MOL1         0.6075
       2    O1      19.784304   17.175221   19.763046 O.co2      1 MOL1        -0.6830
       3    O2      21.722086   17.092706   20.669467 O.co2      1 MOL1        -0.6830
       4    C2      19.885057   17.480733   22.097885 C.3        1 MOL1        -0.2050
       5    H1      20.594188   17.166120   22.873278 H          1 MOL1         0.0710
       6    H2      19.013053   16.821035   22.179376 H          1 MOL1         0.0710
       7    C3      19.446853   18.948881   22.337793 C.3        1 MOL1        -0.1947
       8    H3      18.759694   19.259104   21.538294 H          1 MOL1         0.0712
       9    H4      18.882422   19.003162   23.278554 H          1 MOL1         0.0712
      10    C4      20.643555   19.922262   22.405723 C.3        1 MOL1        -0.1921
      11    H5      21.204416   19.891592   21.461150 H          1 MOL1         0.0712
      12    H6      21.335929   19.603702   23.197251 H          1 MOL1         0.0712
      13    C5      20.182899   21.367877   22.678368 C.3        1 MOL1        -0.2936
      14    H7      19.512761   21.722547   21.884280 H          1 MOL1         0.0724
      15    H8      21.044762   22.046363   22.722720 H          1 MOL1         0.0724
      16    H9      19.648067   21.436259   23.634764 H          1 MOL1         0.0724
@<TRIPOS>BOND
    1     1     2    1
    2     1     3    2
    3     1     4    1
    4     4     5    1
    5     4     6    1
    6     4     7    1
    7     7     8    1
    8     7     9    1
    9     7    10    1
   10    10    11    1
   11    10    12    1
   12    10    13    1
   13    13    14    1
   14    13    15    1
   15    13    16    1
@<TRIPOS>SUBSTRUCTURE
       1 MOL1            1 RESIDUE      1      MOL     
@<SCITEGIC>MOL_PROPERTY
VConf Rank
SciTegic.value.IntegerValue
425

@<SCITEGIC>MOL_PROPERTY
Conf_Id
SciTegic.value.IntegerValue
19

@<SCITEGIC>MOL_PROPERTY
Delta U+W
SciTegic.value.DoubleValue
0.048

@<SCITEGIC>MOL_PROPERTY
U+W
SciTegic.value.DoubleValue
-56.856

@<SCITEGIC>MOL_PROPERTY
Grad RMS
SciTegic.value.DoubleValue
0.000000

@<SCITEGIC>MOL_PROPERTY
U
SciTegic.value.DoubleValue
8.276

@<SCITEGIC>MOL_PROPERTY
W
SciTegic.value.DoubleValue
-65.132

@<SCITEGIC>MOL_PROPERTY
W(PB)
SciTegic.value.DoubleValue
-67.031

@<SCITEGIC>MOL_PROPERTY
W(SA)
SciTegic.value.DoubleValue
1.899

@<SCITEGIC>MOL_PROPERTY
Valence
SciTegic.value.DoubleValue
6.513

@<SCITEGIC>MOL_PROPERTY
Coulomb
SciTegic.value.DoubleValue
1.428

@<SCITEGIC>MOL_PROPERTY
VdW
SciTegic.value.DoubleValue
0.335

@<SCITEGIC>MOL_PROPERTY
VdW6
SciTegic.value.DoubleValue
-5.021

@<SCITEGIC>MOL_PROPERTY
VdW12
SciTegic.value.DoubleValue
5.356

@<SCITEGIC>MOL_PROPERTY
Bond
SciTegic.value.DoubleValue
0.092

@<SCITEGIC>MOL_PROPERTY
Angle
SciTegic.value.DoubleValue
2.417

@<SCITEGIC>MOL_PROPERTY
Pdih
SciTegic.value.DoubleValue
4.003

@<SCITEGIC>MOL_PROPERTY
Idih
SciTegic.value.DoubleValue
0.001

@<SCITEGIC>MOL_PROPERTY
Tether
SciTegic.value.DoubleValue
0.000

@<TRIPOS>MOLECULE
guest-s18_confgen4.mol2 : confsearch ligand conformer 426
          16          15           1
SMALL
USER_CHARGES
 
@<TRIPOS>ATOM
       1    C1      17.693672   20.041546   22.434311 C.2        1 MOL1         0.6075
       2    O1      17.127051   20.353875   21.405849 O.co2      1 MOL1        -0.6830
       3    O2      17.766871   20.766143   23.406866 O.co2      1 MOL1        -0.6830
       4    C2      18.326543   18.655014   22.514936 C.3        1 MOL1        -0.2050
       5    H1      17.599360   17.938576   22.114739 H          1 MOL1         0.0710
       6    H2      18.475972   18.398705   23.570901 H          1 MOL1         0.0710
       7    C3      19.662578   18.523873   21.738498 C.3        1 MOL1        -0.1947
       8    H3      19.970533   17.469498   21.734620 H          1 MOL1         0.0712
       9    H4      19.503924   18.810919   20.689662 H          1 MOL1         0.0712
      10    C4      20.791633   19.381289   22.350267 C.3        1 MOL1        -0.1921
      11    H5      20.940693   19.101728   23.402410 H          1 MOL1         0.0712
      12    H6      20.502826   20.441582   22.340671 H          1 MOL1         0.0712
      13    C5      22.115776   19.206630   21.580532 C.3        1 MOL1        -0.2936
      14    H7      22.448114   18.160452   21.602353 H          1 MOL1         0.0724
      15    H8      22.906793   19.822938   22.027270 H          1 MOL1         0.0724
      16    H9      22.002458   19.508908   20.531133 H          1 MOL1         0.0724
@<TRIPOS>BOND
    1     1     2    1
    2     1     3    2
    3     1     4    1
    4     4     5    1
    5     4     6    1
    6     4     7    1
    7     7     8    1
    8     7     9    1
    9     7    10    1
   10    10    11    1
   11    10    12    1
   12    10    13    1
   13    13    14    1
   14    13    15    1
   15    13    16    1
@<TRIPOS>SUBSTRUCTURE
       1 MOL1            1 RESIDUE      1      MOL     
@<SCITEGIC>MOL_PROPERTY
VConf Rank
SciTegic.value.IntegerValue
426

@<SCITEGIC>MOL_PROPERTY
Conf_Id
SciTegic.value.IntegerValue
20

@<SCITEGIC>MOL_PROPERTY
Delta U+W
SciTegic.value.DoubleValue
-0.010

@<SCITEGIC>MOL_PROPERTY
U+W
SciTegic.value.DoubleValue
-56.914

@<SCITEGIC>MOL_PROPERTY
Grad RMS
SciTegic.value.DoubleValue
0.000000

@<SCITEGIC>MOL_PROPERTY
U
SciTegic.value.DoubleValue
8.277

@<SCITEGIC>MOL_PROPERTY
W
SciTegic.value.DoubleValue
-65.191

@<SCITEGIC>MOL_PROPERTY
W(PB)
SciTegic.value.DoubleValue
-67.081

@<SCITEGIC>MOL_PROPERTY
W(SA)
SciTegic.value.DoubleValue
1.890

@<SCITEGIC>MOL_PROPERTY
Valence
SciTegic.value.DoubleValue
6.513

@<SCITEGIC>MOL_PROPERTY
Coulomb
SciTegic.value.DoubleValue
1.429

@<SCITEGIC>MOL_PROPERTY
VdW
SciTegic.value.DoubleValue
0.335

@<SCITEGIC>MOL_PROPERTY
VdW6
SciTegic.value.DoubleValue
-5.021

@<SCITEGIC>MOL_PROPERTY
VdW12
SciTegic.value.DoubleValue
5.356

@<SCITEGIC>MOL_PROPERTY
Bond
SciTegic.value.DoubleValue
0.092

@<SCITEGIC>MOL_PROPERTY
Angle
SciTegic.value.DoubleValue
2.417

@<SCITEGIC>MOL_PROPERTY
Pdih
SciTegic.value.DoubleValue
4.002

@<SCITEGIC>MOL_PROPERTY
Idih
SciTegic.value.DoubleValue
0.001

@<SCITEGIC>MOL_PROPERTY
Tether
SciTegic.value.DoubleValue
0.000

@<TRIPOS>MOLECULE
guest-s18_confgen4.mol2 : confsearch ligand conformer 427
          16          15           1
SMALL
USER_CHARGES
 
@<TRIPOS>ATOM
       1    C1      18.179717   19.957901   21.100373 C.2        1 MOL1         0.6075
       2    O1      17.997625   19.769285   19.913759 O.co2      1 MOL1        -0.6830
       3    O2      18.074620   21.046432   21.629858 O.co2      1 MOL1        -0.6830
       4    C2      18.525222   18.755977   21.975444 C.3        1 MOL1        -0.2050
       5    H1      17.786054   17.974925   21.762213 H          1 MOL1         0.0710
       6    H2      18.387370   19.034616   23.026446 H          1 MOL1         0.0710
       7    C3      19.952220   18.188626   21.742061 C.3        1 MOL1        -0.1947
       8    H3      20.084037   17.283867   22.350673 H          1 MOL1         0.0712
       9    H4      20.038093   17.869995   20.693989 H          1 MOL1         0.0712
      10    C4      21.093827   19.184454   22.056780 C.3        1 MOL1        -0.1921
      11    H5      20.993070   20.080374   21.428469 H          1 MOL1         0.0712
      12    H6      22.051462   18.720839   21.782690 H          1 MOL1         0.0712
      13    C5      21.148187   19.598228   23.542807 C.3        1 MOL1        -0.2936
      14    H7      20.259471   20.175611   23.827941 H          1 MOL1         0.0724
      15    H8      22.027380   20.226993   23.733945 H          1 MOL1         0.0724
      16    H9      21.213248   18.717625   24.195012 H          1 MOL1         0.0724
@<TRIPOS>BOND
    1     1     2    1
    2     1     3    2
    3     1     4    1
    4     4     5    1
    5     4     6    1
    6     4     7    1
    7     7     8    1
    8     7     9    1
    9     7    10    1
   10    10    11    1
   11    10    12    1
   12    10    13    1
   13    13    14    1
   14    13    15    1
   15    13    16    1
@<TRIPOS>SUBSTRUCTURE
       1 MOL1            1 RESIDUE      1      MOL     
@<SCITEGIC>MOL_PROPERTY
VConf Rank
SciTegic.value.IntegerValue
427

@<SCITEGIC>MOL_PROPERTY
Conf_Id
SciTegic.value.IntegerValue
37

@<SCITEGIC>MOL_PROPERTY
Delta U+W
SciTegic.value.DoubleValue
1.063

@<SCITEGIC>MOL_PROPERTY
U+W
SciTegic.value.DoubleValue
-55.841

@<SCITEGIC>MOL_PROPERTY
Grad RMS
SciTegic.value.DoubleValue
0.000000

@<SCITEGIC>MOL_PROPERTY
U
SciTegic.value.DoubleValue
9.719

@<SCITEGIC>MOL_PROPERTY
W
SciTegic.value.DoubleValue
-65.560

@<SCITEGIC>MOL_PROPERTY
W(PB)
SciTegic.value.DoubleValue
-67.414

@<SCITEGIC>MOL_PROPERTY
W(SA)
SciTegic.value.DoubleValue
1.854

@<SCITEGIC>MOL_PROPERTY
Valence
SciTegic.value.DoubleValue
7.002

@<SCITEGIC>MOL_PROPERTY
Coulomb
SciTegic.value.DoubleValue
2.402

@<SCITEGIC>MOL_PROPERTY
VdW
SciTegic.value.DoubleValue
0.314

@<SCITEGIC>MOL_PROPERTY
VdW6
SciTegic.value.DoubleValue
-5.861

@<SCITEGIC>MOL_PROPERTY
VdW12
SciTegic.value.DoubleValue
6.175

@<SCITEGIC>MOL_PROPERTY
Bond
SciTegic.value.DoubleValue
0.134

@<SCITEGIC>MOL_PROPERTY
Angle
SciTegic.value.DoubleValue
2.733

@<SCITEGIC>MOL_PROPERTY
Pdih
SciTegic.value.DoubleValue
4.133

@<SCITEGIC>MOL_PROPERTY
Idih
SciTegic.value.DoubleValue
0.002

@<SCITEGIC>MOL_PROPERTY
Tether
SciTegic.value.DoubleValue
0.000

@<TRIPOS>MOLECULE
guest-s18_confgen4.mol2 : confsearch ligand conformer 428
          16          15           1
SMALL
USER_CHARGES
 
@<TRIPOS>ATOM
       1    C1      20.238330   20.417624   20.451330 C.2        1 MOL1         0.6075
       2    O1      19.904987   20.062836   19.337870 O.co2      1 MOL1        -0.6830
       3    O2      19.907036   21.477618   20.944236 O.co2      1 MOL1        -0.6830
       4    C2      21.149870   19.496236   21.257485 C.3        1 MOL1        -0.2050
       5    H1      21.571508   20.063351   22.095251 H          1 MOL1         0.0710
       6    H2      21.992796   19.225326   20.610983 H          1 MOL1         0.0710
       7    C3      20.457226   18.202191   21.765786 C.3        1 MOL1        -0.1947
       8    H3      20.094546   17.632453   20.899059 H          1 MOL1         0.0712
       9    H4      21.202357   17.566142   22.262368 H          1 MOL1         0.0712
      10    C4      19.274206   18.449354   22.731895 C.3        1 MOL1        -0.1921
      11    H5      18.803187   17.484823   22.966312 H          1 MOL1         0.0712
      12    H6      18.504934   19.056233   22.234385 H          1 MOL1         0.0712
      13    C5      19.697468   19.130398   24.050784 C.3        1 MOL1        -0.2936
      14    H7      20.491926   18.561385   24.550912 H          1 MOL1         0.0724
      15    H8      18.844664   19.197701   24.738574 H          1 MOL1         0.0724
      16    H9      20.061256   20.150478   23.873071 H          1 MOL1         0.0724
@<TRIPOS>BOND
    1     1     2    1
    2     1     3    2
    3     1     4    1
    4     4     5    1
    5     4     6    1
    6     4     7    1
    7     7     8    1
    8     7     9    1
    9     7    10    1
   10    10    11    1
   11    10    12    1
   12    10    13    1
   13    13    14    1
   14    13    15    1
   15    13    16    1
@<TRIPOS>SUBSTRUCTURE
       1 MOL1            1 RESIDUE      1      MOL     
@<SCITEGIC>MOL_PROPERTY
VConf Rank
SciTegic.value.IntegerValue
428

@<SCITEGIC>MOL_PROPERTY
Conf_Id
SciTegic.value.IntegerValue
39

@<SCITEGIC>MOL_PROPERTY
Delta U+W
SciTegic.value.DoubleValue
1.129

@<SCITEGIC>MOL_PROPERTY
U+W
SciTegic.value.DoubleValue
-55.775

@<SCITEGIC>MOL_PROPERTY
Grad RMS
SciTegic.value.DoubleValue
0.000000

@<SCITEGIC>MOL_PROPERTY
U
SciTegic.value.DoubleValue
9.718

@<SCITEGIC>MOL_PROPERTY
W
SciTegic.value.DoubleValue
-65.493

@<SCITEGIC>MOL_PROPERTY
W(PB)
SciTegic.value.DoubleValue
-67.361

@<SCITEGIC>MOL_PROPERTY
W(SA)
SciTegic.value.DoubleValue
1.869

@<SCITEGIC>MOL_PROPERTY
Valence
SciTegic.value.DoubleValue
7.002

@<SCITEGIC>MOL_PROPERTY
Coulomb
SciTegic.value.DoubleValue
2.402

@<SCITEGIC>MOL_PROPERTY
VdW
SciTegic.value.DoubleValue
0.314

@<SCITEGIC>MOL_PROPERTY
VdW6
SciTegic.value.DoubleValue
-5.861

@<SCITEGIC>MOL_PROPERTY
VdW12
SciTegic.value.DoubleValue
6.175

@<SCITEGIC>MOL_PROPERTY
Bond
SciTegic.value.DoubleValue
0.134

@<SCITEGIC>MOL_PROPERTY
Angle
SciTegic.value.DoubleValue
2.734

@<SCITEGIC>MOL_PROPERTY
Pdih
SciTegic.value.DoubleValue
4.133

@<SCITEGIC>MOL_PROPERTY
Idih
SciTegic.value.DoubleValue
0.002

@<SCITEGIC>MOL_PROPERTY
Tether
SciTegic.value.DoubleValue
0.000

@<TRIPOS>MOLECULE
guest-s18_confgen4.mol2 : confsearch ligand conformer 429
          16          15           1
SMALL
USER_CHARGES
 
@<TRIPOS>ATOM
       1    C1      19.063450   20.209761   20.852344 C.2        1 MOL1         0.6075
       2    O1      19.132036   19.672595   19.764424 O.co2      1 MOL1        -0.6830
       3    O2      19.373269   21.368857   21.046427 O.co2      1 MOL1        -0.6830
       4    C2      18.472799   19.412683   22.014004 C.3        1 MOL1        -0.2050
       5    H1      18.174807   18.421323   21.651534 H          1 MOL1         0.0710
       6    H2      17.551150   19.929432   22.306035 H          1 MOL1         0.0710
       7    C3      19.391327   19.275737   23.260814 C.3        1 MOL1        -0.1947
       8    H3      19.850710   20.245911   23.495911 H          1 MOL1         0.0712
       9    H4      18.758120   19.024029   24.122292 H          1 MOL1         0.0712
      10    C4      20.483402   18.185267   23.143310 C.3        1 MOL1        -0.1921
      11    H5      20.020307   17.217480   22.906324 H          1 MOL1         0.0712
      12    H6      20.962040   18.065917   24.125121 H          1 MOL1         0.0712
      13    C5      21.576236   18.506392   22.102695 C.3        1 MOL1        -0.2936
      14    H7      21.177441   18.473408   21.081482 H          1 MOL1         0.0724
      15    H8      22.390695   17.773012   22.162522 H          1 MOL1         0.0724
      16    H9      22.003500   19.503015   22.274500 H          1 MOL1         0.0724
@<TRIPOS>BOND
    1     1     2    1
    2     1     3    2
    3     1     4    1
    4     4     5    1
    5     4     6    1
    6     4     7    1
    7     7     8    1
    8     7     9    1
    9     7    10    1
   10    10    11    1
   11    10    12    1
   12    10    13    1
   13    13    14    1
   14    13    15    1
   15    13    16    1
@<TRIPOS>SUBSTRUCTURE
       1 MOL1            1 RESIDUE      1      MOL     
@<SCITEGIC>MOL_PROPERTY
VConf Rank
SciTegic.value.IntegerValue
429

@<SCITEGIC>MOL_PROPERTY
Conf_Id
SciTegic.value.IntegerValue
47

@<SCITEGIC>MOL_PROPERTY
Delta U+W
SciTegic.value.DoubleValue
2.301

@<SCITEGIC>MOL_PROPERTY
U+W
SciTegic.value.DoubleValue
-54.603

@<SCITEGIC>MOL_PROPERTY
Grad RMS
SciTegic.value.DoubleValue
0.000000

@<SCITEGIC>MOL_PROPERTY
U
SciTegic.value.DoubleValue
11.258

@<SCITEGIC>MOL_PROPERTY
W
SciTegic.value.DoubleValue
-65.861

@<SCITEGIC>MOL_PROPERTY
W(PB)
SciTegic.value.DoubleValue
-67.702

@<SCITEGIC>MOL_PROPERTY
W(SA)
SciTegic.value.DoubleValue
1.841

@<SCITEGIC>MOL_PROPERTY
Valence
SciTegic.value.DoubleValue
8.169

@<SCITEGIC>MOL_PROPERTY
Coulomb
SciTegic.value.DoubleValue
2.735

@<SCITEGIC>MOL_PROPERTY
VdW
SciTegic.value.DoubleValue
0.355

@<SCITEGIC>MOL_PROPERTY
VdW6
SciTegic.value.DoubleValue
-6.245

@<SCITEGIC>MOL_PROPERTY
VdW12
SciTegic.value.DoubleValue
6.600

@<SCITEGIC>MOL_PROPERTY
Bond
SciTegic.value.DoubleValue
0.149

@<SCITEGIC>MOL_PROPERTY
Angle
SciTegic.value.DoubleValue
3.168

@<SCITEGIC>MOL_PROPERTY
Pdih
SciTegic.value.DoubleValue
4.840

@<SCITEGIC>MOL_PROPERTY
Idih
SciTegic.value.DoubleValue
0.011

@<SCITEGIC>MOL_PROPERTY
Tether
SciTegic.value.DoubleValue
0.000

@<TRIPOS>MOLECULE
guest-s18_confgen4.mol2 : confsearch ligand conformer 430
          16          15           1
SMALL
USER_CHARGES
 
@<TRIPOS>ATOM
       1    C1      21.668899   18.543525   22.931186 C.2        1 MOL1         0.6075
       2    O1      21.919088   17.442932   22.480343 O.co2      1 MOL1        -0.6830
       3    O2      21.816870   18.836067   24.101375 O.co2      1 MOL1        -0.6830
       4    C2      21.232007   19.641525   21.963101 C.3        1 MOL1        -0.2050
       5    H1      22.061704   19.781793   21.260480 H          1 MOL1         0.0710
       6    H2      21.126657   20.583160   22.515552 H          1 MOL1         0.0710
       7    C3      19.935412   19.341497   21.159477 C.3        1 MOL1        -0.1947
       8    H3      19.926320   19.992965   20.275192 H          1 MOL1         0.0712
       9    H4      19.961914   18.311787   20.776677 H          1 MOL1         0.0712
      10    C4      18.620373   19.585069   21.938518 C.3        1 MOL1        -0.1921
      11    H5      17.779701   19.499143   21.236249 H          1 MOL1         0.0712
      12    H6      18.598612   20.614839   22.321052 H          1 MOL1         0.0712
      13    C5      18.390503   18.595209   23.099389 C.3        1 MOL1        -0.2936
      14    H7      17.386110   18.726037   23.522291 H          1 MOL1         0.0724
      15    H8      19.112513   18.754951   23.909441 H          1 MOL1         0.0724
      16    H9      18.481471   17.556517   22.755623 H          1 MOL1         0.0724
@<TRIPOS>BOND
    1     1     2    1
    2     1     3    2
    3     1     4    1
    4     4     5    1
    5     4     6    1
    6     4     7    1
    7     7     8    1
    8     7     9    1
    9     7    10    1
   10    10    11    1
   11    10    12    1
   12    10    13    1
   13    13    14    1
   14    13    15    1
   15    13    16    1
@<TRIPOS>SUBSTRUCTURE
       1 MOL1            1 RESIDUE      1      MOL     
@<SCITEGIC>MOL_PROPERTY
VConf Rank
SciTegic.value.IntegerValue
430

@<SCITEGIC>MOL_PROPERTY
Conf_Id
SciTegic.value.IntegerValue
45

@<SCITEGIC>MOL_PROPERTY
Delta U+W
SciTegic.value.DoubleValue
2.303

@<SCITEGIC>MOL_PROPERTY
U+W
SciTegic.value.DoubleValue
-54.601

@<SCITEGIC>MOL_PROPERTY
Grad RMS
SciTegic.value.DoubleValue
0.000000

@<SCITEGIC>MOL_PROPERTY
U
SciTegic.value.DoubleValue
11.258

@<SCITEGIC>MOL_PROPERTY
W
SciTegic.value.DoubleValue
-65.860

@<SCITEGIC>MOL_PROPERTY
W(PB)
SciTegic.value.DoubleValue
-67.709

@<SCITEGIC>MOL_PROPERTY
W(SA)
SciTegic.value.DoubleValue
1.849

@<SCITEGIC>MOL_PROPERTY
Valence
SciTegic.value.DoubleValue
8.169

@<SCITEGIC>MOL_PROPERTY
Coulomb
SciTegic.value.DoubleValue
2.735

@<SCITEGIC>MOL_PROPERTY
VdW
SciTegic.value.DoubleValue
0.355

@<SCITEGIC>MOL_PROPERTY
VdW6
SciTegic.value.DoubleValue
-6.245

@<SCITEGIC>MOL_PROPERTY
VdW12
SciTegic.value.DoubleValue
6.600

@<SCITEGIC>MOL_PROPERTY
Bond
SciTegic.value.DoubleValue
0.149

@<SCITEGIC>MOL_PROPERTY
Angle
SciTegic.value.DoubleValue
3.168

@<SCITEGIC>MOL_PROPERTY
Pdih
SciTegic.value.DoubleValue
4.840

@<SCITEGIC>MOL_PROPERTY
Idih
SciTegic.value.DoubleValue
0.011

@<SCITEGIC>MOL_PROPERTY
Tether
SciTegic.value.DoubleValue
0.000

@<TRIPOS>MOLECULE
guest-s18_confgen4.mol2 : confsearch ligand conformer 431
          16          15           1
SMALL
USER_CHARGES
 
@<TRIPOS>ATOM
       1    C1      18.739855   17.143972   23.385417 C.2        1 MOL1         0.6075
       2    O1      18.786385   17.754547   24.435565 O.co2      1 MOL1        -0.6830
       3    O2      18.246083   16.038959   23.283202 O.co2      1 MOL1        -0.6830
       4    C2      19.321708   17.768932   22.116258 C.3        1 MOL1        -0.2050
       5    H1      18.516557   17.810500   21.373180 H          1 MOL1         0.0710
       6    H2      20.079940   17.077969   21.729194 H          1 MOL1         0.0710
       7    C3      19.942090   19.180079   22.295528 C.3        1 MOL1        -0.1947
       8    H3      19.179342   19.866500   22.688606 H          1 MOL1         0.0712
       9    H4      20.744341   19.133208   23.044972 H          1 MOL1         0.0712
      10    C4      20.503191   19.732688   20.968483 C.3        1 MOL1        -0.1921
      11    H5      19.701460   19.781731   20.218602 H          1 MOL1         0.0712
      12    H6      21.267399   19.048005   20.575169 H          1 MOL1         0.0712
      13    C5      21.117871   21.134215   21.152960 C.3        1 MOL1        -0.2936
      14    H7      20.366677   21.847776   21.516289 H          1 MOL1         0.0724
      15    H8      21.511858   21.512259   20.200595 H          1 MOL1         0.0724
      16    H9      21.944171   21.108643   21.875486 H          1 MOL1         0.0724
@<TRIPOS>BOND
    1     1     2    1
    2     1     3    2
    3     1     4    1
    4     4     5    1
    5     4     6    1
    6     4     7    1
    7     7     8    1
    8     7     9    1
    9     7    10    1
   10    10    11    1
   11    10    12    1
   12    10    13    1
   13    13    14    1
   14    13    15    1
   15    13    16    1
@<TRIPOS>SUBSTRUCTURE
       1 MOL1            1 RESIDUE      1      MOL     
@<SCITEGIC>MOL_PROPERTY
VConf Rank
SciTegic.value.IntegerValue
431

@<SCITEGIC>MOL_PROPERTY
Conf_Id
SciTegic.value.IntegerValue
0

@<SCITEGIC>MOL_PROPERTY
Delta U+W
SciTegic.value.DoubleValue
0.000

@<SCITEGIC>MOL_PROPERTY
U+W
SciTegic.value.DoubleValue
-56.904

@<SCITEGIC>MOL_PROPERTY
Grad RMS
SciTegic.value.DoubleValue
0.000000

@<SCITEGIC>MOL_PROPERTY
U
SciTegic.value.DoubleValue
7.329

@<SCITEGIC>MOL_PROPERTY
W
SciTegic.value.DoubleValue
-64.233

@<SCITEGIC>MOL_PROPERTY
W(PB)
SciTegic.value.DoubleValue
-66.148

@<SCITEGIC>MOL_PROPERTY
W(SA)
SciTegic.value.DoubleValue
1.915

@<SCITEGIC>MOL_PROPERTY
Valence
SciTegic.value.DoubleValue
6.755

@<SCITEGIC>MOL_PROPERTY
Coulomb
SciTegic.value.DoubleValue
-0.421

@<SCITEGIC>MOL_PROPERTY
VdW
SciTegic.value.DoubleValue
0.995

@<SCITEGIC>MOL_PROPERTY
VdW6
SciTegic.value.DoubleValue
-4.495

@<SCITEGIC>MOL_PROPERTY
VdW12
SciTegic.value.DoubleValue
5.490

@<SCITEGIC>MOL_PROPERTY
Bond
SciTegic.value.DoubleValue
0.106

@<SCITEGIC>MOL_PROPERTY
Angle
SciTegic.value.DoubleValue
2.715

@<SCITEGIC>MOL_PROPERTY
Pdih
SciTegic.value.DoubleValue
3.934

@<SCITEGIC>MOL_PROPERTY
Idih
SciTegic.value.DoubleValue
0.000

@<SCITEGIC>MOL_PROPERTY
Tether
SciTegic.value.DoubleValue
0.000

@<TRIPOS>MOLECULE
guest-s18_confgen4.mol2 : confsearch ligand conformer 432
          16          15           1
SMALL
USER_CHARGES
 
@<TRIPOS>ATOM
       1    C1      17.985273   18.796335   20.167028 C.2        1 MOL1         0.6075
       2    O1      17.019023   19.504070   20.370288 O.co2      1 MOL1        -0.6830
       3    O2      18.322929   18.421257   19.061972 O.co2      1 MOL1        -0.6830
       4    C2      18.830808   18.370503   21.362152 C.3        1 MOL1        -0.2050
       5    H1      19.242948   17.376233   21.151399 H          1 MOL1         0.0710
       6    H2      18.167992   18.269070   22.230044 H          1 MOL1         0.0710
       7    C3      19.974043   19.366435   21.677102 C.3        1 MOL1        -0.1947
       8    H3      20.621557   19.466617   20.794922 H          1 MOL1         0.0712
       9    H4      19.546560   20.359520   21.873551 H          1 MOL1         0.0712
      10    C4      20.813384   18.912369   22.889493 C.3        1 MOL1        -0.1921
      11    H5      21.241611   17.919590   22.693149 H          1 MOL1         0.0712
      12    H6      20.166325   18.812685   23.772054 H          1 MOL1         0.0712
      13    C5      21.949100   19.908178   23.197088 C.3        1 MOL1        -0.2936
      14    H7      21.547031   20.903372   23.428177 H          1 MOL1         0.0724
      15    H8      22.630246   20.003698   22.341292 H          1 MOL1         0.0724
      16    H9      22.535914   19.570660   24.061310 H          1 MOL1         0.0724
@<TRIPOS>BOND
    1     1     2    1
    2     1     3    2
    3     1     4    1
    4     4     5    1
    5     4     6    1
    6     4     7    1
    7     7     8    1
    8     7     9    1
    9     7    10    1
   10    10    11    1
   11    10    12    1
   12    10    13    1
   13    13    14    1
   14    13    15    1
   15    13    16    1
@<TRIPOS>SUBSTRUCTURE
       1 MOL1            1 RESIDUE      1      MOL     
@<SCITEGIC>MOL_PROPERTY
VConf Rank
SciTegic.value.IntegerValue
432

@<SCITEGIC>MOL_PROPERTY
Conf_Id
SciTegic.value.IntegerValue
22

@<SCITEGIC>MOL_PROPERTY
Delta U+W
SciTegic.value.DoubleValue
-1.185

@<SCITEGIC>MOL_PROPERTY
U+W
SciTegic.value.DoubleValue
-58.089

@<SCITEGIC>MOL_PROPERTY
Grad RMS
SciTegic.value.DoubleValue
0.000000

@<SCITEGIC>MOL_PROPERTY
U
SciTegic.value.DoubleValue
6.298

@<SCITEGIC>MOL_PROPERTY
W
SciTegic.value.DoubleValue
-64.387

@<SCITEGIC>MOL_PROPERTY
W(PB)
SciTegic.value.DoubleValue
-66.329

@<SCITEGIC>MOL_PROPERTY
W(SA)
SciTegic.value.DoubleValue
1.942

@<SCITEGIC>MOL_PROPERTY
Valence
SciTegic.value.DoubleValue
6.246

@<SCITEGIC>MOL_PROPERTY
Coulomb
SciTegic.value.DoubleValue
-0.408

@<SCITEGIC>MOL_PROPERTY
VdW
SciTegic.value.DoubleValue
0.460

@<SCITEGIC>MOL_PROPERTY
VdW6
SciTegic.value.DoubleValue
-4.207

@<SCITEGIC>MOL_PROPERTY
VdW12
SciTegic.value.DoubleValue
4.667

@<SCITEGIC>MOL_PROPERTY
Bond
SciTegic.value.DoubleValue
0.072

@<SCITEGIC>MOL_PROPERTY
Angle
SciTegic.value.DoubleValue
2.246

@<SCITEGIC>MOL_PROPERTY
Pdih
SciTegic.value.DoubleValue
3.928

@<SCITEGIC>MOL_PROPERTY
Idih
SciTegic.value.DoubleValue
0.001

@<SCITEGIC>MOL_PROPERTY
Tether
SciTegic.value.DoubleValue
0.000

@<TRIPOS>MOLECULE
guest-s18_confgen4.mol2 : confsearch ligand conformer 433
          16          15           1
SMALL
USER_CHARGES
 
@<TRIPOS>ATOM
       1    C1      18.586193   20.880985   23.326137 C.2        1 MOL1         0.6075
       2    O1      17.976202   20.588734   24.335342 O.co2      1 MOL1        -0.6830
       3    O2      18.336287   21.858841   22.649897 O.co2      1 MOL1        -0.6830
       4    C2      19.713189   19.959444   22.873131 C.3        1 MOL1        -0.2050
       5    H1      20.175411   19.522291   23.766335 H          1 MOL1         0.0710
       6    H2      20.473903   20.577520   22.382811 H          1 MOL1         0.0710
       7    C3      19.225732   18.837215   21.920251 C.3        1 MOL1        -0.1947
       8    H3      18.405285   18.292073   22.407195 H          1 MOL1         0.0712
       9    H4      18.803551   19.286372   21.010675 H          1 MOL1         0.0712
      10    C4      20.334265   17.829229   21.538771 C.3        1 MOL1        -0.1921
      11    H5      19.884358   17.012949   20.956896 H          1 MOL1         0.0712
      12    H6      20.748499   17.371251   22.447643 H          1 MOL1         0.0712
      13    C5      21.473260   18.461647   20.710717 C.3        1 MOL1        -0.2936
      14    H7      22.027007   19.207439   21.294618 H          1 MOL1         0.0724
      15    H8      21.079403   18.951324   19.810527 H          1 MOL1         0.0724
      16    H9      22.188174   17.692260   20.391422 H          1 MOL1         0.0724
@<TRIPOS>BOND
    1     1     2    1
    2     1     3    2
    3     1     4    1
    4     4     5    1
    5     4     6    1
    6     4     7    1
    7     7     8    1
    8     7     9    1
    9     7    10    1
   10    10    11    1
   11    10    12    1
   12    10    13    1
   13    13    14    1
   14    13    15    1
   15    13    16    1
@<TRIPOS>SUBSTRUCTURE
       1 MOL1            1 RESIDUE      1      MOL     
@<SCITEGIC>MOL_PROPERTY
VConf Rank
SciTegic.value.IntegerValue
433

@<SCITEGIC>MOL_PROPERTY
Conf_Id
SciTegic.value.IntegerValue
36

@<SCITEGIC>MOL_PROPERTY
Delta U+W
SciTegic.value.DoubleValue
-0.427

@<SCITEGIC>MOL_PROPERTY
U+W
SciTegic.value.DoubleValue
-57.331

@<SCITEGIC>MOL_PROPERTY
Grad RMS
SciTegic.value.DoubleValue
0.000000

@<SCITEGIC>MOL_PROPERTY
U
SciTegic.value.DoubleValue
7.263

@<SCITEGIC>MOL_PROPERTY
W
SciTegic.value.DoubleValue
-64.594

@<SCITEGIC>MOL_PROPERTY
W(PB)
SciTegic.value.DoubleValue
-66.513

@<SCITEGIC>MOL_PROPERTY
W(SA)
SciTegic.value.DoubleValue
1.920

@<SCITEGIC>MOL_PROPERTY
Valence
SciTegic.value.DoubleValue
6.734

@<SCITEGIC>MOL_PROPERTY
Coulomb
SciTegic.value.DoubleValue
-0.068

@<SCITEGIC>MOL_PROPERTY
VdW
SciTegic.value.DoubleValue
0.598

@<SCITEGIC>MOL_PROPERTY
VdW6
SciTegic.value.DoubleValue
-4.819

@<SCITEGIC>MOL_PROPERTY
VdW12
SciTegic.value.DoubleValue
5.417

@<SCITEGIC>MOL_PROPERTY
Bond
SciTegic.value.DoubleValue
0.107

@<SCITEGIC>MOL_PROPERTY
Angle
SciTegic.value.DoubleValue
2.469

@<SCITEGIC>MOL_PROPERTY
Pdih
SciTegic.value.DoubleValue
4.157

@<SCITEGIC>MOL_PROPERTY
Idih
SciTegic.value.DoubleValue
0.001

@<SCITEGIC>MOL_PROPERTY
Tether
SciTegic.value.DoubleValue
0.000

@<TRIPOS>MOLECULE
guest-s18_confgen4.mol2 : confsearch ligand conformer 434
          16          15           1
SMALL
USER_CHARGES
 
@<TRIPOS>ATOM
       1    C1      22.484815   18.596203   21.767889 C.2        1 MOL1         0.6075
       2    O1      23.061832   18.748364   22.826122 O.co2      1 MOL1        -0.6830
       3    O2      23.050720   18.561576   20.693390 O.co2      1 MOL1        -0.6830
       4    C2      20.966246   18.461474   21.787079 C.3        1 MOL1        -0.2050
       5    H1      20.687375   17.952827   22.716933 H          1 MOL1         0.0710
       6    H2      20.671928   17.807359   20.957575 H          1 MOL1         0.0710
       7    C3      20.240132   19.827117   21.674073 C.3        1 MOL1        -0.1947
       8    H3      20.509509   20.457650   22.532661 H          1 MOL1         0.0712
       9    H4      20.605943   20.348599   20.778714 H          1 MOL1         0.0712
      10    C4      18.702025   19.700431   21.581411 C.3        1 MOL1        -0.1921
      11    H5      18.432051   19.079559   20.715957 H          1 MOL1         0.0712
      12    H6      18.276278   20.695973   21.394475 H          1 MOL1         0.0712
      13    C5      18.061305   19.117007   22.858919 C.3        1 MOL1        -0.2936
      14    H7      18.371504   18.077673   23.024276 H          1 MOL1         0.0724
      15    H8      16.966590   19.128034   22.778391 H          1 MOL1         0.0724
      16    H9      18.341035   19.705293   23.742616 H          1 MOL1         0.0724
@<TRIPOS>BOND
    1     1     2    1
    2     1     3    2
    3     1     4    1
    4     4     5    1
    5     4     6    1
    6     4     7    1
    7     7     8    1
    8     7     9    1
    9     7    10    1
   10    10    11    1
   11    10    12    1
   12    10    13    1
   13    13    14    1
   14    13    15    1
   15    13    16    1
@<TRIPOS>SUBSTRUCTURE
       1 MOL1            1 RESIDUE      1      MOL     
@<SCITEGIC>MOL_PROPERTY
VConf Rank
SciTegic.value.IntegerValue
434

@<SCITEGIC>MOL_PROPERTY
Conf_Id
SciTegic.value.IntegerValue
17

@<SCITEGIC>MOL_PROPERTY
Delta U+W
SciTegic.value.DoubleValue
-0.432

@<SCITEGIC>MOL_PROPERTY
U+W
SciTegic.value.DoubleValue
-57.336

@<SCITEGIC>MOL_PROPERTY
Grad RMS
SciTegic.value.DoubleValue
0.000000

@<SCITEGIC>MOL_PROPERTY
U
SciTegic.value.DoubleValue
7.263

@<SCITEGIC>MOL_PROPERTY
W
SciTegic.value.DoubleValue
-64.599

@<SCITEGIC>MOL_PROPERTY
W(PB)
SciTegic.value.DoubleValue
-66.503

@<SCITEGIC>MOL_PROPERTY
W(SA)
SciTegic.value.DoubleValue
1.904

@<SCITEGIC>MOL_PROPERTY
Valence
SciTegic.value.DoubleValue
6.734

@<SCITEGIC>MOL_PROPERTY
Coulomb
SciTegic.value.DoubleValue
-0.068

@<SCITEGIC>MOL_PROPERTY
VdW
SciTegic.value.DoubleValue
0.598

@<SCITEGIC>MOL_PROPERTY
VdW6
SciTegic.value.DoubleValue
-4.819

@<SCITEGIC>MOL_PROPERTY
VdW12
SciTegic.value.DoubleValue
5.417

@<SCITEGIC>MOL_PROPERTY
Bond
SciTegic.value.DoubleValue
0.107

@<SCITEGIC>MOL_PROPERTY
Angle
SciTegic.value.DoubleValue
2.469

@<SCITEGIC>MOL_PROPERTY
Pdih
SciTegic.value.DoubleValue
4.157

@<SCITEGIC>MOL_PROPERTY
Idih
SciTegic.value.DoubleValue
0.001

@<SCITEGIC>MOL_PROPERTY
Tether
SciTegic.value.DoubleValue
0.000

@<TRIPOS>MOLECULE
guest-s18_confgen4.mol2 : confsearch ligand conformer 435
          16          15           1
SMALL
USER_CHARGES
 
@<TRIPOS>ATOM
       1    C1      20.444721   17.397619   23.668607 C.2        1 MOL1         0.6075
       2    O1      19.481835   17.216292   24.387155 O.co2      1 MOL1        -0.6830
       3    O2      21.024919   16.503319   23.085630 O.co2      1 MOL1        -0.6830
       4    C2      20.966427   18.823195   23.510337 C.3        1 MOL1        -0.2050
       5    H1      21.998765   18.779883   23.142253 H          1 MOL1         0.0710
       6    H2      21.005015   19.271455   24.510241 H          1 MOL1         0.0710
       7    C3      20.103098   19.712376   22.578107 C.3        1 MOL1        -0.1947
       8    H3      19.066469   19.723248   22.942669 H          1 MOL1         0.0712
       9    H4      20.468551   20.746759   22.633377 H          1 MOL1         0.0712
      10    C4      20.135727   19.239222   21.108670 C.3        1 MOL1        -0.1921
      11    H5      19.752653   18.211593   21.038278 H          1 MOL1         0.0712
      12    H6      21.173918   19.216981   20.749448 H          1 MOL1         0.0712
      13    C5      19.297694   20.159114   20.198810 C.3        1 MOL1        -0.2936
      14    H7      18.247253   20.175267   20.517812 H          1 MOL1         0.0724
      15    H8      19.330814   19.808623   19.159014 H          1 MOL1         0.0724
      16    H9      19.679245   21.188337   20.221931 H          1 MOL1         0.0724
@<TRIPOS>BOND
    1     1     2    1
    2     1     3    2
    3     1     4    1
    4     4     5    1
    5     4     6    1
    6     4     7    1
    7     7     8    1
    8     7     9    1
    9     7    10    1
   10    10    11    1
   11    10    12    1
   12    10    13    1
   13    13    14    1
   14    13    15    1
   15    13    16    1
@<TRIPOS>SUBSTRUCTURE
       1 MOL1            1 RESIDUE      1      MOL     
@<SCITEGIC>MOL_PROPERTY
VConf Rank
SciTegic.value.IntegerValue
435

@<SCITEGIC>MOL_PROPERTY
Conf_Id
SciTegic.value.IntegerValue
19

@<SCITEGIC>MOL_PROPERTY
Delta U+W
SciTegic.value.DoubleValue
0.048

@<SCITEGIC>MOL_PROPERTY
U+W
SciTegic.value.DoubleValue
-56.856

@<SCITEGIC>MOL_PROPERTY
Grad RMS
SciTegic.value.DoubleValue
0.000000

@<SCITEGIC>MOL_PROPERTY
U
SciTegic.value.DoubleValue
8.276

@<SCITEGIC>MOL_PROPERTY
W
SciTegic.value.DoubleValue
-65.132

@<SCITEGIC>MOL_PROPERTY
W(PB)
SciTegic.value.DoubleValue
-67.031

@<SCITEGIC>MOL_PROPERTY
W(SA)
SciTegic.value.DoubleValue
1.899

@<SCITEGIC>MOL_PROPERTY
Valence
SciTegic.value.DoubleValue
6.513

@<SCITEGIC>MOL_PROPERTY
Coulomb
SciTegic.value.DoubleValue
1.428

@<SCITEGIC>MOL_PROPERTY
VdW
SciTegic.value.DoubleValue
0.335

@<SCITEGIC>MOL_PROPERTY
VdW6
SciTegic.value.DoubleValue
-5.021

@<SCITEGIC>MOL_PROPERTY
VdW12
SciTegic.value.DoubleValue
5.356

@<SCITEGIC>MOL_PROPERTY
Bond
SciTegic.value.DoubleValue
0.092

@<SCITEGIC>MOL_PROPERTY
Angle
SciTegic.value.DoubleValue
2.417

@<SCITEGIC>MOL_PROPERTY
Pdih
SciTegic.value.DoubleValue
4.003

@<SCITEGIC>MOL_PROPERTY
Idih
SciTegic.value.DoubleValue
0.001

@<SCITEGIC>MOL_PROPERTY
Tether
SciTegic.value.DoubleValue
0.000

@<TRIPOS>MOLECULE
guest-s18_confgen4.mol2 : confsearch ligand conformer 436
          16          15           1
SMALL
USER_CHARGES
 
@<TRIPOS>ATOM
       1    C1      18.417756   20.799289   21.179314 C.2        1 MOL1         0.6075
       2    O1      17.509547   21.113406   21.922838 O.co2      1 MOL1        -0.6830
       3    O2      18.257632   20.504892   20.011430 O.co2      1 MOL1        -0.6830
       4    C2      19.837931   20.797811   21.738419 C.3        1 MOL1        -0.2050
       5    H1      19.966320   21.724277   22.310620 H          1 MOL1         0.0710
       6    H2      20.544559   20.842070   20.900682 H          1 MOL1         0.0710
       7    C3      20.158994   19.581403   22.645234 C.3        1 MOL1        -0.1947
       8    H3      21.142507   19.733242   23.110212 H          1 MOL1         0.0712
       9    H4      19.426501   19.533442   23.463022 H          1 MOL1         0.0712
      10    C4      20.164047   18.246750   21.868790 C.3        1 MOL1        -0.1921
      11    H5      20.887948   18.300603   21.043899 H          1 MOL1         0.0712
      12    H6      19.177791   18.074115   21.415778 H          1 MOL1         0.0712
      13    C5      20.518686   17.059469   22.785821 C.3        1 MOL1        -0.2936
      14    H7      21.515914   17.187603   23.226881 H          1 MOL1         0.0724
      15    H8      20.516984   16.119305   22.219070 H          1 MOL1         0.0724
      16    H9      19.791680   16.963998   23.603010 H          1 MOL1         0.0724
@<TRIPOS>BOND
    1     1     2    1
    2     1     3    2
    3     1     4    1
    4     4     5    1
    5     4     6    1
    6     4     7    1
    7     7     8    1
    8     7     9    1
    9     7    10    1
   10    10    11    1
   11    10    12    1
   12    10    13    1
   13    13    14    1
   14    13    15    1
   15    13    16    1
@<TRIPOS>SUBSTRUCTURE
       1 MOL1            1 RESIDUE      1      MOL     
@<SCITEGIC>MOL_PROPERTY
VConf Rank
SciTegic.value.IntegerValue
436

@<SCITEGIC>MOL_PROPERTY
Conf_Id
SciTegic.value.IntegerValue
20

@<SCITEGIC>MOL_PROPERTY
Delta U+W
SciTegic.value.DoubleValue
-0.010

@<SCITEGIC>MOL_PROPERTY
U+W
SciTegic.value.DoubleValue
-56.914

@<SCITEGIC>MOL_PROPERTY
Grad RMS
SciTegic.value.DoubleValue
0.000000

@<SCITEGIC>MOL_PROPERTY
U
SciTegic.value.DoubleValue
8.277

@<SCITEGIC>MOL_PROPERTY
W
SciTegic.value.DoubleValue
-65.191

@<SCITEGIC>MOL_PROPERTY
W(PB)
SciTegic.value.DoubleValue
-67.081

@<SCITEGIC>MOL_PROPERTY
W(SA)
SciTegic.value.DoubleValue
1.890

@<SCITEGIC>MOL_PROPERTY
Valence
SciTegic.value.DoubleValue
6.513

@<SCITEGIC>MOL_PROPERTY
Coulomb
SciTegic.value.DoubleValue
1.429

@<SCITEGIC>MOL_PROPERTY
VdW
SciTegic.value.DoubleValue
0.335

@<SCITEGIC>MOL_PROPERTY
VdW6
SciTegic.value.DoubleValue
-5.021

@<SCITEGIC>MOL_PROPERTY
VdW12
SciTegic.value.DoubleValue
5.356

@<SCITEGIC>MOL_PROPERTY
Bond
SciTegic.value.DoubleValue
0.092

@<SCITEGIC>MOL_PROPERTY
Angle
SciTegic.value.DoubleValue
2.417

@<SCITEGIC>MOL_PROPERTY
Pdih
SciTegic.value.DoubleValue
4.002

@<SCITEGIC>MOL_PROPERTY
Idih
SciTegic.value.DoubleValue
0.001

@<SCITEGIC>MOL_PROPERTY
Tether
SciTegic.value.DoubleValue
0.000

@<TRIPOS>MOLECULE
guest-s18_confgen4.mol2 : confsearch ligand conformer 437
          16          15           1
SMALL
USER_CHARGES
 
@<TRIPOS>ATOM
       1    C1      21.723550   18.163184   21.772146 C.2        1 MOL1         0.6075
       2    O1      22.147042   17.248800   22.451368 O.co2      1 MOL1        -0.6830
       3    O2      22.405534   19.101862   21.411477 O.co2      1 MOL1        -0.6830
       4    C2      20.266300   18.109798   21.321240 C.3        1 MOL1        -0.2050
       5    H1      20.097800   17.119900   20.881251 H          1 MOL1         0.0710
       6    H2      20.120844   18.836691   20.513951 H          1 MOL1         0.0710
       7    C3      19.238602   18.345379   22.461862 C.3        1 MOL1        -0.1947
       8    H3      18.223273   18.210073   22.065415 H          1 MOL1         0.0712
       9    H4      19.376532   17.568812   23.226894 H          1 MOL1         0.0712
      10    C4      19.340919   19.734449   23.135660 C.3        1 MOL1        -0.1921
      11    H5      20.342569   19.868395   23.567347 H          1 MOL1         0.0712
      12    H6      18.634580   19.771218   23.976411 H          1 MOL1         0.0712
      13    C5      19.031713   20.901629   22.174138 C.3        1 MOL1        -0.2936
      14    H7      19.789242   20.977418   21.383635 H          1 MOL1         0.0724
      15    H8      19.023813   21.854936   22.718200 H          1 MOL1         0.0724
      16    H9      18.049289   20.773203   21.701467 H          1 MOL1         0.0724
@<TRIPOS>BOND
    1     1     2    1
    2     1     3    2
    3     1     4    1
    4     4     5    1
    5     4     6    1
    6     4     7    1
    7     7     8    1
    8     7     9    1
    9     7    10    1
   10    10    11    1
   11    10    12    1
   12    10    13    1
   13    13    14    1
   14    13    15    1
   15    13    16    1
@<TRIPOS>SUBSTRUCTURE
       1 MOL1            1 RESIDUE      1      MOL     
@<SCITEGIC>MOL_PROPERTY
VConf Rank
SciTegic.value.IntegerValue
437

@<SCITEGIC>MOL_PROPERTY
Conf_Id
SciTegic.value.IntegerValue
37

@<SCITEGIC>MOL_PROPERTY
Delta U+W
SciTegic.value.DoubleValue
1.063

@<SCITEGIC>MOL_PROPERTY
U+W
SciTegic.value.DoubleValue
-55.841

@<SCITEGIC>MOL_PROPERTY
Grad RMS
SciTegic.value.DoubleValue
0.000000

@<SCITEGIC>MOL_PROPERTY
U
SciTegic.value.DoubleValue
9.719

@<SCITEGIC>MOL_PROPERTY
W
SciTegic.value.DoubleValue
-65.560

@<SCITEGIC>MOL_PROPERTY
W(PB)
SciTegic.value.DoubleValue
-67.414

@<SCITEGIC>MOL_PROPERTY
W(SA)
SciTegic.value.DoubleValue
1.854

@<SCITEGIC>MOL_PROPERTY
Valence
SciTegic.value.DoubleValue
7.002

@<SCITEGIC>MOL_PROPERTY
Coulomb
SciTegic.value.DoubleValue
2.402

@<SCITEGIC>MOL_PROPERTY
VdW
SciTegic.value.DoubleValue
0.314

@<SCITEGIC>MOL_PROPERTY
VdW6
SciTegic.value.DoubleValue
-5.861

@<SCITEGIC>MOL_PROPERTY
VdW12
SciTegic.value.DoubleValue
6.175

@<SCITEGIC>MOL_PROPERTY
Bond
SciTegic.value.DoubleValue
0.134

@<SCITEGIC>MOL_PROPERTY
Angle
SciTegic.value.DoubleValue
2.733

@<SCITEGIC>MOL_PROPERTY
Pdih
SciTegic.value.DoubleValue
4.133

@<SCITEGIC>MOL_PROPERTY
Idih
SciTegic.value.DoubleValue
0.002

@<SCITEGIC>MOL_PROPERTY
Tether
SciTegic.value.DoubleValue
0.000

@<TRIPOS>MOLECULE
guest-s18_confgen4.mol2 : confsearch ligand conformer 438
          16          15           1
SMALL
USER_CHARGES
 
@<TRIPOS>ATOM
       1    C1      21.391428   18.615607   23.838709 C.2        1 MOL1         0.6075
       2    O1      22.537898   19.001782   23.953865 O.co2      1 MOL1        -0.6830
       3    O2      20.580970   18.642798   24.743540 O.co2      1 MOL1        -0.6830
       4    C2      20.959409   18.034073   22.495235 C.3        1 MOL1        -0.2050
       5    H1      20.015933   17.493529   22.632765 H          1 MOL1         0.0710
       6    H2      21.707082   17.285017   22.209259 H          1 MOL1         0.0710
       7    C3      20.827350   19.085848   21.359890 C.3        1 MOL1        -0.1947
       8    H3      21.802705   19.569809   21.212179 H          1 MOL1         0.0712
       9    H4      20.593062   18.571612   20.418062 H          1 MOL1         0.0712
      10    C4      19.762535   20.177312   21.622320 C.3        1 MOL1        -0.1921
      11    H5      19.804180   20.913405   20.807726 H          1 MOL1         0.0712
      12    H6      20.005110   20.723028   22.544788 H          1 MOL1         0.0712
      13    C5      18.327067   19.617547   21.714713 C.3        1 MOL1        -0.2936
      14    H7      18.072018   19.036898   20.818686 H          1 MOL1         0.0724
      15    H8      17.601361   20.436022   21.805864 H          1 MOL1         0.0724
      16    H9      18.208191   18.969863   22.592700 H          1 MOL1         0.0724
@<TRIPOS>BOND
    1     1     2    1
    2     1     3    2
    3     1     4    1
    4     4     5    1
    5     4     6    1
    6     4     7    1
    7     7     8    1
    8     7     9    1
    9     7    10    1
   10    10    11    1
   11    10    12    1
   12    10    13    1
   13    13    14    1
   14    13    15    1
   15    13    16    1
@<TRIPOS>SUBSTRUCTURE
       1 MOL1            1 RESIDUE      1      MOL     
@<SCITEGIC>MOL_PROPERTY
VConf Rank
SciTegic.value.IntegerValue
438

@<SCITEGIC>MOL_PROPERTY
Conf_Id
SciTegic.value.IntegerValue
39

@<SCITEGIC>MOL_PROPERTY
Delta U+W
SciTegic.value.DoubleValue
1.129

@<SCITEGIC>MOL_PROPERTY
U+W
SciTegic.value.DoubleValue
-55.775

@<SCITEGIC>MOL_PROPERTY
Grad RMS
SciTegic.value.DoubleValue
0.000000

@<SCITEGIC>MOL_PROPERTY
U
SciTegic.value.DoubleValue
9.718

@<SCITEGIC>MOL_PROPERTY
W
SciTegic.value.DoubleValue
-65.493

@<SCITEGIC>MOL_PROPERTY
W(PB)
SciTegic.value.DoubleValue
-67.361

@<SCITEGIC>MOL_PROPERTY
W(SA)
SciTegic.value.DoubleValue
1.869

@<SCITEGIC>MOL_PROPERTY
Valence
SciTegic.value.DoubleValue
7.002

@<SCITEGIC>MOL_PROPERTY
Coulomb
SciTegic.value.DoubleValue
2.402

@<SCITEGIC>MOL_PROPERTY
VdW
SciTegic.value.DoubleValue
0.314

@<SCITEGIC>MOL_PROPERTY
VdW6
SciTegic.value.DoubleValue
-5.861

@<SCITEGIC>MOL_PROPERTY
VdW12
SciTegic.value.DoubleValue
6.175

@<SCITEGIC>MOL_PROPERTY
Bond
SciTegic.value.DoubleValue
0.134

@<SCITEGIC>MOL_PROPERTY
Angle
SciTegic.value.DoubleValue
2.734

@<SCITEGIC>MOL_PROPERTY
Pdih
SciTegic.value.DoubleValue
4.133

@<SCITEGIC>MOL_PROPERTY
Idih
SciTegic.value.DoubleValue
0.002

@<SCITEGIC>MOL_PROPERTY
Tether
SciTegic.value.DoubleValue
0.000

@<TRIPOS>MOLECULE
guest-s18_confgen4.mol2 : confsearch ligand conformer 439
          16          15           1
SMALL
USER_CHARGES
 
@<TRIPOS>ATOM
       1    C1      20.227855   20.544558   20.954380 C.2        1 MOL1         0.6075
       2    O1      21.035573   20.205856   20.111948 O.co2      1 MOL1        -0.6830
       3    O2      20.290599   21.599315   21.554970 O.co2      1 MOL1        -0.6830
       4    C2      19.024148   19.637898   21.204810 C.3        1 MOL1        -0.2050
       5    H1      19.080669   18.775185   20.529896 H          1 MOL1         0.0710
       6    H2      18.138496   20.211127   20.906850 H          1 MOL1         0.0710
       7    C3      18.845849   19.160842   22.673690 C.3        1 MOL1        -0.1947
       8    H3      18.994682   20.004356   23.362075 H          1 MOL1         0.0712
       9    H4      17.801811   18.845136   22.803172 H          1 MOL1         0.0712
      10    C4      19.751745   17.974584   23.083212 C.3        1 MOL1        -0.1921
      11    H5      19.601433   17.134224   22.391524 H          1 MOL1         0.0712
      12    H6      19.433146   17.619942   24.073170 H          1 MOL1         0.0712
      13    C5      21.251701   18.329368   23.150653 C.3        1 MOL1        -0.2936
      14    H7      21.659507   18.531980   22.152834 H          1 MOL1         0.0724
      15    H8      21.824423   17.496249   23.578053 H          1 MOL1         0.0724
      16    H9      21.419652   19.214198   23.778504 H          1 MOL1         0.0724
@<TRIPOS>BOND
    1     1     2    1
    2     1     3    2
    3     1     4    1
    4     4     5    1
    5     4     6    1
    6     4     7    1
    7     7     8    1
    8     7     9    1
    9     7    10    1
   10    10    11    1
   11    10    12    1
   12    10    13    1
   13    13    14    1
   14    13    15    1
   15    13    16    1
@<TRIPOS>SUBSTRUCTURE
       1 MOL1            1 RESIDUE      1      MOL     
@<SCITEGIC>MOL_PROPERTY
VConf Rank
SciTegic.value.IntegerValue
439

@<SCITEGIC>MOL_PROPERTY
Conf_Id
SciTegic.value.IntegerValue
47

@<SCITEGIC>MOL_PROPERTY
Delta U+W
SciTegic.value.DoubleValue
2.301

@<SCITEGIC>MOL_PROPERTY
U+W
SciTegic.value.DoubleValue
-54.603

@<SCITEGIC>MOL_PROPERTY
Grad RMS
SciTegic.value.DoubleValue
0.000000

@<SCITEGIC>MOL_PROPERTY
U
SciTegic.value.DoubleValue
11.258

@<SCITEGIC>MOL_PROPERTY
W
SciTegic.value.DoubleValue
-65.861

@<SCITEGIC>MOL_PROPERTY
W(PB)
SciTegic.value.DoubleValue
-67.702

@<SCITEGIC>MOL_PROPERTY
W(SA)
SciTegic.value.DoubleValue
1.841

@<SCITEGIC>MOL_PROPERTY
Valence
SciTegic.value.DoubleValue
8.169

@<SCITEGIC>MOL_PROPERTY
Coulomb
SciTegic.value.DoubleValue
2.735

@<SCITEGIC>MOL_PROPERTY
VdW
SciTegic.value.DoubleValue
0.355

@<SCITEGIC>MOL_PROPERTY
VdW6
SciTegic.value.DoubleValue
-6.245

@<SCITEGIC>MOL_PROPERTY
VdW12
SciTegic.value.DoubleValue
6.600

@<SCITEGIC>MOL_PROPERTY
Bond
SciTegic.value.DoubleValue
0.149

@<SCITEGIC>MOL_PROPERTY
Angle
SciTegic.value.DoubleValue
3.168

@<SCITEGIC>MOL_PROPERTY
Pdih
SciTegic.value.DoubleValue
4.840

@<SCITEGIC>MOL_PROPERTY
Idih
SciTegic.value.DoubleValue
0.011

@<SCITEGIC>MOL_PROPERTY
Tether
SciTegic.value.DoubleValue
0.000

@<TRIPOS>MOLECULE
guest-s18_confgen4.mol2 : confsearch ligand conformer 440
          16          15           1
SMALL
USER_CHARGES
 
@<TRIPOS>ATOM
       1    C1      19.674549   21.039327   22.744888 C.2        1 MOL1         0.6075
       2    O1      19.589507   21.131846   23.953758 O.co2      1 MOL1        -0.6830
       3    O2      18.924072   21.607758   21.976456 O.co2      1 MOL1        -0.6830
       4    C2      20.837799   20.241212   22.158775 C.3        1 MOL1        -0.2050
       5    H1      21.754490   20.742287   22.490964 H          1 MOL1         0.0710
       6    H2      20.813285   20.325355   21.065478 H          1 MOL1         0.0710
       7    C3      20.898013   18.746453   22.581929 C.3        1 MOL1        -0.1947
       8    H3      21.923064   18.388301   22.416243 H          1 MOL1         0.0712
       9    H4      20.716304   18.655351   23.661847 H          1 MOL1         0.0712
      10    C4      19.940458   17.813962   21.801475 C.3        1 MOL1        -0.1921
      11    H5      20.178133   16.773813   22.063954 H          1 MOL1         0.0712
      12    H6      20.124025   17.909355   20.722386 H          1 MOL1         0.0712
      13    C5      18.447154   18.063783   22.097987 C.3        1 MOL1        -0.2936
      14    H7      17.827688   17.288461   21.629046 H          1 MOL1         0.0724
      15    H8      18.118003   19.032450   21.702583 H          1 MOL1         0.0724
      16    H9      18.251610   18.047304   23.178181 H          1 MOL1         0.0724
@<TRIPOS>BOND
    1     1     2    1
    2     1     3    2
    3     1     4    1
    4     4     5    1
    5     4     6    1
    6     4     7    1
    7     7     8    1
    8     7     9    1
    9     7    10    1
   10    10    11    1
   11    10    12    1
   12    10    13    1
   13    13    14    1
   14    13    15    1
   15    13    16    1
@<TRIPOS>SUBSTRUCTURE
       1 MOL1            1 RESIDUE      1      MOL     
@<SCITEGIC>MOL_PROPERTY
VConf Rank
SciTegic.value.IntegerValue
440

@<SCITEGIC>MOL_PROPERTY
Conf_Id
SciTegic.value.IntegerValue
45

@<SCITEGIC>MOL_PROPERTY
Delta U+W
SciTegic.value.DoubleValue
2.303

@<SCITEGIC>MOL_PROPERTY
U+W
SciTegic.value.DoubleValue
-54.601

@<SCITEGIC>MOL_PROPERTY
Grad RMS
SciTegic.value.DoubleValue
0.000000

@<SCITEGIC>MOL_PROPERTY
U
SciTegic.value.DoubleValue
11.258

@<SCITEGIC>MOL_PROPERTY
W
SciTegic.value.DoubleValue
-65.860

@<SCITEGIC>MOL_PROPERTY
W(PB)
SciTegic.value.DoubleValue
-67.709

@<SCITEGIC>MOL_PROPERTY
W(SA)
SciTegic.value.DoubleValue
1.849

@<SCITEGIC>MOL_PROPERTY
Valence
SciTegic.value.DoubleValue
8.169

@<SCITEGIC>MOL_PROPERTY
Coulomb
SciTegic.value.DoubleValue
2.735

@<SCITEGIC>MOL_PROPERTY
VdW
SciTegic.value.DoubleValue
0.355

@<SCITEGIC>MOL_PROPERTY
VdW6
SciTegic.value.DoubleValue
-6.245

@<SCITEGIC>MOL_PROPERTY
VdW12
SciTegic.value.DoubleValue
6.600

@<SCITEGIC>MOL_PROPERTY
Bond
SciTegic.value.DoubleValue
0.149

@<SCITEGIC>MOL_PROPERTY
Angle
SciTegic.value.DoubleValue
3.168

@<SCITEGIC>MOL_PROPERTY
Pdih
SciTegic.value.DoubleValue
4.840

@<SCITEGIC>MOL_PROPERTY
Idih
SciTegic.value.DoubleValue
0.011

@<SCITEGIC>MOL_PROPERTY
Tether
SciTegic.value.DoubleValue
0.000

@<TRIPOS>MOLECULE
guest-s18_confgen4.mol2 : confsearch ligand conformer 441
          16          15           1
SMALL
USER_CHARGES
 
@<TRIPOS>ATOM
       1    C1      20.845635   16.510974   22.216375 C.2        1 MOL1         0.6075
       2    O1      21.873598   16.674448   21.588407 O.co2      1 MOL1        -0.6830
       3    O2      20.531231   15.444842   22.706097 O.co2      1 MOL1        -0.6830
       4    C2      19.882489   17.682409   22.416331 C.3        1 MOL1        -0.2050
       5    H1      19.750119   17.816531   23.496447 H          1 MOL1         0.0710
       6    H2      18.910390   17.379984   22.009236 H          1 MOL1         0.0710
       7    C3      20.325436   19.023235   21.772645 C.3        1 MOL1        -0.1947
       8    H3      21.302286   19.318290   22.180291 H          1 MOL1         0.0712
       9    H4      20.461675   18.881294   20.691552 H          1 MOL1         0.0712
      10    C4      19.297735   20.146774   22.023145 C.3        1 MOL1        -0.1921
      11    H5      19.161864   20.290949   23.104002 H          1 MOL1         0.0712
      12    H6      18.320742   19.853701   21.614376 H          1 MOL1         0.0712
      13    C5      19.743193   21.475703   21.381541 C.3        1 MOL1        -0.2936
      14    H7      20.704000   21.808961   21.795375 H          1 MOL1         0.0724
      15    H8      19.001863   22.263394   21.568928 H          1 MOL1         0.0724
      16    H9      19.856673   21.368493   20.294758 H          1 MOL1         0.0724
@<TRIPOS>BOND
    1     1     2    1
    2     1     3    2
    3     1     4    1
    4     4     5    1
    5     4     6    1
    6     4     7    1
    7     7     8    1
    8     7     9    1
    9     7    10    1
   10    10    11    1
   11    10    12    1
   12    10    13    1
   13    13    14    1
   14    13    15    1
   15    13    16    1
@<TRIPOS>SUBSTRUCTURE
       1 MOL1            1 RESIDUE      1      MOL     
@<SCITEGIC>MOL_PROPERTY
VConf Rank
SciTegic.value.IntegerValue
441

@<SCITEGIC>MOL_PROPERTY
Conf_Id
SciTegic.value.IntegerValue
0

@<SCITEGIC>MOL_PROPERTY
Delta U+W
SciTegic.value.DoubleValue
0.000

@<SCITEGIC>MOL_PROPERTY
U+W
SciTegic.value.DoubleValue
-56.904

@<SCITEGIC>MOL_PROPERTY
Grad RMS
SciTegic.value.DoubleValue
0.000000

@<SCITEGIC>MOL_PROPERTY
U
SciTegic.value.DoubleValue
7.329

@<SCITEGIC>MOL_PROPERTY
W
SciTegic.value.DoubleValue
-64.233

@<SCITEGIC>MOL_PROPERTY
W(PB)
SciTegic.value.DoubleValue
-66.148

@<SCITEGIC>MOL_PROPERTY
W(SA)
SciTegic.value.DoubleValue
1.915

@<SCITEGIC>MOL_PROPERTY
Valence
SciTegic.value.DoubleValue
6.755

@<SCITEGIC>MOL_PROPERTY
Coulomb
SciTegic.value.DoubleValue
-0.421

@<SCITEGIC>MOL_PROPERTY
VdW
SciTegic.value.DoubleValue
0.995

@<SCITEGIC>MOL_PROPERTY
VdW6
SciTegic.value.DoubleValue
-4.495

@<SCITEGIC>MOL_PROPERTY
VdW12
SciTegic.value.DoubleValue
5.490

@<SCITEGIC>MOL_PROPERTY
Bond
SciTegic.value.DoubleValue
0.106

@<SCITEGIC>MOL_PROPERTY
Angle
SciTegic.value.DoubleValue
2.715

@<SCITEGIC>MOL_PROPERTY
Pdih
SciTegic.value.DoubleValue
3.934

@<SCITEGIC>MOL_PROPERTY
Idih
SciTegic.value.DoubleValue
0.000

@<SCITEGIC>MOL_PROPERTY
Tether
SciTegic.value.DoubleValue
0.000

@<TRIPOS>MOLECULE
guest-s18_confgen4.mol2 : confsearch ligand conformer 442
          16          15           1
SMALL
USER_CHARGES
 
@<TRIPOS>ATOM
       1    C1      17.844324   17.503397   21.750079 C.2        1 MOL1         0.6075
       2    O1      17.929206   16.456913   22.361233 O.co2      1 MOL1        -0.6830
       3    O2      16.796014   18.086779   21.558887 O.co2      1 MOL1        -0.6830
       4    C2      19.125672   18.127970   21.209118 C.3        1 MOL1        -0.2050
       5    H1      18.880532   18.660744   20.282344 H          1 MOL1         0.0710
       6    H2      19.814822   17.317039   20.943952 H          1 MOL1         0.0710
       7    C3      19.798456   19.092056   22.217068 C.3        1 MOL1        -0.1947
       8    H3      19.092086   19.891016   22.482121 H          1 MOL1         0.0712
       9    H4      20.026359   18.547269   23.143793 H          1 MOL1         0.0712
      10    C4      21.091624   19.709654   21.645360 C.3        1 MOL1        -0.1921
      11    H5      20.864018   20.255117   20.718967 H          1 MOL1         0.0712
      12    H6      21.798523   18.911015   21.380772 H          1 MOL1         0.0712
      13    C5      21.755686   20.667878   22.653789 C.3        1 MOL1        -0.2936
      14    H7      22.022769   20.140794   23.579165 H          1 MOL1         0.0724
      15    H8      21.081351   21.494811   22.912490 H          1 MOL1         0.0724
      16    H9      22.673303   21.098140   22.231885 H          1 MOL1         0.0724
@<TRIPOS>BOND
    1     1     2    1
    2     1     3    2
    3     1     4    1
    4     4     5    1
    5     4     6    1
    6     4     7    1
    7     7     8    1
    8     7     9    1
    9     7    10    1
   10    10    11    1
   11    10    12    1
   12    10    13    1
   13    13    14    1
   14    13    15    1
   15    13    16    1
@<TRIPOS>SUBSTRUCTURE
       1 MOL1            1 RESIDUE      1      MOL     
@<SCITEGIC>MOL_PROPERTY
VConf Rank
SciTegic.value.IntegerValue
442

@<SCITEGIC>MOL_PROPERTY
Conf_Id
SciTegic.value.IntegerValue
22

@<SCITEGIC>MOL_PROPERTY
Delta U+W
SciTegic.value.DoubleValue
-1.185

@<SCITEGIC>MOL_PROPERTY
U+W
SciTegic.value.DoubleValue
-58.089

@<SCITEGIC>MOL_PROPERTY
Grad RMS
SciTegic.value.DoubleValue
0.000000

@<SCITEGIC>MOL_PROPERTY
U
SciTegic.value.DoubleValue
6.298

@<SCITEGIC>MOL_PROPERTY
W
SciTegic.value.DoubleValue
-64.387

@<SCITEGIC>MOL_PROPERTY
W(PB)
SciTegic.value.DoubleValue
-66.329

@<SCITEGIC>MOL_PROPERTY
W(SA)
SciTegic.value.DoubleValue
1.942

@<SCITEGIC>MOL_PROPERTY
Valence
SciTegic.value.DoubleValue
6.246

@<SCITEGIC>MOL_PROPERTY
Coulomb
SciTegic.value.DoubleValue
-0.408

@<SCITEGIC>MOL_PROPERTY
VdW
SciTegic.value.DoubleValue
0.460

@<SCITEGIC>MOL_PROPERTY
VdW6
SciTegic.value.DoubleValue
-4.207

@<SCITEGIC>MOL_PROPERTY
VdW12
SciTegic.value.DoubleValue
4.667

@<SCITEGIC>MOL_PROPERTY
Bond
SciTegic.value.DoubleValue
0.072

@<SCITEGIC>MOL_PROPERTY
Angle
SciTegic.value.DoubleValue
2.246

@<SCITEGIC>MOL_PROPERTY
Pdih
SciTegic.value.DoubleValue
3.928

@<SCITEGIC>MOL_PROPERTY
Idih
SciTegic.value.DoubleValue
0.001

@<SCITEGIC>MOL_PROPERTY
Tether
SciTegic.value.DoubleValue
0.000

@<TRIPOS>MOLECULE
guest-s18_confgen4.mol2 : confsearch ligand conformer 443
          16          15           1
SMALL
USER_CHARGES
 
@<TRIPOS>ATOM
       1    C1      22.140470   20.111251   23.004577 C.2        1 MOL1         0.6075
       2    O1      22.524788   19.816305   24.118714 O.co2      1 MOL1        -0.6830
       3    O2      22.492284   21.114462   22.416571 O.co2      1 MOL1        -0.6830
       4    C2      21.147351   19.182016   22.315512 C.3        1 MOL1        -0.2050
       5    H1      21.357451   18.156505   22.642239 H          1 MOL1         0.0710
       6    H2      21.340763   19.225898   21.237652 H          1 MOL1         0.0710
       7    C3      19.671297   19.547769   22.619620 C.3        1 MOL1        -0.1947
       8    H3      19.532653   19.579795   23.709198 H          1 MOL1         0.0712
       9    H4      19.461005   20.560829   22.249761 H          1 MOL1         0.0712
      10    C4      18.653874   18.550772   22.018573 C.3        1 MOL1        -0.1921
      11    H5      17.647673   18.818159   22.369816 H          1 MOL1         0.0712
      12    H6      18.856696   17.539511   22.397511 H          1 MOL1         0.0712
      13    C5      18.654745   18.536595   20.474963 C.3        1 MOL1        -0.2936
      14    H7      19.607742   18.165123   20.077991 H          1 MOL1         0.0724
      15    H8      18.482464   19.543455   20.072717 H          1 MOL1         0.0724
      16    H9      17.859460   17.881127   20.096952 H          1 MOL1         0.0724
@<TRIPOS>BOND
    1     1     2    1
    2     1     3    2
    3     1     4    1
    4     4     5    1
    5     4     6    1
    6     4     7    1
    7     7     8    1
    8     7     9    1
    9     7    10    1
   10    10    11    1
   11    10    12    1
   12    10    13    1
   13    13    14    1
   14    13    15    1
   15    13    16    1
@<TRIPOS>SUBSTRUCTURE
       1 MOL1            1 RESIDUE      1      MOL     
@<SCITEGIC>MOL_PROPERTY
VConf Rank
SciTegic.value.IntegerValue
443

@<SCITEGIC>MOL_PROPERTY
Conf_Id
SciTegic.value.IntegerValue
36

@<SCITEGIC>MOL_PROPERTY
Delta U+W
SciTegic.value.DoubleValue
-0.427

@<SCITEGIC>MOL_PROPERTY
U+W
SciTegic.value.DoubleValue
-57.331

@<SCITEGIC>MOL_PROPERTY
Grad RMS
SciTegic.value.DoubleValue
0.000000

@<SCITEGIC>MOL_PROPERTY
U
SciTegic.value.DoubleValue
7.263

@<SCITEGIC>MOL_PROPERTY
W
SciTegic.value.DoubleValue
-64.594

@<SCITEGIC>MOL_PROPERTY
W(PB)
SciTegic.value.DoubleValue
-66.513

@<SCITEGIC>MOL_PROPERTY
W(SA)
SciTegic.value.DoubleValue
1.920

@<SCITEGIC>MOL_PROPERTY
Valence
SciTegic.value.DoubleValue
6.734

@<SCITEGIC>MOL_PROPERTY
Coulomb
SciTegic.value.DoubleValue
-0.068

@<SCITEGIC>MOL_PROPERTY
VdW
SciTegic.value.DoubleValue
0.598

@<SCITEGIC>MOL_PROPERTY
VdW6
SciTegic.value.DoubleValue
-4.819

@<SCITEGIC>MOL_PROPERTY
VdW12
SciTegic.value.DoubleValue
5.417

@<SCITEGIC>MOL_PROPERTY
Bond
SciTegic.value.DoubleValue
0.107

@<SCITEGIC>MOL_PROPERTY
Angle
SciTegic.value.DoubleValue
2.469

@<SCITEGIC>MOL_PROPERTY
Pdih
SciTegic.value.DoubleValue
4.157

@<SCITEGIC>MOL_PROPERTY
Idih
SciTegic.value.DoubleValue
0.001

@<SCITEGIC>MOL_PROPERTY
Tether
SciTegic.value.DoubleValue
0.000

@<TRIPOS>MOLECULE
guest-s18_confgen4.mol2 : confsearch ligand conformer 444
          16          15           1
SMALL
USER_CHARGES
 
@<TRIPOS>ATOM
       1    C1      17.728736   19.713902   23.161537 C.2        1 MOL1         0.6075
       2    O1      16.789547   19.589386   22.401026 O.co2      1 MOL1        -0.6830
       3    O2      17.679951   20.361152   24.188514 O.co2      1 MOL1        -0.6830
       4    C2      19.046096   19.038034   22.797754 C.3        1 MOL1        -0.2050
       5    H1      18.809903   18.112480   22.260463 H          1 MOL1         0.0710
       6    H2      19.551462   18.753918   23.728587 H          1 MOL1         0.0710
       7    C3      19.970370   19.943620   21.942988 C.3        1 MOL1        -0.1947
       8    H3      19.470719   20.186534   20.995016 H          1 MOL1         0.0712
       9    H4      20.116786   20.896568   22.470133 H          1 MOL1         0.0712
      10    C4      21.354278   19.315943   21.657985 C.3        1 MOL1        -0.1921
      11    H5      21.859032   19.083743   22.605976 H          1 MOL1         0.0712
      12    H6      21.980809   20.059646   21.146446 H          1 MOL1         0.0712
      13    C5      21.278030   18.044759   20.785512 C.3        1 MOL1        -0.2936
      14    H7      20.755912   17.232098   21.305854 H          1 MOL1         0.0724
      15    H8      22.286365   17.687556   20.539189 H          1 MOL1         0.0724
      16    H9      20.751295   18.245799   19.843502 H          1 MOL1         0.0724
@<TRIPOS>BOND
    1     1     2    1
    2     1     3    2
    3     1     4    1
    4     4     5    1
    5     4     6    1
    6     4     7    1
    7     7     8    1
    8     7     9    1
    9     7    10    1
   10    10    11    1
   11    10    12    1
   12    10    13    1
   13    13    14    1
   14    13    15    1
   15    13    16    1
@<TRIPOS>SUBSTRUCTURE
       1 MOL1            1 RESIDUE      1      MOL     
@<SCITEGIC>MOL_PROPERTY
VConf Rank
SciTegic.value.IntegerValue
444

@<SCITEGIC>MOL_PROPERTY
Conf_Id
SciTegic.value.IntegerValue
17

@<SCITEGIC>MOL_PROPERTY
Delta U+W
SciTegic.value.DoubleValue
-0.432

@<SCITEGIC>MOL_PROPERTY
U+W
SciTegic.value.DoubleValue
-57.336

@<SCITEGIC>MOL_PROPERTY
Grad RMS
SciTegic.value.DoubleValue
0.000000

@<SCITEGIC>MOL_PROPERTY
U
SciTegic.value.DoubleValue
7.263

@<SCITEGIC>MOL_PROPERTY
W
SciTegic.value.DoubleValue
-64.599

@<SCITEGIC>MOL_PROPERTY
W(PB)
SciTegic.value.DoubleValue
-66.503

@<SCITEGIC>MOL_PROPERTY
W(SA)
SciTegic.value.DoubleValue
1.904

@<SCITEGIC>MOL_PROPERTY
Valence
SciTegic.value.DoubleValue
6.734

@<SCITEGIC>MOL_PROPERTY
Coulomb
SciTegic.value.DoubleValue
-0.068

@<SCITEGIC>MOL_PROPERTY
VdW
SciTegic.value.DoubleValue
0.598

@<SCITEGIC>MOL_PROPERTY
VdW6
SciTegic.value.DoubleValue
-4.819

@<SCITEGIC>MOL_PROPERTY
VdW12
SciTegic.value.DoubleValue
5.417

@<SCITEGIC>MOL_PROPERTY
Bond
SciTegic.value.DoubleValue
0.107

@<SCITEGIC>MOL_PROPERTY
Angle
SciTegic.value.DoubleValue
2.469

@<SCITEGIC>MOL_PROPERTY
Pdih
SciTegic.value.DoubleValue
4.157

@<SCITEGIC>MOL_PROPERTY
Idih
SciTegic.value.DoubleValue
0.001

@<SCITEGIC>MOL_PROPERTY
Tether
SciTegic.value.DoubleValue
0.000

@<TRIPOS>MOLECULE
guest-s18_confgen4.mol2 : confsearch ligand conformer 445
          16          15           1
SMALL
USER_CHARGES
 
@<TRIPOS>ATOM
       1    C1      22.446150   19.532783   22.425679 C.2        1 MOL1         0.6075
       2    O1      22.749970   20.708178   22.375856 O.co2      1 MOL1        -0.6830
       3    O2      22.797422   18.786061   23.317461 O.co2      1 MOL1        -0.6830
       4    C2      21.597614   18.960072   21.293653 C.3        1 MOL1        -0.2050
       5    H1      21.704370   17.868428   21.293230 H          1 MOL1         0.0710
       6    H2      22.023349   19.320516   20.349692 H          1 MOL1         0.0710
       7    C3      20.098642   19.350826   21.367332 C.3        1 MOL1        -0.1947
       8    H3      20.008688   20.445686   21.395871 H          1 MOL1         0.0712
       9    H4      19.597546   19.016255   20.448896 H          1 MOL1         0.0712
      10    C4      19.383893   18.735356   22.589835 C.3        1 MOL1        -0.1921
      11    H5      19.864380   19.079742   23.516255 H          1 MOL1         0.0712
      12    H6      19.485329   17.641490   22.566532 H          1 MOL1         0.0712
      13    C5      17.889235   19.111388   22.620524 C.3        1 MOL1        -0.2936
      14    H7      17.759582   20.200265   22.675192 H          1 MOL1         0.0724
      15    H8      17.396722   18.667057   23.495233 H          1 MOL1         0.0724
      16    H9      17.374208   18.749179   21.721098 H          1 MOL1         0.0724
@<TRIPOS>BOND
    1     1     2    1
    2     1     3    2
    3     1     4    1
    4     4     5    1
    5     4     6    1
    6     4     7    1
    7     7     8    1
    8     7     9    1
    9     7    10    1
   10    10    11    1
   11    10    12    1
   12    10    13    1
   13    13    14    1
   14    13    15    1
   15    13    16    1
@<TRIPOS>SUBSTRUCTURE
       1 MOL1            1 RESIDUE      1      MOL     
@<SCITEGIC>MOL_PROPERTY
VConf Rank
SciTegic.value.IntegerValue
445

@<SCITEGIC>MOL_PROPERTY
Conf_Id
SciTegic.value.IntegerValue
19

@<SCITEGIC>MOL_PROPERTY
Delta U+W
SciTegic.value.DoubleValue
0.048

@<SCITEGIC>MOL_PROPERTY
U+W
SciTegic.value.DoubleValue
-56.856

@<SCITEGIC>MOL_PROPERTY
Grad RMS
SciTegic.value.DoubleValue
0.000000

@<SCITEGIC>MOL_PROPERTY
U
SciTegic.value.DoubleValue
8.276

@<SCITEGIC>MOL_PROPERTY
W
SciTegic.value.DoubleValue
-65.132

@<SCITEGIC>MOL_PROPERTY
W(PB)
SciTegic.value.DoubleValue
-67.031

@<SCITEGIC>MOL_PROPERTY
W(SA)
SciTegic.value.DoubleValue
1.899

@<SCITEGIC>MOL_PROPERTY
Valence
SciTegic.value.DoubleValue
6.513

@<SCITEGIC>MOL_PROPERTY
Coulomb
SciTegic.value.DoubleValue
1.428

@<SCITEGIC>MOL_PROPERTY
VdW
SciTegic.value.DoubleValue
0.335

@<SCITEGIC>MOL_PROPERTY
VdW6
SciTegic.value.DoubleValue
-5.021

@<SCITEGIC>MOL_PROPERTY
VdW12
SciTegic.value.DoubleValue
5.356

@<SCITEGIC>MOL_PROPERTY
Bond
SciTegic.value.DoubleValue
0.092

@<SCITEGIC>MOL_PROPERTY
Angle
SciTegic.value.DoubleValue
2.417

@<SCITEGIC>MOL_PROPERTY
Pdih
SciTegic.value.DoubleValue
4.003

@<SCITEGIC>MOL_PROPERTY
Idih
SciTegic.value.DoubleValue
0.001

@<SCITEGIC>MOL_PROPERTY
Tether
SciTegic.value.DoubleValue
0.000

@<TRIPOS>MOLECULE
guest-s18_confgen4.mol2 : confsearch ligand conformer 446
          16          15           1
SMALL
USER_CHARGES
 
@<TRIPOS>ATOM
       1    C1      19.048583   18.561386   19.950137 C.2        1 MOL1         0.6075
       2    O1      17.837048   18.595913   19.864513 O.co2      1 MOL1        -0.6830
       3    O2      19.721153   17.620688   19.577311 O.co2      1 MOL1        -0.6830
       4    C2      19.763633   19.775712   20.536322 C.3        1 MOL1        -0.2050
       5    H1      19.326638   20.668722   20.073932 H          1 MOL1         0.0710
       6    H2      20.816656   19.743661   20.231034 H          1 MOL1         0.0710
       7    C3      19.657319   19.887912   22.079420 C.3        1 MOL1        -0.1947
       8    H3      20.074990   20.853190   22.396199 H          1 MOL1         0.0712
       9    H4      18.598140   19.890166   22.372265 H          1 MOL1         0.0712
      10    C4      20.399516   18.748105   22.810292 C.3        1 MOL1        -0.1921
      11    H5      21.455631   18.739322   22.507105 H          1 MOL1         0.0712
      12    H6      19.976072   17.777528   22.516355 H          1 MOL1         0.0712
      13    C5      20.306598   18.902190   24.341296 C.3        1 MOL1        -0.2936
      14    H7      20.754103   19.849728   24.668905 H          1 MOL1         0.0724
      15    H8      20.837984   18.084302   24.845087 H          1 MOL1         0.0724
      16    H9      19.260734   18.883153   24.674847 H          1 MOL1         0.0724
@<TRIPOS>BOND
    1     1     2    1
    2     1     3    2
    3     1     4    1
    4     4     5    1
    5     4     6    1
    6     4     7    1
    7     7     8    1
    8     7     9    1
    9     7    10    1
   10    10    11    1
   11    10    12    1
   12    10    13    1
   13    13    14    1
   14    13    15    1
   15    13    16    1
@<TRIPOS>SUBSTRUCTURE
       1 MOL1            1 RESIDUE      1      MOL     
@<SCITEGIC>MOL_PROPERTY
VConf Rank
SciTegic.value.IntegerValue
446

@<SCITEGIC>MOL_PROPERTY
Conf_Id
SciTegic.value.IntegerValue
20

@<SCITEGIC>MOL_PROPERTY
Delta U+W
SciTegic.value.DoubleValue
-0.010

@<SCITEGIC>MOL_PROPERTY
U+W
SciTegic.value.DoubleValue
-56.914

@<SCITEGIC>MOL_PROPERTY
Grad RMS
SciTegic.value.DoubleValue
0.000000

@<SCITEGIC>MOL_PROPERTY
U
SciTegic.value.DoubleValue
8.277

@<SCITEGIC>MOL_PROPERTY
W
SciTegic.value.DoubleValue
-65.191

@<SCITEGIC>MOL_PROPERTY
W(PB)
SciTegic.value.DoubleValue
-67.081

@<SCITEGIC>MOL_PROPERTY
W(SA)
SciTegic.value.DoubleValue
1.890

@<SCITEGIC>MOL_PROPERTY
Valence
SciTegic.value.DoubleValue
6.513

@<SCITEGIC>MOL_PROPERTY
Coulomb
SciTegic.value.DoubleValue
1.429

@<SCITEGIC>MOL_PROPERTY
VdW
SciTegic.value.DoubleValue
0.335

@<SCITEGIC>MOL_PROPERTY
VdW6
SciTegic.value.DoubleValue
-5.021

@<SCITEGIC>MOL_PROPERTY
VdW12
SciTegic.value.DoubleValue
5.356

@<SCITEGIC>MOL_PROPERTY
Bond
SciTegic.value.DoubleValue
0.092

@<SCITEGIC>MOL_PROPERTY
Angle
SciTegic.value.DoubleValue
2.417

@<SCITEGIC>MOL_PROPERTY
Pdih
SciTegic.value.DoubleValue
4.002

@<SCITEGIC>MOL_PROPERTY
Idih
SciTegic.value.DoubleValue
0.001

@<SCITEGIC>MOL_PROPERTY
Tether
SciTegic.value.DoubleValue
0.000

@<TRIPOS>MOLECULE
guest-s18_confgen4.mol2 : confsearch ligand conformer 447
          16          15           1
SMALL
USER_CHARGES
 
@<TRIPOS>ATOM
       1    C1      19.309959   17.392802   21.084864 C.2        1 MOL1         0.6075
       2    O1      18.403828   16.658530   21.426267 O.co2      1 MOL1        -0.6830
       3    O2      20.404636   16.991913   20.742413 O.co2      1 MOL1        -0.6830
       4    C2      19.045252   18.895684   21.052884 C.3        1 MOL1        -0.2050
       5    H1      18.117211   19.050809   20.490251 H          1 MOL1         0.0710
       6    H2      19.841604   19.381124   20.477195 H          1 MOL1         0.0710
       7    C3      18.908884   19.547434   22.456202 C.3        1 MOL1        -0.1947
       8    H3      18.641369   20.606035   22.337167 H          1 MOL1         0.0712
       9    H4      18.069113   19.075075   22.984422 H          1 MOL1         0.0712
      10    C4      20.177142   19.438822   23.335813 C.3        1 MOL1        -0.1921
      11    H5      20.435526   18.382131   23.491507 H          1 MOL1         0.0712
      12    H6      19.953615   19.851925   24.329045 H          1 MOL1         0.0712
      13    C5      21.392053   20.187123   22.747188 C.3        1 MOL1        -0.2936
      14    H7      21.727211   19.726150   21.809286 H          1 MOL1         0.0724
      15    H8      22.235451   20.161175   23.449233 H          1 MOL1         0.0724
      16    H9      21.148747   21.239017   22.548723 H          1 MOL1         0.0724
@<TRIPOS>BOND
    1     1     2    1
    2     1     3    2
    3     1     4    1
    4     4     5    1
    5     4     6    1
    6     4     7    1
    7     7     8    1
    8     7     9    1
    9     7    10    1
   10    10    11    1
   11    10    12    1
   12    10    13    1
   13    13    14    1
   14    13    15    1
   15    13    16    1
@<TRIPOS>SUBSTRUCTURE
       1 MOL1            1 RESIDUE      1      MOL     
@<SCITEGIC>MOL_PROPERTY
VConf Rank
SciTegic.value.IntegerValue
447

@<SCITEGIC>MOL_PROPERTY
Conf_Id
SciTegic.value.IntegerValue
37

@<SCITEGIC>MOL_PROPERTY
Delta U+W
SciTegic.value.DoubleValue
1.063

@<SCITEGIC>MOL_PROPERTY
U+W
SciTegic.value.DoubleValue
-55.841

@<SCITEGIC>MOL_PROPERTY
Grad RMS
SciTegic.value.DoubleValue
0.000000

@<SCITEGIC>MOL_PROPERTY
U
SciTegic.value.DoubleValue
9.719

@<SCITEGIC>MOL_PROPERTY
W
SciTegic.value.DoubleValue
-65.560

@<SCITEGIC>MOL_PROPERTY
W(PB)
SciTegic.value.DoubleValue
-67.414

@<SCITEGIC>MOL_PROPERTY
W(SA)
SciTegic.value.DoubleValue
1.854

@<SCITEGIC>MOL_PROPERTY
Valence
SciTegic.value.DoubleValue
7.002

@<SCITEGIC>MOL_PROPERTY
Coulomb
SciTegic.value.DoubleValue
2.402

@<SCITEGIC>MOL_PROPERTY
VdW
SciTegic.value.DoubleValue
0.314

@<SCITEGIC>MOL_PROPERTY
VdW6
SciTegic.value.DoubleValue
-5.861

@<SCITEGIC>MOL_PROPERTY
VdW12
SciTegic.value.DoubleValue
6.175

@<SCITEGIC>MOL_PROPERTY
Bond
SciTegic.value.DoubleValue
0.134

@<SCITEGIC>MOL_PROPERTY
Angle
SciTegic.value.DoubleValue
2.733

@<SCITEGIC>MOL_PROPERTY
Pdih
SciTegic.value.DoubleValue
4.133

@<SCITEGIC>MOL_PROPERTY
Idih
SciTegic.value.DoubleValue
0.002

@<SCITEGIC>MOL_PROPERTY
Tether
SciTegic.value.DoubleValue
0.000

@<TRIPOS>MOLECULE
guest-s18_confgen4.mol2 : confsearch ligand conformer 448
          16          15           1
SMALL
USER_CHARGES
 
@<TRIPOS>ATOM
       1    C1      21.026659   17.438545   21.200655 C.2        1 MOL1         0.6075
       2    O1      20.425349   16.404474   20.986393 O.co2      1 MOL1        -0.6830
       3    O2      21.718821   17.995439   20.371751 O.co2      1 MOL1        -0.6830
       4    C2      20.933446   18.049317   22.596368 C.3        1 MOL1        -0.2050
       5    H1      21.726200   18.798086   22.706523 H          1 MOL1         0.0710
       6    H2      21.157055   17.252866   23.315775 H          1 MOL1         0.0710
       7    C3      19.547411   18.666376   22.929269 C.3        1 MOL1        -0.1947
       8    H3      18.784962   17.878025   22.861968 H          1 MOL1         0.0712
       9    H4      19.546386   19.007312   23.973364 H          1 MOL1         0.0712
      10    C4      19.134655   19.840571   22.010090 C.3        1 MOL1        -0.1921
      11    H5      18.113249   20.150119   22.270931 H          1 MOL1         0.0712
      12    H6      19.097968   19.502989   20.964964 H          1 MOL1         0.0712
      13    C5      20.070335   21.062624   22.126423 C.3        1 MOL1        -0.2936
      14    H7      20.152425   21.398400   23.168336 H          1 MOL1         0.0724
      15    H8      19.684152   21.899486   21.530282 H          1 MOL1         0.0724
      16    H9      21.077226   20.829522   21.757208 H          1 MOL1         0.0724
@<TRIPOS>BOND
    1     1     2    1
    2     1     3    2
    3     1     4    1
    4     4     5    1
    5     4     6    1
    6     4     7    1
    7     7     8    1
    8     7     9    1
    9     7    10    1
   10    10    11    1
   11    10    12    1
   12    10    13    1
   13    13    14    1
   14    13    15    1
   15    13    16    1
@<TRIPOS>SUBSTRUCTURE
       1 MOL1            1 RESIDUE      1      MOL     
@<SCITEGIC>MOL_PROPERTY
VConf Rank
SciTegic.value.IntegerValue
448

@<SCITEGIC>MOL_PROPERTY
Conf_Id
SciTegic.value.IntegerValue
39

@<SCITEGIC>MOL_PROPERTY
Delta U+W
SciTegic.value.DoubleValue
1.129

@<SCITEGIC>MOL_PROPERTY
U+W
SciTegic.value.DoubleValue
-55.775

@<SCITEGIC>MOL_PROPERTY
Grad RMS
SciTegic.value.DoubleValue
0.000000

@<SCITEGIC>MOL_PROPERTY
U
SciTegic.value.DoubleValue
9.718

@<SCITEGIC>MOL_PROPERTY
W
SciTegic.value.DoubleValue
-65.493

@<SCITEGIC>MOL_PROPERTY
W(PB)
SciTegic.value.DoubleValue
-67.361

@<SCITEGIC>MOL_PROPERTY
W(SA)
SciTegic.value.DoubleValue
1.869

@<SCITEGIC>MOL_PROPERTY
Valence
SciTegic.value.DoubleValue
7.002

@<SCITEGIC>MOL_PROPERTY
Coulomb
SciTegic.value.DoubleValue
2.402

@<SCITEGIC>MOL_PROPERTY
VdW
SciTegic.value.DoubleValue
0.314

@<SCITEGIC>MOL_PROPERTY
VdW6
SciTegic.value.DoubleValue
-5.861

@<SCITEGIC>MOL_PROPERTY
VdW12
SciTegic.value.DoubleValue
6.175

@<SCITEGIC>MOL_PROPERTY
Bond
SciTegic.value.DoubleValue
0.134

@<SCITEGIC>MOL_PROPERTY
Angle
SciTegic.value.DoubleValue
2.734

@<SCITEGIC>MOL_PROPERTY
Pdih
SciTegic.value.DoubleValue
4.133

@<SCITEGIC>MOL_PROPERTY
Idih
SciTegic.value.DoubleValue
0.002

@<SCITEGIC>MOL_PROPERTY
Tether
SciTegic.value.DoubleValue
0.000

@<TRIPOS>MOLECULE
guest-s18_confgen4.mol2 : confsearch ligand conformer 449
          16          15           1
SMALL
USER_CHARGES
 
@<TRIPOS>ATOM
       1    C1      18.195664   19.694493   21.430631 C.2        1 MOL1         0.6075
       2    O1      18.129629   19.350964   20.266823 O.co2      1 MOL1        -0.6830
       3    O2      17.962676   20.826072   21.807995 O.co2      1 MOL1        -0.6830
       4    C2      18.498996   18.627685   22.481138 C.3        1 MOL1        -0.2050
       5    H1      18.603526   17.656048   21.983167 H          1 MOL1         0.0710
       6    H2      17.609095   18.559253   23.117646 H          1 MOL1         0.0710
       7    C3      19.738828   18.909690   23.375718 C.3        1 MOL1        -0.1947
       8    H3      19.730795   19.957277   23.707437 H          1 MOL1         0.0712
       9    H4      19.644618   18.303101   24.286556 H          1 MOL1         0.0712
      10    C4      21.099654   18.569994   22.721256 C.3        1 MOL1        -0.1921
      11    H5      21.102895   17.522602   22.389305 H          1 MOL1         0.0712
      12    H6      21.883542   18.653329   23.486675 H          1 MOL1         0.0712
      13    C5      21.470608   19.490074   21.539675 C.3        1 MOL1        -0.2936
      14    H7      20.810045   19.322541   20.680264 H          1 MOL1         0.0724
      15    H8      22.498608   19.294187   21.208597 H          1 MOL1         0.0724
      16    H9      21.402108   20.547508   21.826856 H          1 MOL1         0.0724
@<TRIPOS>BOND
    1     1     2    1
    2     1     3    2
    3     1     4    1
    4     4     5    1
    5     4     6    1
    6     4     7    1
    7     7     8    1
    8     7     9    1
    9     7    10    1
   10    10    11    1
   11    10    12    1
   12    10    13    1
   13    13    14    1
   14    13    15    1
   15    13    16    1
@<TRIPOS>SUBSTRUCTURE
       1 MOL1            1 RESIDUE      1      MOL     
@<SCITEGIC>MOL_PROPERTY
VConf Rank
SciTegic.value.IntegerValue
449

@<SCITEGIC>MOL_PROPERTY
Conf_Id
SciTegic.value.IntegerValue
47

@<SCITEGIC>MOL_PROPERTY
Delta U+W
SciTegic.value.DoubleValue
2.301

@<SCITEGIC>MOL_PROPERTY
U+W
SciTegic.value.DoubleValue
-54.603

@<SCITEGIC>MOL_PROPERTY
Grad RMS
SciTegic.value.DoubleValue
0.000000

@<SCITEGIC>MOL_PROPERTY
U
SciTegic.value.DoubleValue
11.258

@<SCITEGIC>MOL_PROPERTY
W
SciTegic.value.DoubleValue
-65.861

@<SCITEGIC>MOL_PROPERTY
W(PB)
SciTegic.value.DoubleValue
-67.702

@<SCITEGIC>MOL_PROPERTY
W(SA)
SciTegic.value.DoubleValue
1.841

@<SCITEGIC>MOL_PROPERTY
Valence
SciTegic.value.DoubleValue
8.169

@<SCITEGIC>MOL_PROPERTY
Coulomb
SciTegic.value.DoubleValue
2.735

@<SCITEGIC>MOL_PROPERTY
VdW
SciTegic.value.DoubleValue
0.355

@<SCITEGIC>MOL_PROPERTY
VdW6
SciTegic.value.DoubleValue
-6.245

@<SCITEGIC>MOL_PROPERTY
VdW12
SciTegic.value.DoubleValue
6.600

@<SCITEGIC>MOL_PROPERTY
Bond
SciTegic.value.DoubleValue
0.149

@<SCITEGIC>MOL_PROPERTY
Angle
SciTegic.value.DoubleValue
3.168

@<SCITEGIC>MOL_PROPERTY
Pdih
SciTegic.value.DoubleValue
4.840

@<SCITEGIC>MOL_PROPERTY
Idih
SciTegic.value.DoubleValue
0.011

@<SCITEGIC>MOL_PROPERTY
Tether
SciTegic.value.DoubleValue
0.000

@<TRIPOS>MOLECULE
guest-s18_confgen4.mol2 : confsearch ligand conformer 450
          16          15           1
SMALL
USER_CHARGES
 
@<TRIPOS>ATOM
       1    C1      19.382775   19.530172   24.153243 C.2        1 MOL1         0.6075
       2    O1      20.122755   18.912606   24.893648 O.co2      1 MOL1        -0.6830
       3    O2      18.176382   19.569424   24.294283 O.co2      1 MOL1        -0.6830
       4    C2      20.006708   20.373166   23.042506 C.3        1 MOL1        -0.2050
       5    H1      20.634866   21.121962   23.538965 H          1 MOL1         0.0710
       6    H2      19.212730   20.924279   22.523997 H          1 MOL1         0.0710
       7    C3      20.872691   19.586888   22.018384 C.3        1 MOL1        -0.1947
       8    H3      21.538263   20.302589   21.517146 H          1 MOL1         0.0712
       9    H4      21.529253   18.881571   22.546583 H          1 MOL1         0.0712
      10    C4      20.067223   18.845528   20.924232 C.3        1 MOL1        -0.1921
      11    H5      20.772087   18.463861   20.172706 H          1 MOL1         0.0712
      12    H6      19.410861   19.553657   20.399854 H          1 MOL1         0.0712
      13    C5      19.233263   17.662141   21.457515 C.3        1 MOL1        -0.2936
      14    H7      18.798750   17.092958   20.625652 H          1 MOL1         0.0724
      15    H8      18.405174   18.008893   22.087620 H          1 MOL1         0.0724
      16    H9      19.854371   16.977323   22.049612 H          1 MOL1         0.0724
@<TRIPOS>BOND
    1     1     2    1
    2     1     3    2
    3     1     4    1
    4     4     5    1
    5     4     6    1
    6     4     7    1
    7     7     8    1
    8     7     9    1
    9     7    10    1
   10    10    11    1
   11    10    12    1
   12    10    13    1
   13    13    14    1
   14    13    15    1
   15    13    16    1
@<TRIPOS>SUBSTRUCTURE
       1 MOL1            1 RESIDUE      1      MOL     
@<SCITEGIC>MOL_PROPERTY
VConf Rank
SciTegic.value.IntegerValue
450

@<SCITEGIC>MOL_PROPERTY
Conf_Id
SciTegic.value.IntegerValue
45

@<SCITEGIC>MOL_PROPERTY
Delta U+W
SciTegic.value.DoubleValue
2.303

@<SCITEGIC>MOL_PROPERTY
U+W
SciTegic.value.DoubleValue
-54.601

@<SCITEGIC>MOL_PROPERTY
Grad RMS
SciTegic.value.DoubleValue
0.000000

@<SCITEGIC>MOL_PROPERTY
U
SciTegic.value.DoubleValue
11.258

@<SCITEGIC>MOL_PROPERTY
W
SciTegic.value.DoubleValue
-65.860

@<SCITEGIC>MOL_PROPERTY
W(PB)
SciTegic.value.DoubleValue
-67.709

@<SCITEGIC>MOL_PROPERTY
W(SA)
SciTegic.value.DoubleValue
1.849

@<SCITEGIC>MOL_PROPERTY
Valence
SciTegic.value.DoubleValue
8.169

@<SCITEGIC>MOL_PROPERTY
Coulomb
SciTegic.value.DoubleValue
2.735

@<SCITEGIC>MOL_PROPERTY
VdW
SciTegic.value.DoubleValue
0.355

@<SCITEGIC>MOL_PROPERTY
VdW6
SciTegic.value.DoubleValue
-6.245

@<SCITEGIC>MOL_PROPERTY
VdW12
SciTegic.value.DoubleValue
6.600

@<SCITEGIC>MOL_PROPERTY
Bond
SciTegic.value.DoubleValue
0.149

@<SCITEGIC>MOL_PROPERTY
Angle
SciTegic.value.DoubleValue
3.168

@<SCITEGIC>MOL_PROPERTY
Pdih
SciTegic.value.DoubleValue
4.840

@<SCITEGIC>MOL_PROPERTY
Idih
SciTegic.value.DoubleValue
0.011

@<SCITEGIC>MOL_PROPERTY
Tether
SciTegic.value.DoubleValue
0.000

@<TRIPOS>MOLECULE
guest-s18_confgen4.mol2 : confsearch ligand conformer 451
          16          15           1
SMALL
USER_CHARGES
 
@<TRIPOS>ATOM
       1    C1      19.909971   17.439677   19.742575 C.2        1 MOL1         0.6075
       2    O1      18.844434   17.863316   19.338921 O.co2      1 MOL1        -0.6830
       3    O2      20.528054   16.558197   19.180188 O.co2      1 MOL1        -0.6830
       4    C2      20.527092   18.022798   21.014985 C.3        1 MOL1        -0.2050
       5    H1      21.521426   18.402696   20.752045 H          1 MOL1         0.0710
       6    H2      20.675889   17.193305   21.716386 H          1 MOL1         0.0710
       7    C3      19.701828   19.145100   21.698890 C.3        1 MOL1        -0.1947
       8    H3      19.551369   19.970867   20.989708 H          1 MOL1         0.0712
       9    H4      18.704973   18.760224   21.955054 H          1 MOL1         0.0712
      10    C4      20.396757   19.673797   22.971216 C.3        1 MOL1        -0.1921
      11    H5      21.393146   20.060626   22.716125 H          1 MOL1         0.0712
      12    H6      20.546250   18.849264   23.682058 H          1 MOL1         0.0712
      13    C5      19.572440   20.788040   23.645831 C.3        1 MOL1        -0.2936
      14    H7      19.434078   21.639899   22.967111 H          1 MOL1         0.0724
      15    H8      20.080290   21.152570   24.548243 H          1 MOL1         0.0724
      16    H9      18.580932   20.419605   23.940174 H          1 MOL1         0.0724
@<TRIPOS>BOND
    1     1     2    1
    2     1     3    2
    3     1     4    1
    4     4     5    1
    5     4     6    1
    6     4     7    1
    7     7     8    1
    8     7     9    1
    9     7    10    1
   10    10    11    1
   11    10    12    1
   12    10    13    1
   13    13    14    1
   14    13    15    1
   15    13    16    1
@<TRIPOS>SUBSTRUCTURE
       1 MOL1            1 RESIDUE      1      MOL     
@<SCITEGIC>MOL_PROPERTY
VConf Rank
SciTegic.value.IntegerValue
451

@<SCITEGIC>MOL_PROPERTY
Conf_Id
SciTegic.value.IntegerValue
0

@<SCITEGIC>MOL_PROPERTY
Delta U+W
SciTegic.value.DoubleValue
0.000

@<SCITEGIC>MOL_PROPERTY
U+W
SciTegic.value.DoubleValue
-56.904

@<SCITEGIC>MOL_PROPERTY
Grad RMS
SciTegic.value.DoubleValue
0.000000

@<SCITEGIC>MOL_PROPERTY
U
SciTegic.value.DoubleValue
7.329

@<SCITEGIC>MOL_PROPERTY
W
SciTegic.value.DoubleValue
-64.233

@<SCITEGIC>MOL_PROPERTY
W(PB)
SciTegic.value.DoubleValue
-66.148

@<SCITEGIC>MOL_PROPERTY
W(SA)
SciTegic.value.DoubleValue
1.915

@<SCITEGIC>MOL_PROPERTY
Valence
SciTegic.value.DoubleValue
6.755

@<SCITEGIC>MOL_PROPERTY
Coulomb
SciTegic.value.DoubleValue
-0.421

@<SCITEGIC>MOL_PROPERTY
VdW
SciTegic.value.DoubleValue
0.995

@<SCITEGIC>MOL_PROPERTY
VdW6
SciTegic.value.DoubleValue
-4.495

@<SCITEGIC>MOL_PROPERTY
VdW12
SciTegic.value.DoubleValue
5.490

@<SCITEGIC>MOL_PROPERTY
Bond
SciTegic.value.DoubleValue
0.106

@<SCITEGIC>MOL_PROPERTY
Angle
SciTegic.value.DoubleValue
2.715

@<SCITEGIC>MOL_PROPERTY
Pdih
SciTegic.value.DoubleValue
3.934

@<SCITEGIC>MOL_PROPERTY
Idih
SciTegic.value.DoubleValue
0.000

@<SCITEGIC>MOL_PROPERTY
Tether
SciTegic.value.DoubleValue
0.000

@<TRIPOS>MOLECULE
guest-s18_confgen4.mol2 : confsearch ligand conformer 452
          16          15           1
SMALL
USER_CHARGES
 
@<TRIPOS>ATOM
       1    C1      18.819351   18.646233   19.542554 C.2        1 MOL1         0.6075
       2    O1      17.834305   19.324158   19.328206 O.co2      1 MOL1        -0.6830
       3    O2      19.558555   18.239760   18.668369 O.co2      1 MOL1        -0.6830
       4    C2      19.156396   18.301968   20.989089 C.3        1 MOL1        -0.2050
       5    H1      19.637480   17.316452   21.001926 H          1 MOL1         0.0710
       6    H2      18.215963   18.210598   21.545945 H          1 MOL1         0.0710
       7    C3      20.074412   19.352880   21.660575 C.3        1 MOL1        -0.1947
       8    H3      21.006137   19.441835   21.084793 H          1 MOL1         0.0712
       9    H4      19.584587   20.336045   21.628778 H          1 MOL1         0.0712
      10    C4      20.399740   18.980889   23.122200 C.3        1 MOL1        -0.1921
      11    H5      20.890205   17.998062   23.154359 H          1 MOL1         0.0712
      12    H6      19.468279   18.892464   23.698481 H          1 MOL1         0.0712
      13    C5      21.313592   20.031092   23.784051 C.3        1 MOL1        -0.2936
      14    H7      20.834089   21.018742   23.793771 H          1 MOL1         0.0724
      15    H8      22.266508   20.117751   23.245615 H          1 MOL1         0.0724
      16    H9      21.535145   19.751662   24.822311 H          1 MOL1         0.0724
@<TRIPOS>BOND
    1     1     2    1
    2     1     3    2
    3     1     4    1
    4     4     5    1
    5     4     6    1
    6     4     7    1
    7     7     8    1
    8     7     9    1
    9     7    10    1
   10    10    11    1
   11    10    12    1
   12    10    13    1
   13    13    14    1
   14    13    15    1
   15    13    16    1
@<TRIPOS>SUBSTRUCTURE
       1 MOL1            1 RESIDUE      1      MOL     
@<SCITEGIC>MOL_PROPERTY
VConf Rank
SciTegic.value.IntegerValue
452

@<SCITEGIC>MOL_PROPERTY
Conf_Id
SciTegic.value.IntegerValue
22

@<SCITEGIC>MOL_PROPERTY
Delta U+W
SciTegic.value.DoubleValue
-1.185

@<SCITEGIC>MOL_PROPERTY
U+W
SciTegic.value.DoubleValue
-58.089

@<SCITEGIC>MOL_PROPERTY
Grad RMS
SciTegic.value.DoubleValue
0.000000

@<SCITEGIC>MOL_PROPERTY
U
SciTegic.value.DoubleValue
6.298

@<SCITEGIC>MOL_PROPERTY
W
SciTegic.value.DoubleValue
-64.387

@<SCITEGIC>MOL_PROPERTY
W(PB)
SciTegic.value.DoubleValue
-66.329

@<SCITEGIC>MOL_PROPERTY
W(SA)
SciTegic.value.DoubleValue
1.942

@<SCITEGIC>MOL_PROPERTY
Valence
SciTegic.value.DoubleValue
6.246

@<SCITEGIC>MOL_PROPERTY
Coulomb
SciTegic.value.DoubleValue
-0.408

@<SCITEGIC>MOL_PROPERTY
VdW
SciTegic.value.DoubleValue
0.460

@<SCITEGIC>MOL_PROPERTY
VdW6
SciTegic.value.DoubleValue
-4.207

@<SCITEGIC>MOL_PROPERTY
VdW12
SciTegic.value.DoubleValue
4.667

@<SCITEGIC>MOL_PROPERTY
Bond
SciTegic.value.DoubleValue
0.072

@<SCITEGIC>MOL_PROPERTY
Angle
SciTegic.value.DoubleValue
2.246

@<SCITEGIC>MOL_PROPERTY
Pdih
SciTegic.value.DoubleValue
3.928

@<SCITEGIC>MOL_PROPERTY
Idih
SciTegic.value.DoubleValue
0.001

@<SCITEGIC>MOL_PROPERTY
Tether
SciTegic.value.DoubleValue
0.000

@<TRIPOS>MOLECULE
guest-s18_confgen4.mol2 : confsearch ligand conformer 453
          16          15           1
SMALL
USER_CHARGES
 
@<TRIPOS>ATOM
       1    C1      19.043986   19.532033   19.600854 C.2        1 MOL1         0.6075
       2    O1      17.853799   19.549903   19.357687 O.co2      1 MOL1        -0.6830
       3    O2      19.897699   19.323790   18.761946 O.co2      1 MOL1        -0.6830
       4    C2      19.488731   19.763626   21.040694 C.3        1 MOL1        -0.2050
       5    H1      18.775089   20.450584   21.511193 H          1 MOL1         0.0710
       6    H2      20.459376   20.271773   21.013250 H          1 MOL1         0.0710
       7    C3      19.584410   18.449762   21.858985 C.3        1 MOL1        -0.1947
       8    H3      18.622433   17.922637   21.794431 H          1 MOL1         0.0712
       9    H4      20.332892   17.787357   21.402584 H          1 MOL1         0.0712
      10    C4      19.927415   18.676624   23.349384 C.3        1 MOL1        -0.1921
      11    H5      19.867743   17.714111   23.875994 H          1 MOL1         0.0712
      12    H6      19.172503   19.329534   23.808945 H          1 MOL1         0.0712
      13    C5      21.333350   19.276104   23.565963 C.3        1 MOL1        -0.2936
      14    H7      21.404728   20.290162   23.153201 H          1 MOL1         0.0724
      15    H8      22.103016   18.654792   23.089691 H          1 MOL1         0.0724
      16    H9      21.563546   19.336780   24.637567 H          1 MOL1         0.0724
@<TRIPOS>BOND
    1     1     2    1
    2     1     3    2
    3     1     4    1
    4     4     5    1
    5     4     6    1
    6     4     7    1
    7     7     8    1
    8     7     9    1
    9     7    10    1
   10    10    11    1
   11    10    12    1
   12    10    13    1
   13    13    14    1
   14    13    15    1
   15    13    16    1
@<TRIPOS>SUBSTRUCTURE
       1 MOL1            1 RESIDUE      1      MOL     
@<SCITEGIC>MOL_PROPERTY
VConf Rank
SciTegic.value.IntegerValue
453

@<SCITEGIC>MOL_PROPERTY
Conf_Id
SciTegic.value.IntegerValue
36

@<SCITEGIC>MOL_PROPERTY
Delta U+W
SciTegic.value.DoubleValue
-0.427

@<SCITEGIC>MOL_PROPERTY
U+W
SciTegic.value.DoubleValue
-57.331

@<SCITEGIC>MOL_PROPERTY
Grad RMS
SciTegic.value.DoubleValue
0.000000

@<SCITEGIC>MOL_PROPERTY
U
SciTegic.value.DoubleValue
7.263

@<SCITEGIC>MOL_PROPERTY
W
SciTegic.value.DoubleValue
-64.594

@<SCITEGIC>MOL_PROPERTY
W(PB)
SciTegic.value.DoubleValue
-66.513

@<SCITEGIC>MOL_PROPERTY
W(SA)
SciTegic.value.DoubleValue
1.920

@<SCITEGIC>MOL_PROPERTY
Valence
SciTegic.value.DoubleValue
6.734

@<SCITEGIC>MOL_PROPERTY
Coulomb
SciTegic.value.DoubleValue
-0.068

@<SCITEGIC>MOL_PROPERTY
VdW
SciTegic.value.DoubleValue
0.598

@<SCITEGIC>MOL_PROPERTY
VdW6
SciTegic.value.DoubleValue
-4.819

@<SCITEGIC>MOL_PROPERTY
VdW12
SciTegic.value.DoubleValue
5.417

@<SCITEGIC>MOL_PROPERTY
Bond
SciTegic.value.DoubleValue
0.107

@<SCITEGIC>MOL_PROPERTY
Angle
SciTegic.value.DoubleValue
2.469

@<SCITEGIC>MOL_PROPERTY
Pdih
SciTegic.value.DoubleValue
4.157

@<SCITEGIC>MOL_PROPERTY
Idih
SciTegic.value.DoubleValue
0.001

@<SCITEGIC>MOL_PROPERTY
Tether
SciTegic.value.DoubleValue
0.000

@<TRIPOS>MOLECULE
guest-s18_confgen4.mol2 : confsearch ligand conformer 454
          16          15           1
SMALL
USER_CHARGES
 
@<TRIPOS>ATOM
       1    C1      21.377609   21.305155   22.133944 C.2        1 MOL1         0.6075
       2    O1      20.969313   22.038691   23.012110 O.co2      1 MOL1        -0.6830
       3    O2      22.088580   21.679608   21.222736 O.co2      1 MOL1        -0.6830
       4    C2      20.958932   19.839453   22.165567 C.3        1 MOL1        -0.2050
       5    H1      20.858737   19.542874   23.215862 H          1 MOL1         0.0710
       6    H2      21.772816   19.243487   21.735468 H          1 MOL1         0.0710
       7    C3      19.638695   19.574685   21.396237 C.3        1 MOL1        -0.1947
       8    H3      18.822423   20.143719   21.862295 H          1 MOL1         0.0712
       9    H4      19.742470   19.961630   20.373040 H          1 MOL1         0.0712
      10    C4      19.257554   18.078002   21.324960 C.3        1 MOL1        -0.1921
      11    H5      20.068802   17.510534   20.848266 H          1 MOL1         0.0712
      12    H6      18.378163   17.968042   20.675431 H          1 MOL1         0.0712
      13    C5      18.936713   17.465240   22.705001 C.3        1 MOL1        -0.2936
      14    H7      19.822293   17.449931   23.352530 H          1 MOL1         0.0724
      15    H8      18.588885   16.430059   22.593540 H          1 MOL1         0.0724
      16    H9      18.147305   18.034030   23.213493 H          1 MOL1         0.0724
@<TRIPOS>BOND
    1     1     2    1
    2     1     3    2
    3     1     4    1
    4     4     5    1
    5     4     6    1
    6     4     7    1
    7     7     8    1
    8     7     9    1
    9     7    10    1
   10    10    11    1
   11    10    12    1
   12    10    13    1
   13    13    14    1
   14    13    15    1
   15    13    16    1
@<TRIPOS>SUBSTRUCTURE
       1 MOL1            1 RESIDUE      1      MOL     
@<SCITEGIC>MOL_PROPERTY
VConf Rank
SciTegic.value.IntegerValue
454

@<SCITEGIC>MOL_PROPERTY
Conf_Id
SciTegic.value.IntegerValue
17

@<SCITEGIC>MOL_PROPERTY
Delta U+W
SciTegic.value.DoubleValue
-0.432

@<SCITEGIC>MOL_PROPERTY
U+W
SciTegic.value.DoubleValue
-57.336

@<SCITEGIC>MOL_PROPERTY
Grad RMS
SciTegic.value.DoubleValue
0.000000

@<SCITEGIC>MOL_PROPERTY
U
SciTegic.value.DoubleValue
7.263

@<SCITEGIC>MOL_PROPERTY
W
SciTegic.value.DoubleValue
-64.599

@<SCITEGIC>MOL_PROPERTY
W(PB)
SciTegic.value.DoubleValue
-66.503

@<SCITEGIC>MOL_PROPERTY
W(SA)
SciTegic.value.DoubleValue
1.904

@<SCITEGIC>MOL_PROPERTY
Valence
SciTegic.value.DoubleValue
6.734

@<SCITEGIC>MOL_PROPERTY
Coulomb
SciTegic.value.DoubleValue
-0.068

@<SCITEGIC>MOL_PROPERTY
VdW
SciTegic.value.DoubleValue
0.598

@<SCITEGIC>MOL_PROPERTY
VdW6
SciTegic.value.DoubleValue
-4.819

@<SCITEGIC>MOL_PROPERTY
VdW12
SciTegic.value.DoubleValue
5.417

@<SCITEGIC>MOL_PROPERTY
Bond
SciTegic.value.DoubleValue
0.107

@<SCITEGIC>MOL_PROPERTY
Angle
SciTegic.value.DoubleValue
2.469

@<SCITEGIC>MOL_PROPERTY
Pdih
SciTegic.value.DoubleValue
4.157

@<SCITEGIC>MOL_PROPERTY
Idih
SciTegic.value.DoubleValue
0.001

@<SCITEGIC>MOL_PROPERTY
Tether
SciTegic.value.DoubleValue
0.000

@<TRIPOS>MOLECULE
guest-s18_confgen4.mol2 : confsearch ligand conformer 455
          16          15           1
SMALL
USER_CHARGES
 
@<TRIPOS>ATOM
       1    C1      20.984807   17.122123   23.002274 C.2        1 MOL1         0.6075
       2    O1      22.174289   17.162266   23.246943 O.co2      1 MOL1        -0.6830
       3    O2      20.150628   16.723230   23.790495 O.co2      1 MOL1        -0.6830
       4    C2      20.518304   17.575054   21.621433 C.3        1 MOL1        -0.2050
       5    H1      19.518854   17.162826   21.436362 H          1 MOL1         0.0710
       6    H2      21.189967   17.121430   20.882970 H          1 MOL1         0.0710
       7    C3      20.505505   19.114200   21.431956 C.3        1 MOL1        -0.1947
       8    H3      21.505170   19.516075   21.648267 H          1 MOL1         0.0712
       9    H4      20.294421   19.341846   20.378305 H          1 MOL1         0.0712
      10    C4      19.456575   19.813587   22.323464 C.3        1 MOL1        -0.1921
      11    H5      19.669954   19.609509   23.382022 H          1 MOL1         0.0712
      12    H6      18.459337   19.402009   22.114910 H          1 MOL1         0.0712
      13    C5      19.441480   21.337431   22.091045 C.3        1 MOL1        -0.2936
      14    H7      20.419566   21.779363   22.322330 H          1 MOL1         0.0724
      15    H8      18.691806   21.818873   22.732386 H          1 MOL1         0.0724
      16    H9      19.196435   21.573459   21.047177 H          1 MOL1         0.0724
@<TRIPOS>BOND
    1     1     2    1
    2     1     3    2
    3     1     4    1
    4     4     5    1
    5     4     6    1
    6     4     7    1
    7     7     8    1
    8     7     9    1
    9     7    10    1
   10    10    11    1
   11    10    12    1
   12    10    13    1
   13    13    14    1
   14    13    15    1
   15    13    16    1
@<TRIPOS>SUBSTRUCTURE
       1 MOL1            1 RESIDUE      1      MOL     
@<SCITEGIC>MOL_PROPERTY
VConf Rank
SciTegic.value.IntegerValue
455

@<SCITEGIC>MOL_PROPERTY
Conf_Id
SciTegic.value.IntegerValue
19

@<SCITEGIC>MOL_PROPERTY
Delta U+W
SciTegic.value.DoubleValue
0.048

@<SCITEGIC>MOL_PROPERTY
U+W
SciTegic.value.DoubleValue
-56.856

@<SCITEGIC>MOL_PROPERTY
Grad RMS
SciTegic.value.DoubleValue
0.000000

@<SCITEGIC>MOL_PROPERTY
U
SciTegic.value.DoubleValue
8.276

@<SCITEGIC>MOL_PROPERTY
W
SciTegic.value.DoubleValue
-65.132

@<SCITEGIC>MOL_PROPERTY
W(PB)
SciTegic.value.DoubleValue
-67.031

@<SCITEGIC>MOL_PROPERTY
W(SA)
SciTegic.value.DoubleValue
1.899

@<SCITEGIC>MOL_PROPERTY
Valence
SciTegic.value.DoubleValue
6.513

@<SCITEGIC>MOL_PROPERTY
Coulomb
SciTegic.value.DoubleValue
1.428

@<SCITEGIC>MOL_PROPERTY
VdW
SciTegic.value.DoubleValue
0.335

@<SCITEGIC>MOL_PROPERTY
VdW6
SciTegic.value.DoubleValue
-5.021

@<SCITEGIC>MOL_PROPERTY
VdW12
SciTegic.value.DoubleValue
5.356

@<SCITEGIC>MOL_PROPERTY
Bond
SciTegic.value.DoubleValue
0.092

@<SCITEGIC>MOL_PROPERTY
Angle
SciTegic.value.DoubleValue
2.417

@<SCITEGIC>MOL_PROPERTY
Pdih
SciTegic.value.DoubleValue
4.003

@<SCITEGIC>MOL_PROPERTY
Idih
SciTegic.value.DoubleValue
0.001

@<SCITEGIC>MOL_PROPERTY
Tether
SciTegic.value.DoubleValue
0.000

@<TRIPOS>MOLECULE
guest-s18_confgen4.mol2 : confsearch ligand conformer 456
          16          15           1
SMALL
USER_CHARGES
 
@<TRIPOS>ATOM
       1    C1      19.996746   21.090061   20.723209 C.2        1 MOL1         0.6075
       2    O1      20.795875   21.914309   21.121142 O.co2      1 MOL1        -0.6830
       3    O2      18.857122   21.361333   20.400825 O.co2      1 MOL1        -0.6830
       4    C2      20.458611   19.640554   20.600299 C.3        1 MOL1        -0.2050
       5    H1      21.441777   19.649423   20.114973 H          1 MOL1         0.0710
       6    H2      19.776076   19.111249   19.924232 H          1 MOL1         0.0710
       7    C3      20.557376   18.891596   21.954682 C.3        1 MOL1        -0.1947
       8    H3      21.025590   17.912193   21.787038 H          1 MOL1         0.0712
       9    H4      21.221275   19.447981   22.630920 H          1 MOL1         0.0712
      10    C4      19.180324   18.689304   22.623260 C.3        1 MOL1        -0.1921
      11    H5      18.513705   18.143718   21.941107 H          1 MOL1         0.0712
      12    H6      18.710869   19.664351   22.814624 H          1 MOL1         0.0712
      13    C5      19.303335   17.913631   23.949740 C.3        1 MOL1        -0.2936
      14    H7      19.738524   16.919245   23.784747 H          1 MOL1         0.0724
      15    H8      18.316705   17.779377   24.411967 H          1 MOL1         0.0724
      16    H9      19.940889   18.453352   24.662254 H          1 MOL1         0.0724
@<TRIPOS>BOND
    1     1     2    1
    2     1     3    2
    3     1     4    1
    4     4     5    1
    5     4     6    1
    6     4     7    1
    7     7     8    1
    8     7     9    1
    9     7    10    1
   10    10    11    1
   11    10    12    1
   12    10    13    1
   13    13    14    1
   14    13    15    1
   15    13    16    1
@<TRIPOS>SUBSTRUCTURE
       1 MOL1            1 RESIDUE      1      MOL     
@<SCITEGIC>MOL_PROPERTY
VConf Rank
SciTegic.value.IntegerValue
456

@<SCITEGIC>MOL_PROPERTY
Conf_Id
SciTegic.value.IntegerValue
20

@<SCITEGIC>MOL_PROPERTY
Delta U+W
SciTegic.value.DoubleValue
-0.010

@<SCITEGIC>MOL_PROPERTY
U+W
SciTegic.value.DoubleValue
-56.914

@<SCITEGIC>MOL_PROPERTY
Grad RMS
SciTegic.value.DoubleValue
0.000000

@<SCITEGIC>MOL_PROPERTY
U
SciTegic.value.DoubleValue
8.277

@<SCITEGIC>MOL_PROPERTY
W
SciTegic.value.DoubleValue
-65.191

@<SCITEGIC>MOL_PROPERTY
W(PB)
SciTegic.value.DoubleValue
-67.081

@<SCITEGIC>MOL_PROPERTY
W(SA)
SciTegic.value.DoubleValue
1.890

@<SCITEGIC>MOL_PROPERTY
Valence
SciTegic.value.DoubleValue
6.513

@<SCITEGIC>MOL_PROPERTY
Coulomb
SciTegic.value.DoubleValue
1.429

@<SCITEGIC>MOL_PROPERTY
VdW
SciTegic.value.DoubleValue
0.335

@<SCITEGIC>MOL_PROPERTY
VdW6
SciTegic.value.DoubleValue
-5.021

@<SCITEGIC>MOL_PROPERTY
VdW12
SciTegic.value.DoubleValue
5.356

@<SCITEGIC>MOL_PROPERTY
Bond
SciTegic.value.DoubleValue
0.092

@<SCITEGIC>MOL_PROPERTY
Angle
SciTegic.value.DoubleValue
2.417

@<SCITEGIC>MOL_PROPERTY
Pdih
SciTegic.value.DoubleValue
4.002

@<SCITEGIC>MOL_PROPERTY
Idih
SciTegic.value.DoubleValue
0.001

@<SCITEGIC>MOL_PROPERTY
Tether
SciTegic.value.DoubleValue
0.000

@<TRIPOS>MOLECULE
guest-s18_confgen4.mol2 : confsearch ligand conformer 457
          16          15           1
SMALL
USER_CHARGES
 
@<TRIPOS>ATOM
       1    C1      19.882097   18.708520   24.273230 C.2        1 MOL1         0.6075
       2    O1      18.982455   18.113620   24.833162 O.co2      1 MOL1        -0.6830
       3    O2      20.392873   19.719352   24.713262 O.co2      1 MOL1        -0.6830
       4    C2      20.419938   18.134250   22.965298 C.3        1 MOL1        -0.2050
       5    H1      20.635297   17.073558   23.139746 H          1 MOL1         0.0710
       6    H2      21.379931   18.612410   22.739415 H          1 MOL1         0.0710
       7    C3      19.445212   18.268416   21.763388 C.3        1 MOL1        -0.1947
       8    H3      19.877553   17.760646   20.890678 H          1 MOL1         0.0712
       9    H4      18.515544   17.733380   22.001734 H          1 MOL1         0.0712
      10    C4      19.098598   19.727618   21.383153 C.3        1 MOL1        -0.1921
      11    H5      18.632789   20.236879   22.238298 H          1 MOL1         0.0712
      12    H6      18.345109   19.714003   20.583656 H          1 MOL1         0.0712
      13    C5      20.320908   20.537908   20.901665 C.3        1 MOL1        -0.2936
      14    H7      21.047231   20.681770   21.711756 H          1 MOL1         0.0724
      15    H8      20.009786   21.531833   20.555001 H          1 MOL1         0.0724
      16    H9      20.826278   20.031584   20.069017 H          1 MOL1         0.0724
@<TRIPOS>BOND
    1     1     2    1
    2     1     3    2
    3     1     4    1
    4     4     5    1
    5     4     6    1
    6     4     7    1
    7     7     8    1
    8     7     9    1
    9     7    10    1
   10    10    11    1
   11    10    12    1
   12    10    13    1
   13    13    14    1
   14    13    15    1
   15    13    16    1
@<TRIPOS>SUBSTRUCTURE
       1 MOL1            1 RESIDUE      1      MOL     
@<SCITEGIC>MOL_PROPERTY
VConf Rank
SciTegic.value.IntegerValue
457

@<SCITEGIC>MOL_PROPERTY
Conf_Id
SciTegic.value.IntegerValue
37

@<SCITEGIC>MOL_PROPERTY
Delta U+W
SciTegic.value.DoubleValue
1.063

@<SCITEGIC>MOL_PROPERTY
U+W
SciTegic.value.DoubleValue
-55.841

@<SCITEGIC>MOL_PROPERTY
Grad RMS
SciTegic.value.DoubleValue
0.000000

@<SCITEGIC>MOL_PROPERTY
U
SciTegic.value.DoubleValue
9.719

@<SCITEGIC>MOL_PROPERTY
W
SciTegic.value.DoubleValue
-65.560

@<SCITEGIC>MOL_PROPERTY
W(PB)
SciTegic.value.DoubleValue
-67.414

@<SCITEGIC>MOL_PROPERTY
W(SA)
SciTegic.value.DoubleValue
1.854

@<SCITEGIC>MOL_PROPERTY
Valence
SciTegic.value.DoubleValue
7.002

@<SCITEGIC>MOL_PROPERTY
Coulomb
SciTegic.value.DoubleValue
2.402

@<SCITEGIC>MOL_PROPERTY
VdW
SciTegic.value.DoubleValue
0.314

@<SCITEGIC>MOL_PROPERTY
VdW6
SciTegic.value.DoubleValue
-5.861

@<SCITEGIC>MOL_PROPERTY
VdW12
SciTegic.value.DoubleValue
6.175

@<SCITEGIC>MOL_PROPERTY
Bond
SciTegic.value.DoubleValue
0.134

@<SCITEGIC>MOL_PROPERTY
Angle
SciTegic.value.DoubleValue
2.733

@<SCITEGIC>MOL_PROPERTY
Pdih
SciTegic.value.DoubleValue
4.133

@<SCITEGIC>MOL_PROPERTY
Idih
SciTegic.value.DoubleValue
0.002

@<SCITEGIC>MOL_PROPERTY
Tether
SciTegic.value.DoubleValue
0.000

@<TRIPOS>MOLECULE
guest-s18_confgen4.mol2 : confsearch ligand conformer 458
          16          15           1
SMALL
USER_CHARGES
 
@<TRIPOS>ATOM
       1    C1      19.957866   20.652974   23.684423 C.2        1 MOL1         0.6075
       2    O1      20.909393   21.264117   24.129268 O.co2      1 MOL1        -0.6830
       3    O2      18.920137   21.184664   23.342773 O.co2      1 MOL1        -0.6830
       4    C2      20.061990   19.133554   23.583099 C.3        1 MOL1        -0.2050
       5    H1      19.057720   18.721236   23.432487 H          1 MOL1         0.0710
       6    H2      20.405589   18.765204   24.556823 H          1 MOL1         0.0710
       7    C3      21.030330   18.634889   22.475702 C.3        1 MOL1        -0.1947
       8    H3      22.036867   19.021729   22.686872 H          1 MOL1         0.0712
       9    H4      21.104006   17.540258   22.527913 H          1 MOL1         0.0712
      10    C4      20.626295   19.049900   21.040949 C.3        1 MOL1        -0.1921
      11    H5      21.411545   18.723405   20.345311 H          1 MOL1         0.0712
      12    H6      20.583026   20.145406   20.966173 H          1 MOL1         0.0712
      13    C5      19.279017   18.446980   20.589540 C.3        1 MOL1        -0.2936
      14    H7      19.283636   17.353688   20.688321 H          1 MOL1         0.0724
      15    H8      19.082802   18.691201   19.537534 H          1 MOL1         0.0724
      16    H9      18.446080   18.844944   21.183111 H          1 MOL1         0.0724
@<TRIPOS>BOND
    1     1     2    1
    2     1     3    2
    3     1     4    1
    4     4     5    1
    5     4     6    1
    6     4     7    1
    7     7     8    1
    8     7     9    1
    9     7    10    1
   10    10    11    1
   11    10    12    1
   12    10    13    1
   13    13    14    1
   14    13    15    1
   15    13    16    1
@<TRIPOS>SUBSTRUCTURE
       1 MOL1            1 RESIDUE      1      MOL     
@<SCITEGIC>MOL_PROPERTY
VConf Rank
SciTegic.value.IntegerValue
458

@<SCITEGIC>MOL_PROPERTY
Conf_Id
SciTegic.value.IntegerValue
39

@<SCITEGIC>MOL_PROPERTY
Delta U+W
SciTegic.value.DoubleValue
1.129

@<SCITEGIC>MOL_PROPERTY
U+W
SciTegic.value.DoubleValue
-55.775

@<SCITEGIC>MOL_PROPERTY
Grad RMS
SciTegic.value.DoubleValue
0.000000

@<SCITEGIC>MOL_PROPERTY
U
SciTegic.value.DoubleValue
9.718

@<SCITEGIC>MOL_PROPERTY
W
SciTegic.value.DoubleValue
-65.493

@<SCITEGIC>MOL_PROPERTY
W(PB)
SciTegic.value.DoubleValue
-67.361

@<SCITEGIC>MOL_PROPERTY
W(SA)
SciTegic.value.DoubleValue
1.869

@<SCITEGIC>MOL_PROPERTY
Valence
SciTegic.value.DoubleValue
7.002

@<SCITEGIC>MOL_PROPERTY
Coulomb
SciTegic.value.DoubleValue
2.402

@<SCITEGIC>MOL_PROPERTY
VdW
SciTegic.value.DoubleValue
0.314

@<SCITEGIC>MOL_PROPERTY
VdW6
SciTegic.value.DoubleValue
-5.861

@<SCITEGIC>MOL_PROPERTY
VdW12
SciTegic.value.DoubleValue
6.175

@<SCITEGIC>MOL_PROPERTY
Bond
SciTegic.value.DoubleValue
0.134

@<SCITEGIC>MOL_PROPERTY
Angle
SciTegic.value.DoubleValue
2.734

@<SCITEGIC>MOL_PROPERTY
Pdih
SciTegic.value.DoubleValue
4.133

@<SCITEGIC>MOL_PROPERTY
Idih
SciTegic.value.DoubleValue
0.002

@<SCITEGIC>MOL_PROPERTY
Tether
SciTegic.value.DoubleValue
0.000

@<TRIPOS>MOLECULE
guest-s18_confgen4.mol2 : confsearch ligand conformer 459
          16          15           1
SMALL
USER_CHARGES
 
@<TRIPOS>ATOM
       1    C1      21.649329   18.768575   21.363789 C.2        1 MOL1         0.6075
       2    O1      21.625998   19.161893   20.214190 O.co2      1 MOL1        -0.6830
       3    O2      22.064548   17.673104   21.687353 O.co2      1 MOL1        -0.6830
       4    C2      21.218598   19.735303   22.465408 C.3        1 MOL1        -0.2050
       5    H1      20.951055   20.697256   22.011484 H          1 MOL1         0.0710
       6    H2      22.106695   19.916227   23.082093 H          1 MOL1         0.0710
       7    C3      20.064835   19.231658   23.377634 C.3        1 MOL1        -0.1947
       8    H3      20.243583   18.186100   23.664687 H          1 MOL1         0.0712
       9    H4      20.092995   19.810675   24.310585 H          1 MOL1         0.0712
      10    C4      18.648490   19.381639   22.771799 C.3        1 MOL1        -0.1921
      11    H5      18.474498   20.427752   22.484388 H          1 MOL1         0.0712
      12    H6      17.910626   19.149415   23.552133 H          1 MOL1         0.0712
      13    C5      18.386694   18.460612   21.562064 C.3        1 MOL1        -0.2936
      14    H7      18.986945   18.760471   20.694434 H          1 MOL1         0.0724
      15    H8      17.331100   18.507788   21.264971 H          1 MOL1         0.0724
      16    H9      18.625301   17.416352   21.802727 H          1 MOL1         0.0724
@<TRIPOS>BOND
    1     1     2    1
    2     1     3    2
    3     1     4    1
    4     4     5    1
    5     4     6    1
    6     4     7    1
    7     7     8    1
    8     7     9    1
    9     7    10    1
   10    10    11    1
   11    10    12    1
   12    10    13    1
   13    13    14    1
   14    13    15    1
   15    13    16    1
@<TRIPOS>SUBSTRUCTURE
       1 MOL1            1 RESIDUE      1      MOL     
@<SCITEGIC>MOL_PROPERTY
VConf Rank
SciTegic.value.IntegerValue
459

@<SCITEGIC>MOL_PROPERTY
Conf_Id
SciTegic.value.IntegerValue
47

@<SCITEGIC>MOL_PROPERTY
Delta U+W
SciTegic.value.DoubleValue
2.301

@<SCITEGIC>MOL_PROPERTY
U+W
SciTegic.value.DoubleValue
-54.603

@<SCITEGIC>MOL_PROPERTY
Grad RMS
SciTegic.value.DoubleValue
0.000000

@<SCITEGIC>MOL_PROPERTY
U
SciTegic.value.DoubleValue
11.258

@<SCITEGIC>MOL_PROPERTY
W
SciTegic.value.DoubleValue
-65.861

@<SCITEGIC>MOL_PROPERTY
W(PB)
SciTegic.value.DoubleValue
-67.702

@<SCITEGIC>MOL_PROPERTY
W(SA)
SciTegic.value.DoubleValue
1.841

@<SCITEGIC>MOL_PROPERTY
Valence
SciTegic.value.DoubleValue
8.169

@<SCITEGIC>MOL_PROPERTY
Coulomb
SciTegic.value.DoubleValue
2.735

@<SCITEGIC>MOL_PROPERTY
VdW
SciTegic.value.DoubleValue
0.355

@<SCITEGIC>MOL_PROPERTY
VdW6
SciTegic.value.DoubleValue
-6.245

@<SCITEGIC>MOL_PROPERTY
VdW12
SciTegic.value.DoubleValue
6.600

@<SCITEGIC>MOL_PROPERTY
Bond
SciTegic.value.DoubleValue
0.149

@<SCITEGIC>MOL_PROPERTY
Angle
SciTegic.value.DoubleValue
3.168

@<SCITEGIC>MOL_PROPERTY
Pdih
SciTegic.value.DoubleValue
4.840

@<SCITEGIC>MOL_PROPERTY
Idih
SciTegic.value.DoubleValue
0.011

@<SCITEGIC>MOL_PROPERTY
Tether
SciTegic.value.DoubleValue
0.000

@<TRIPOS>MOLECULE
guest-s18_confgen4.mol2 : confsearch ligand conformer 460
          16          15           1
SMALL
USER_CHARGES
 
@<TRIPOS>ATOM
       1    C1      19.604834   17.486229   23.388651 C.2        1 MOL1         0.6075
       2    O1      19.806664   17.778697   24.550928 O.co2      1 MOL1        -0.6830
       3    O2      20.075091   16.500353   22.855993 O.co2      1 MOL1        -0.6830
       4    C2      18.639328   18.351211   22.580399 C.3        1 MOL1        -0.2050
       5    H1      17.668171   18.283494   23.084400 H          1 MOL1         0.0710
       6    H2      18.508224   17.906345   21.586475 H          1 MOL1         0.0710
       7    C3      19.037541   19.848450   22.451219 C.3        1 MOL1        -0.1947
       8    H3      18.135555   20.417660   22.188777 H          1 MOL1         0.0712
       9    H4      19.365877   20.234116   23.426410 H          1 MOL1         0.0712
      10    C4      20.110529   20.142090   21.375099 C.3        1 MOL1        -0.1921
      11    H5      20.196799   21.231282   21.258853 H          1 MOL1         0.0712
      12    H6      19.779357   19.753404   20.402227 H          1 MOL1         0.0712
      13    C5      21.504827   19.574771   21.713283 C.3        1 MOL1        -0.2936
      14    H7      22.249892   19.930813   20.990178 H          1 MOL1         0.0724
      15    H8      21.509261   18.478525   21.678302 H          1 MOL1         0.0724
      16    H9      21.826203   19.889577   22.714753 H          1 MOL1         0.0724
@<TRIPOS>BOND
    1     1     2    1
    2     1     3    2
    3     1     4    1
    4     4     5    1
    5     4     6    1
    6     4     7    1
    7     7     8    1
    8     7     9    1
    9     7    10    1
   10    10    11    1
   11    10    12    1
   12    10    13    1
   13    13    14    1
   14    13    15    1
   15    13    16    1
@<TRIPOS>SUBSTRUCTURE
       1 MOL1            1 RESIDUE      1      MOL     
@<SCITEGIC>MOL_PROPERTY
VConf Rank
SciTegic.value.IntegerValue
460

@<SCITEGIC>MOL_PROPERTY
Conf_Id
SciTegic.value.IntegerValue
45

@<SCITEGIC>MOL_PROPERTY
Delta U+W
SciTegic.value.DoubleValue
2.303

@<SCITEGIC>MOL_PROPERTY
U+W
SciTegic.value.DoubleValue
-54.601

@<SCITEGIC>MOL_PROPERTY
Grad RMS
SciTegic.value.DoubleValue
0.000000

@<SCITEGIC>MOL_PROPERTY
U
SciTegic.value.DoubleValue
11.258

@<SCITEGIC>MOL_PROPERTY
W
SciTegic.value.DoubleValue
-65.860

@<SCITEGIC>MOL_PROPERTY
W(PB)
SciTegic.value.DoubleValue
-67.709

@<SCITEGIC>MOL_PROPERTY
W(SA)
SciTegic.value.DoubleValue
1.849

@<SCITEGIC>MOL_PROPERTY
Valence
SciTegic.value.DoubleValue
8.169

@<SCITEGIC>MOL_PROPERTY
Coulomb
SciTegic.value.DoubleValue
2.735

@<SCITEGIC>MOL_PROPERTY
VdW
SciTegic.value.DoubleValue
0.355

@<SCITEGIC>MOL_PROPERTY
VdW6
SciTegic.value.DoubleValue
-6.245

@<SCITEGIC>MOL_PROPERTY
VdW12
SciTegic.value.DoubleValue
6.600

@<SCITEGIC>MOL_PROPERTY
Bond
SciTegic.value.DoubleValue
0.149

@<SCITEGIC>MOL_PROPERTY
Angle
SciTegic.value.DoubleValue
3.168

@<SCITEGIC>MOL_PROPERTY
Pdih
SciTegic.value.DoubleValue
4.840

@<SCITEGIC>MOL_PROPERTY
Idih
SciTegic.value.DoubleValue
0.011

@<SCITEGIC>MOL_PROPERTY
Tether
SciTegic.value.DoubleValue
0.000

@<TRIPOS>MOLECULE
guest-s18_confgen4.mol2 : confsearch ligand conformer 461
          16          15           1
SMALL
USER_CHARGES
 
@<TRIPOS>ATOM
       1    C1      17.693560   20.625583   22.131045 C.2        1 MOL1         0.6075
       2    O1      17.066220   19.761797   22.712506 O.co2      1 MOL1        -0.6830
       3    O2      17.223651   21.709894   21.850389 O.co2      1 MOL1        -0.6830
       4    C2      19.143857   20.365512   21.720077 C.3        1 MOL1        -0.2050
       5    H1      19.759841   21.146286   22.181722 H          1 MOL1         0.0710
       6    H2      19.206874   20.507242   20.634672 H          1 MOL1         0.0710
       7    C3      19.700508   18.967249   22.098690 C.3        1 MOL1        -0.1947
       8    H3      19.629745   18.828901   23.186496 H          1 MOL1         0.0712
       9    H4      19.076219   18.189206   21.637840 H          1 MOL1         0.0712
      10    C4      21.165729   18.791859   21.647442 C.3        1 MOL1        -0.1921
      11    H5      21.791471   19.568313   22.109032 H          1 MOL1         0.0712
      12    H6      21.237626   18.928235   20.559448 H          1 MOL1         0.0712
      13    C5      21.712846   17.401421   22.026239 C.3        1 MOL1        -0.2936
      14    H7      21.681876   17.249996   23.113244 H          1 MOL1         0.0724
      15    H8      22.754958   17.293298   21.698437 H          1 MOL1         0.0724
      16    H9      21.123949   16.605190   21.552228 H          1 MOL1         0.0724
@<TRIPOS>BOND
    1     1     2    1
    2     1     3    2
    3     1     4    1
    4     4     5    1
    5     4     6    1
    6     4     7    1
    7     7     8    1
    8     7     9    1
    9     7    10    1
   10    10    11    1
   11    10    12    1
   12    10    13    1
   13    13    14    1
   14    13    15    1
   15    13    16    1
@<TRIPOS>SUBSTRUCTURE
       1 MOL1            1 RESIDUE      1      MOL     
@<SCITEGIC>MOL_PROPERTY
VConf Rank
SciTegic.value.IntegerValue
461

@<SCITEGIC>MOL_PROPERTY
Conf_Id
SciTegic.value.IntegerValue
0

@<SCITEGIC>MOL_PROPERTY
Delta U+W
SciTegic.value.DoubleValue
0.000

@<SCITEGIC>MOL_PROPERTY
U+W
SciTegic.value.DoubleValue
-56.904

@<SCITEGIC>MOL_PROPERTY
Grad RMS
SciTegic.value.DoubleValue
0.000000

@<SCITEGIC>MOL_PROPERTY
U
SciTegic.value.DoubleValue
7.329

@<SCITEGIC>MOL_PROPERTY
W
SciTegic.value.DoubleValue
-64.233

@<SCITEGIC>MOL_PROPERTY
W(PB)
SciTegic.value.DoubleValue
-66.148

@<SCITEGIC>MOL_PROPERTY
W(SA)
SciTegic.value.DoubleValue
1.915

@<SCITEGIC>MOL_PROPERTY
Valence
SciTegic.value.DoubleValue
6.755

@<SCITEGIC>MOL_PROPERTY
Coulomb
SciTegic.value.DoubleValue
-0.421

@<SCITEGIC>MOL_PROPERTY
VdW
SciTegic.value.DoubleValue
0.995

@<SCITEGIC>MOL_PROPERTY
VdW6
SciTegic.value.DoubleValue
-4.495

@<SCITEGIC>MOL_PROPERTY
VdW12
SciTegic.value.DoubleValue
5.490

@<SCITEGIC>MOL_PROPERTY
Bond
SciTegic.value.DoubleValue
0.106

@<SCITEGIC>MOL_PROPERTY
Angle
SciTegic.value.DoubleValue
2.715

@<SCITEGIC>MOL_PROPERTY
Pdih
SciTegic.value.DoubleValue
3.934

@<SCITEGIC>MOL_PROPERTY
Idih
SciTegic.value.DoubleValue
0.000

@<SCITEGIC>MOL_PROPERTY
Tether
SciTegic.value.DoubleValue
0.000

@<TRIPOS>MOLECULE
guest-s18_confgen4.mol2 : confsearch ligand conformer 462
          16          15           1
SMALL
USER_CHARGES
 
@<TRIPOS>ATOM
       1    C1      20.194426   17.234896   23.911478 C.2        1 MOL1         0.6075
       2    O1      21.317100   16.832003   24.141964 O.co2      1 MOL1        -0.6830
       3    O2      19.318649   17.300861   24.750827 O.co2      1 MOL1        -0.6830
       4    C2      19.872259   17.700170   22.495741 C.3        1 MOL1        -0.2050
       5    H1      18.815510   17.483549   22.297729 H          1 MOL1         0.0710
       6    H2      20.463195   17.097103   21.795773 H          1 MOL1         0.0710
       7    C3      20.158644   19.206136   22.276402 C.3        1 MOL1        -0.1947
       8    H3      19.569397   19.795785   22.992400 H          1 MOL1         0.0712
       9    H4      21.217146   19.409341   22.490488 H          1 MOL1         0.0712
      10    C4      19.824459   19.650510   20.837161 C.3        1 MOL1        -0.1921
      11    H5      18.765844   19.448092   20.622919 H          1 MOL1         0.0712
      12    H6      20.413995   19.061518   20.120870 H          1 MOL1         0.0712
      13    C5      20.111929   21.150157   20.626162 C.3        1 MOL1        -0.2936
      14    H7      21.171716   21.375700   20.803511 H          1 MOL1         0.0724
      15    H8      19.511408   21.765128   21.309286 H          1 MOL1         0.0724
      16    H9      19.869066   21.449642   19.598312 H          1 MOL1         0.0724
@<TRIPOS>BOND
    1     1     2    1
    2     1     3    2
    3     1     4    1
    4     4     5    1
    5     4     6    1
    6     4     7    1
    7     7     8    1
    8     7     9    1
    9     7    10    1
   10    10    11    1
   11    10    12    1
   12    10    13    1
   13    13    14    1
   14    13    15    1
   15    13    16    1
@<TRIPOS>SUBSTRUCTURE
       1 MOL1            1 RESIDUE      1      MOL     
@<SCITEGIC>MOL_PROPERTY
VConf Rank
SciTegic.value.IntegerValue
462

@<SCITEGIC>MOL_PROPERTY
Conf_Id
SciTegic.value.IntegerValue
22

@<SCITEGIC>MOL_PROPERTY
Delta U+W
SciTegic.value.DoubleValue
-1.185

@<SCITEGIC>MOL_PROPERTY
U+W
SciTegic.value.DoubleValue
-58.089

@<SCITEGIC>MOL_PROPERTY
Grad RMS
SciTegic.value.DoubleValue
0.000000

@<SCITEGIC>MOL_PROPERTY
U
SciTegic.value.DoubleValue
6.298

@<SCITEGIC>MOL_PROPERTY
W
SciTegic.value.DoubleValue
-64.387

@<SCITEGIC>MOL_PROPERTY
W(PB)
SciTegic.value.DoubleValue
-66.329

@<SCITEGIC>MOL_PROPERTY
W(SA)
SciTegic.value.DoubleValue
1.942

@<SCITEGIC>MOL_PROPERTY
Valence
SciTegic.value.DoubleValue
6.246

@<SCITEGIC>MOL_PROPERTY
Coulomb
SciTegic.value.DoubleValue
-0.408

@<SCITEGIC>MOL_PROPERTY
VdW
SciTegic.value.DoubleValue
0.460

@<SCITEGIC>MOL_PROPERTY
VdW6
SciTegic.value.DoubleValue
-4.207

@<SCITEGIC>MOL_PROPERTY
VdW12
SciTegic.value.DoubleValue
4.667

@<SCITEGIC>MOL_PROPERTY
Bond
SciTegic.value.DoubleValue
0.072

@<SCITEGIC>MOL_PROPERTY
Angle
SciTegic.value.DoubleValue
2.246

@<SCITEGIC>MOL_PROPERTY
Pdih
SciTegic.value.DoubleValue
3.928

@<SCITEGIC>MOL_PROPERTY
Idih
SciTegic.value.DoubleValue
0.001

@<SCITEGIC>MOL_PROPERTY
Tether
SciTegic.value.DoubleValue
0.000

@<TRIPOS>MOLECULE
guest-s18_confgen4.mol2 : confsearch ligand conformer 463
          16          15           1
SMALL
USER_CHARGES
 
@<TRIPOS>ATOM
       1    C1      17.942164   18.724189   23.548442 C.2        1 MOL1         0.6075
       2    O1      17.453945   19.602061   24.231800 O.co2      1 MOL1        -0.6830
       3    O2      17.803896   17.539239   23.778081 O.co2      1 MOL1        -0.6830
       4    C2      18.790899   19.132436   22.349462 C.3        1 MOL1        -0.2050
       5    H1      18.386615   20.070088   21.949550 H          1 MOL1         0.0710
       6    H2      18.665106   18.367533   21.574726 H          1 MOL1         0.0710
       7    C3      20.290260   19.305982   22.705541 C.3        1 MOL1        -0.1947
       8    H3      20.374970   20.013011   23.542418 H          1 MOL1         0.0712
       9    H4      20.694804   18.349590   23.064660 H          1 MOL1         0.0712
      10    C4      21.146329   19.825723   21.527653 C.3        1 MOL1        -0.1921
      11    H5      22.164041   20.024102   21.891271 H          1 MOL1         0.0712
      12    H6      20.748968   20.787930   21.176023 H          1 MOL1         0.0712
      13    C5      21.224030   18.833706   20.347484 C.3        1 MOL1        -0.2936
      14    H7      20.242687   18.691755   19.877806 H          1 MOL1         0.0724
      15    H8      21.591819   17.854510   20.680887 H          1 MOL1         0.0724
      16    H9      21.910182   19.207719   19.576564 H          1 MOL1         0.0724
@<TRIPOS>BOND
    1     1     2    1
    2     1     3    2
    3     1     4    1
    4     4     5    1
    5     4     6    1
    6     4     7    1
    7     7     8    1
    8     7     9    1
    9     7    10    1
   10    10    11    1
   11    10    12    1
   12    10    13    1
   13    13    14    1
   14    13    15    1
   15    13    16    1
@<TRIPOS>SUBSTRUCTURE
       1 MOL1            1 RESIDUE      1      MOL     
@<SCITEGIC>MOL_PROPERTY
VConf Rank
SciTegic.value.IntegerValue
463

@<SCITEGIC>MOL_PROPERTY
Conf_Id
SciTegic.value.IntegerValue
36

@<SCITEGIC>MOL_PROPERTY
Delta U+W
SciTegic.value.DoubleValue
-0.427

@<SCITEGIC>MOL_PROPERTY
U+W
SciTegic.value.DoubleValue
-57.331

@<SCITEGIC>MOL_PROPERTY
Grad RMS
SciTegic.value.DoubleValue
0.000000

@<SCITEGIC>MOL_PROPERTY
U
SciTegic.value.DoubleValue
7.263

@<SCITEGIC>MOL_PROPERTY
W
SciTegic.value.DoubleValue
-64.594

@<SCITEGIC>MOL_PROPERTY
W(PB)
SciTegic.value.DoubleValue
-66.513

@<SCITEGIC>MOL_PROPERTY
W(SA)
SciTegic.value.DoubleValue
1.920

@<SCITEGIC>MOL_PROPERTY
Valence
SciTegic.value.DoubleValue
6.734

@<SCITEGIC>MOL_PROPERTY
Coulomb
SciTegic.value.DoubleValue
-0.068

@<SCITEGIC>MOL_PROPERTY
VdW
SciTegic.value.DoubleValue
0.598

@<SCITEGIC>MOL_PROPERTY
VdW6
SciTegic.value.DoubleValue
-4.819

@<SCITEGIC>MOL_PROPERTY
VdW12
SciTegic.value.DoubleValue
5.417

@<SCITEGIC>MOL_PROPERTY
Bond
SciTegic.value.DoubleValue
0.107

@<SCITEGIC>MOL_PROPERTY
Angle
SciTegic.value.DoubleValue
2.469

@<SCITEGIC>MOL_PROPERTY
Pdih
SciTegic.value.DoubleValue
4.157

@<SCITEGIC>MOL_PROPERTY
Idih
SciTegic.value.DoubleValue
0.001

@<SCITEGIC>MOL_PROPERTY
Tether
SciTegic.value.DoubleValue
0.000

@<TRIPOS>MOLECULE
guest-s18_confgen4.mol2 : confsearch ligand conformer 464
          16          15           1
SMALL
USER_CHARGES
 
@<TRIPOS>ATOM
       1    C1      19.369500   21.497832   21.098592 C.2        1 MOL1         0.6075
       2    O1      18.168555   21.628426   20.969619 O.co2      1 MOL1        -0.6830
       3    O2      20.185373   22.210022   20.548017 O.co2      1 MOL1        -0.6830
       4    C2      19.881248   20.366464   21.983291 C.3        1 MOL1        -0.2050
       5    H1      19.157610   20.222145   22.793623 H          1 MOL1         0.0710
       6    H2      20.822616   20.692065   22.441959 H          1 MOL1         0.0710
       7    C3      20.096621   19.043664   21.203029 C.3        1 MOL1        -0.1947
       8    H3      19.138902   18.705042   20.784199 H          1 MOL1         0.0712
       9    H4      20.757164   19.241769   20.347537 H          1 MOL1         0.0712
      10    C4      20.718794   17.917679   22.060623 C.3        1 MOL1        -0.1921
      11    H5      21.682167   18.251920   22.469983 H          1 MOL1         0.0712
      12    H6      20.938360   17.059208   21.410911 H          1 MOL1         0.0712
      13    C5      19.800570   17.449968   23.209989 C.3        1 MOL1        -0.2936
      14    H7      19.644854   18.246578   23.948194 H          1 MOL1         0.0724
      15    H8      20.246860   16.594597   23.733604 H          1 MOL1         0.0724
      16    H9      18.820094   17.137760   22.827310 H          1 MOL1         0.0724
@<TRIPOS>BOND
    1     1     2    1
    2     1     3    2
    3     1     4    1
    4     4     5    1
    5     4     6    1
    6     4     7    1
    7     7     8    1
    8     7     9    1
    9     7    10    1
   10    10    11    1
   11    10    12    1
   12    10    13    1
   13    13    14    1
   14    13    15    1
   15    13    16    1
@<TRIPOS>SUBSTRUCTURE
       1 MOL1            1 RESIDUE      1      MOL     
@<SCITEGIC>MOL_PROPERTY
VConf Rank
SciTegic.value.IntegerValue
464

@<SCITEGIC>MOL_PROPERTY
Conf_Id
SciTegic.value.IntegerValue
17

@<SCITEGIC>MOL_PROPERTY
Delta U+W
SciTegic.value.DoubleValue
-0.432

@<SCITEGIC>MOL_PROPERTY
U+W
SciTegic.value.DoubleValue
-57.336

@<SCITEGIC>MOL_PROPERTY
Grad RMS
SciTegic.value.DoubleValue
0.000000

@<SCITEGIC>MOL_PROPERTY
U
SciTegic.value.DoubleValue
7.263

@<SCITEGIC>MOL_PROPERTY
W
SciTegic.value.DoubleValue
-64.599

@<SCITEGIC>MOL_PROPERTY
W(PB)
SciTegic.value.DoubleValue
-66.503

@<SCITEGIC>MOL_PROPERTY
W(SA)
SciTegic.value.DoubleValue
1.904

@<SCITEGIC>MOL_PROPERTY
Valence
SciTegic.value.DoubleValue
6.734

@<SCITEGIC>MOL_PROPERTY
Coulomb
SciTegic.value.DoubleValue
-0.068

@<SCITEGIC>MOL_PROPERTY
VdW
SciTegic.value.DoubleValue
0.598

@<SCITEGIC>MOL_PROPERTY
VdW6
SciTegic.value.DoubleValue
-4.819

@<SCITEGIC>MOL_PROPERTY
VdW12
SciTegic.value.DoubleValue
5.417

@<SCITEGIC>MOL_PROPERTY
Bond
SciTegic.value.DoubleValue
0.107

@<SCITEGIC>MOL_PROPERTY
Angle
SciTegic.value.DoubleValue
2.469

@<SCITEGIC>MOL_PROPERTY
Pdih
SciTegic.value.DoubleValue
4.157

@<SCITEGIC>MOL_PROPERTY
Idih
SciTegic.value.DoubleValue
0.001

@<SCITEGIC>MOL_PROPERTY
Tether
SciTegic.value.DoubleValue
0.000

@<TRIPOS>MOLECULE
guest-s18_confgen4.mol2 : confsearch ligand conformer 465
          16          15           1
SMALL
USER_CHARGES
 
@<TRIPOS>ATOM
       1    C1      20.869463   20.048879   20.032936 C.2        1 MOL1         0.6075
       2    O1      20.380766   21.132111   19.779708 O.co2      1 MOL1        -0.6830
       3    O2      22.059507   19.815520   19.958093 O.co2      1 MOL1        -0.6830
       4    C2      19.933606   18.915334   20.443715 C.3        1 MOL1        -0.2050
       5    H1      20.453315   17.960753   20.296197 H          1 MOL1         0.0710
       6    H2      19.083838   18.923929   19.750856 H          1 MOL1         0.0710
       7    C3      19.413651   19.021593   21.900901 C.3        1 MOL1        -0.1947
       8    H3      18.920978   19.993729   22.041787 H          1 MOL1         0.0712
       9    H4      18.646700   18.252061   22.062661 H          1 MOL1         0.0712
      10    C4      20.536698   18.848103   22.946295 C.3        1 MOL1        -0.1921
      11    H5      21.300434   19.625941   22.807018 H          1 MOL1         0.0712
      12    H6      21.036496   17.881107   22.796297 H          1 MOL1         0.0712
      13    C5      19.987959   18.924232   24.384848 C.3        1 MOL1        -0.2936
      14    H7      19.509435   19.894613   24.571464 H          1 MOL1         0.0724
      15    H8      20.798418   18.800006   25.114808 H          1 MOL1         0.0724
      16    H9      19.245835   18.135372   24.564756 H          1 MOL1         0.0724
@<TRIPOS>BOND
    1     1     2    1
    2     1     3    2
    3     1     4    1
    4     4     5    1
    5     4     6    1
    6     4     7    1
    7     7     8    1
    8     7     9    1
    9     7    10    1
   10    10    11    1
   11    10    12    1
   12    10    13    1
   13    13    14    1
   14    13    15    1
   15    13    16    1
@<TRIPOS>SUBSTRUCTURE
       1 MOL1            1 RESIDUE      1      MOL     
@<SCITEGIC>MOL_PROPERTY
VConf Rank
SciTegic.value.IntegerValue
465

@<SCITEGIC>MOL_PROPERTY
Conf_Id
SciTegic.value.IntegerValue
19

@<SCITEGIC>MOL_PROPERTY
Delta U+W
SciTegic.value.DoubleValue
0.048

@<SCITEGIC>MOL_PROPERTY
U+W
SciTegic.value.DoubleValue
-56.856

@<SCITEGIC>MOL_PROPERTY
Grad RMS
SciTegic.value.DoubleValue
0.000000

@<SCITEGIC>MOL_PROPERTY
U
SciTegic.value.DoubleValue
8.276

@<SCITEGIC>MOL_PROPERTY
W
SciTegic.value.DoubleValue
-65.132

@<SCITEGIC>MOL_PROPERTY
W(PB)
SciTegic.value.DoubleValue
-67.031

@<SCITEGIC>MOL_PROPERTY
W(SA)
SciTegic.value.DoubleValue
1.899

@<SCITEGIC>MOL_PROPERTY
Valence
SciTegic.value.DoubleValue
6.513

@<SCITEGIC>MOL_PROPERTY
Coulomb
SciTegic.value.DoubleValue
1.428

@<SCITEGIC>MOL_PROPERTY
VdW
SciTegic.value.DoubleValue
0.335

@<SCITEGIC>MOL_PROPERTY
VdW6
SciTegic.value.DoubleValue
-5.021

@<SCITEGIC>MOL_PROPERTY
VdW12
SciTegic.value.DoubleValue
5.356

@<SCITEGIC>MOL_PROPERTY
Bond
SciTegic.value.DoubleValue
0.092

@<SCITEGIC>MOL_PROPERTY
Angle
SciTegic.value.DoubleValue
2.417

@<SCITEGIC>MOL_PROPERTY
Pdih
SciTegic.value.DoubleValue
4.003

@<SCITEGIC>MOL_PROPERTY
Idih
SciTegic.value.DoubleValue
0.001

@<SCITEGIC>MOL_PROPERTY
Tether
SciTegic.value.DoubleValue
0.000

@<TRIPOS>MOLECULE
guest-s18_confgen4.mol2 : confsearch ligand conformer 466
          16          15           1
SMALL
USER_CHARGES
 
@<TRIPOS>ATOM
       1    C1      18.052248   19.485062   20.601472 C.2        1 MOL1         0.6075
       2    O1      17.157620   20.164168   21.064935 O.co2      1 MOL1        -0.6830
       3    O2      17.867895   18.419341   20.047835 O.co2      1 MOL1        -0.6830
       4    C2      19.481201   20.012123   20.700466 C.3        1 MOL1        -0.2050
       5    H1      19.462076   21.069019   20.409193 H          1 MOL1         0.0710
       6    H2      20.099448   19.490284   19.959831 H          1 MOL1         0.0710
       7    C3      20.108704   19.876179   22.112133 C.3        1 MOL1        -0.1947
       8    H3      21.073209   20.401640   22.125538 H          1 MOL1         0.0712
       9    H4      19.464455   20.378760   22.846965 H          1 MOL1         0.0712
      10    C4      20.325379   18.404612   22.526537 C.3        1 MOL1        -0.1921
      11    H5      20.959515   17.900116   21.784422 H          1 MOL1         0.0712
      12    H6      19.363299   17.873550   22.536497 H          1 MOL1         0.0712
      13    C5      20.980543   18.298717   23.917902 C.3        1 MOL1        -0.2936
      14    H7      21.961441   18.791798   23.929083 H          1 MOL1         0.0724
      15    H8      21.126551   17.247206   24.197410 H          1 MOL1         0.0724
      16    H9      20.351215   18.769101   24.684802 H          1 MOL1         0.0724
@<TRIPOS>BOND
    1     1     2    1
    2     1     3    2
    3     1     4    1
    4     4     5    1
    5     4     6    1
    6     4     7    1
    7     7     8    1
    8     7     9    1
    9     7    10    1
   10    10    11    1
   11    10    12    1
   12    10    13    1
   13    13    14    1
   14    13    15    1
   15    13    16    1
@<TRIPOS>SUBSTRUCTURE
       1 MOL1            1 RESIDUE      1      MOL     
@<SCITEGIC>MOL_PROPERTY
VConf Rank
SciTegic.value.IntegerValue
466

@<SCITEGIC>MOL_PROPERTY
Conf_Id
SciTegic.value.IntegerValue
20

@<SCITEGIC>MOL_PROPERTY
Delta U+W
SciTegic.value.DoubleValue
-0.010

@<SCITEGIC>MOL_PROPERTY
U+W
SciTegic.value.DoubleValue
-56.914

@<SCITEGIC>MOL_PROPERTY
Grad RMS
SciTegic.value.DoubleValue
0.000000

@<SCITEGIC>MOL_PROPERTY
U
SciTegic.value.DoubleValue
8.277

@<SCITEGIC>MOL_PROPERTY
W
SciTegic.value.DoubleValue
-65.191

@<SCITEGIC>MOL_PROPERTY
W(PB)
SciTegic.value.DoubleValue
-67.081

@<SCITEGIC>MOL_PROPERTY
W(SA)
SciTegic.value.DoubleValue
1.890

@<SCITEGIC>MOL_PROPERTY
Valence
SciTegic.value.DoubleValue
6.513

@<SCITEGIC>MOL_PROPERTY
Coulomb
SciTegic.value.DoubleValue
1.429

@<SCITEGIC>MOL_PROPERTY
VdW
SciTegic.value.DoubleValue
0.335

@<SCITEGIC>MOL_PROPERTY
VdW6
SciTegic.value.DoubleValue
-5.021

@<SCITEGIC>MOL_PROPERTY
VdW12
SciTegic.value.DoubleValue
5.356

@<SCITEGIC>MOL_PROPERTY
Bond
SciTegic.value.DoubleValue
0.092

@<SCITEGIC>MOL_PROPERTY
Angle
SciTegic.value.DoubleValue
2.417

@<SCITEGIC>MOL_PROPERTY
Pdih
SciTegic.value.DoubleValue
4.002

@<SCITEGIC>MOL_PROPERTY
Idih
SciTegic.value.DoubleValue
0.001

@<SCITEGIC>MOL_PROPERTY
Tether
SciTegic.value.DoubleValue
0.000

@<TRIPOS>MOLECULE
guest-s18_confgen4.mol2 : confsearch ligand conformer 467
          16          15           1
SMALL
USER_CHARGES
 
@<TRIPOS>ATOM
       1    C1      21.526149   19.076906   20.814133 C.2        1 MOL1         0.6075
       2    O1      21.520266   18.412434   19.796672 O.co2      1 MOL1        -0.6830
       3    O2      22.453969   19.093441   21.598465 O.co2      1 MOL1        -0.6830
       4    C2      20.317000   19.962760   21.102174 C.3        1 MOL1        -0.2050
       5    H1      20.118294   20.546973   20.196033 H          1 MOL1         0.0710
       6    H2      20.586638   20.683397   21.882703 H          1 MOL1         0.0710
       7    C3      19.035259   19.180102   21.498741 C.3        1 MOL1        -0.1947
       8    H3      18.201294   19.886469   21.607917 H          1 MOL1         0.0712
       9    H4      18.763162   18.507515   20.673548 H          1 MOL1         0.0712
      10    C4      19.171459   18.348979   22.796691 C.3        1 MOL1        -0.1921
      11    H5      19.980898   17.613815   22.687410 H          1 MOL1         0.0712
      12    H6      18.248031   17.772282   22.944436 H          1 MOL1         0.0712
      13    C5      19.424098   19.214112   24.049751 C.3        1 MOL1        -0.2936
      14    H7      20.399671   19.714185   23.998050 H          1 MOL1         0.0724
      15    H8      19.418411   18.591113   24.953466 H          1 MOL1         0.0724
      16    H9      18.647001   19.981266   24.162271 H          1 MOL1         0.0724
@<TRIPOS>BOND
    1     1     2    1
    2     1     3    2
    3     1     4    1
    4     4     5    1
    5     4     6    1
    6     4     7    1
    7     7     8    1
    8     7     9    1
    9     7    10    1
   10    10    11    1
   11    10    12    1
   12    10    13    1
   13    13    14    1
   14    13    15    1
   15    13    16    1
@<TRIPOS>SUBSTRUCTURE
       1 MOL1            1 RESIDUE      1      MOL     
@<SCITEGIC>MOL_PROPERTY
VConf Rank
SciTegic.value.IntegerValue
467

@<SCITEGIC>MOL_PROPERTY
Conf_Id
SciTegic.value.IntegerValue
37

@<SCITEGIC>MOL_PROPERTY
Delta U+W
SciTegic.value.DoubleValue
1.063

@<SCITEGIC>MOL_PROPERTY
U+W
SciTegic.value.DoubleValue
-55.841

@<SCITEGIC>MOL_PROPERTY
Grad RMS
SciTegic.value.DoubleValue
0.000000

@<SCITEGIC>MOL_PROPERTY
U
SciTegic.value.DoubleValue
9.719

@<SCITEGIC>MOL_PROPERTY
W
SciTegic.value.DoubleValue
-65.560

@<SCITEGIC>MOL_PROPERTY
W(PB)
SciTegic.value.DoubleValue
-67.414

@<SCITEGIC>MOL_PROPERTY
W(SA)
SciTegic.value.DoubleValue
1.854

@<SCITEGIC>MOL_PROPERTY
Valence
SciTegic.value.DoubleValue
7.002

@<SCITEGIC>MOL_PROPERTY
Coulomb
SciTegic.value.DoubleValue
2.402

@<SCITEGIC>MOL_PROPERTY
VdW
SciTegic.value.DoubleValue
0.314

@<SCITEGIC>MOL_PROPERTY
VdW6
SciTegic.value.DoubleValue
-5.861

@<SCITEGIC>MOL_PROPERTY
VdW12
SciTegic.value.DoubleValue
6.175

@<SCITEGIC>MOL_PROPERTY
Bond
SciTegic.value.DoubleValue
0.134

@<SCITEGIC>MOL_PROPERTY
Angle
SciTegic.value.DoubleValue
2.733

@<SCITEGIC>MOL_PROPERTY
Pdih
SciTegic.value.DoubleValue
4.133

@<SCITEGIC>MOL_PROPERTY
Idih
SciTegic.value.DoubleValue
0.002

@<SCITEGIC>MOL_PROPERTY
Tether
SciTegic.value.DoubleValue
0.000

@<TRIPOS>MOLECULE
guest-s18_confgen4.mol2 : confsearch ligand conformer 468
          16          15           1
SMALL
USER_CHARGES
 
@<TRIPOS>ATOM
       1    C1      21.920639   20.334657   22.188902 C.2        1 MOL1         0.6075
       2    O1      22.493983   20.660127   23.209749 O.co2      1 MOL1        -0.6830
       3    O2      22.491605   19.895574   21.210380 O.co2      1 MOL1        -0.6830
       4    C2      20.407135   20.520907   22.122839 C.3        1 MOL1        -0.2050
       5    H1      20.088767   20.446898   21.076697 H          1 MOL1         0.0710
       6    H2      20.191374   21.547690   22.440717 H          1 MOL1         0.0710
       7    C3      19.605113   19.530297   23.010607 C.3        1 MOL1        -0.1947
       8    H3      19.909689   19.668580   24.057252 H          1 MOL1         0.0712
       9    H4      18.538314   19.787450   22.963884 H          1 MOL1         0.0712
      10    C4      19.786932   18.041719   22.629729 C.3        1 MOL1        -0.1921
      11    H5      19.250421   17.422553   23.361793 H          1 MOL1         0.0712
      12    H6      20.846967   17.762345   22.706369 H          1 MOL1         0.0712
      13    C5      19.264605   17.706866   21.216403 C.3        1 MOL1        -0.2936
      14    H7      18.215540   18.009266   21.102021 H          1 MOL1         0.0724
      15    H8      19.328109   16.627030   21.029907 H          1 MOL1         0.0724
      16    H9      19.857106   18.212190   20.443049 H          1 MOL1         0.0724
@<TRIPOS>BOND
    1     1     2    1
    2     1     3    2
    3     1     4    1
    4     4     5    1
    5     4     6    1
    6     4     7    1
    7     7     8    1
    8     7     9    1
    9     7    10    1
   10    10    11    1
   11    10    12    1
   12    10    13    1
   13    13    14    1
   14    13    15    1
   15    13    16    1
@<TRIPOS>SUBSTRUCTURE
       1 MOL1            1 RESIDUE      1      MOL     
@<SCITEGIC>MOL_PROPERTY
VConf Rank
SciTegic.value.IntegerValue
468

@<SCITEGIC>MOL_PROPERTY
Conf_Id
SciTegic.value.IntegerValue
39

@<SCITEGIC>MOL_PROPERTY
Delta U+W
SciTegic.value.DoubleValue
1.129

@<SCITEGIC>MOL_PROPERTY
U+W
SciTegic.value.DoubleValue
-55.775

@<SCITEGIC>MOL_PROPERTY
Grad RMS
SciTegic.value.DoubleValue
0.000000

@<SCITEGIC>MOL_PROPERTY
U
SciTegic.value.DoubleValue
9.718

@<SCITEGIC>MOL_PROPERTY
W
SciTegic.value.DoubleValue
-65.493

@<SCITEGIC>MOL_PROPERTY
W(PB)
SciTegic.value.DoubleValue
-67.361

@<SCITEGIC>MOL_PROPERTY
W(SA)
SciTegic.value.DoubleValue
1.869

@<SCITEGIC>MOL_PROPERTY
Valence
SciTegic.value.DoubleValue
7.002

@<SCITEGIC>MOL_PROPERTY
Coulomb
SciTegic.value.DoubleValue
2.402

@<SCITEGIC>MOL_PROPERTY
VdW
SciTegic.value.DoubleValue
0.314

@<SCITEGIC>MOL_PROPERTY
VdW6
SciTegic.value.DoubleValue
-5.861

@<SCITEGIC>MOL_PROPERTY
VdW12
SciTegic.value.DoubleValue
6.175

@<SCITEGIC>MOL_PROPERTY
Bond
SciTegic.value.DoubleValue
0.134

@<SCITEGIC>MOL_PROPERTY
Angle
SciTegic.value.DoubleValue
2.734

@<SCITEGIC>MOL_PROPERTY
Pdih
SciTegic.value.DoubleValue
4.133

@<SCITEGIC>MOL_PROPERTY
Idih
SciTegic.value.DoubleValue
0.002

@<SCITEGIC>MOL_PROPERTY
Tether
SciTegic.value.DoubleValue
0.000

@<TRIPOS>MOLECULE
guest-s18_confgen4.mol2 : confsearch ligand conformer 469
          16          15           1
SMALL
USER_CHARGES
 
@<TRIPOS>ATOM
       1    C1      18.716692   20.211114   23.411850 C.2        1 MOL1         0.6075
       2    O1      17.714608   20.546151   22.811519 O.co2      1 MOL1        -0.6830
       3    O2      19.410090   20.986407   24.040561 O.co2      1 MOL1        -0.6830
       4    C2      19.070586   18.725568   23.451486 C.3        1 MOL1        -0.2050
       5    H1      18.304968   18.161636   22.904869 H          1 MOL1         0.0710
       6    H2      18.996148   18.418298   24.501149 H          1 MOL1         0.0710
       7    C3      20.486254   18.365369   22.919394 C.3        1 MOL1        -0.1947
       8    H3      21.227273   19.071908   23.318435 H          1 MOL1         0.0712
       9    H4      20.759371   17.380709   23.322262 H          1 MOL1         0.0712
      10    C4      20.598603   18.291988   21.377461 C.3        1 MOL1        -0.1921
      11    H5      19.854958   17.586210   20.982365 H          1 MOL1         0.0712
      12    H6      21.583495   17.878268   21.120331 H          1 MOL1         0.0712
      13    C5      20.443342   19.656804   20.674997 C.3        1 MOL1        -0.2936
      14    H7      19.418465   20.037320   20.763511 H          1 MOL1         0.0724
      15    H8      20.670067   19.565809   19.604911 H          1 MOL1         0.0724
      16    H9      21.126369   20.401258   21.104639 H          1 MOL1         0.0724
@<TRIPOS>BOND
    1     1     2    1
    2     1     3    2
    3     1     4    1
    4     4     5    1
    5     4     6    1
    6     4     7    1
    7     7     8    1
    8     7     9    1
    9     7    10    1
   10    10    11    1
   11    10    12    1
   12    10    13    1
   13    13    14    1
   14    13    15    1
   15    13    16    1
@<TRIPOS>SUBSTRUCTURE
       1 MOL1            1 RESIDUE      1      MOL     
@<SCITEGIC>MOL_PROPERTY
VConf Rank
SciTegic.value.IntegerValue
469

@<SCITEGIC>MOL_PROPERTY
Conf_Id
SciTegic.value.IntegerValue
47

@<SCITEGIC>MOL_PROPERTY
Delta U+W
SciTegic.value.DoubleValue
2.301

@<SCITEGIC>MOL_PROPERTY
U+W
SciTegic.value.DoubleValue
-54.603

@<SCITEGIC>MOL_PROPERTY
Grad RMS
SciTegic.value.DoubleValue
0.000000

@<SCITEGIC>MOL_PROPERTY
U
SciTegic.value.DoubleValue
11.258

@<SCITEGIC>MOL_PROPERTY
W
SciTegic.value.DoubleValue
-65.861

@<SCITEGIC>MOL_PROPERTY
W(PB)
SciTegic.value.DoubleValue
-67.702

@<SCITEGIC>MOL_PROPERTY
W(SA)
SciTegic.value.DoubleValue
1.841

@<SCITEGIC>MOL_PROPERTY
Valence
SciTegic.value.DoubleValue
8.169

@<SCITEGIC>MOL_PROPERTY
Coulomb
SciTegic.value.DoubleValue
2.735

@<SCITEGIC>MOL_PROPERTY
VdW
SciTegic.value.DoubleValue
0.355

@<SCITEGIC>MOL_PROPERTY
VdW6
SciTegic.value.DoubleValue
-6.245

@<SCITEGIC>MOL_PROPERTY
VdW12
SciTegic.value.DoubleValue
6.600

@<SCITEGIC>MOL_PROPERTY
Bond
SciTegic.value.DoubleValue
0.149

@<SCITEGIC>MOL_PROPERTY
Angle
SciTegic.value.DoubleValue
3.168

@<SCITEGIC>MOL_PROPERTY
Pdih
SciTegic.value.DoubleValue
4.840

@<SCITEGIC>MOL_PROPERTY
Idih
SciTegic.value.DoubleValue
0.011

@<SCITEGIC>MOL_PROPERTY
Tether
SciTegic.value.DoubleValue
0.000

@<TRIPOS>MOLECULE
guest-s18_confgen4.mol2 : confsearch ligand conformer 470
          16          15           1
SMALL
USER_CHARGES
 
@<TRIPOS>ATOM
       1    C1      20.996276   20.763752   22.224858 C.2        1 MOL1         0.6075
       2    O1      21.496549   20.866725   21.122006 O.co2      1 MOL1        -0.6830
       3    O2      21.622382   20.896024   23.257967 O.co2      1 MOL1        -0.6830
       4    C2      19.487116   20.546445   22.319099 C.3        1 MOL1        -0.2050
       5    H1      19.019429   21.421629   21.853191 H          1 MOL1         0.0710
       6    H2      19.190261   20.557394   23.374909 H          1 MOL1         0.0710
       7    C3      18.956283   19.260869   21.624478 C.3        1 MOL1        -0.1947
       8    H3      17.881712   19.394245   21.440190 H          1 MOL1         0.0712
       9    H4      19.421710   19.150345   20.635184 H          1 MOL1         0.0712
      10    C4      19.136535   17.960765   22.444723 C.3        1 MOL1        -0.1921
      11    H5      18.589992   17.152646   21.939224 H          1 MOL1         0.0712
      12    H6      18.671559   18.075992   23.433536 H          1 MOL1         0.0712
      13    C5      20.607700   17.526593   22.610407 C.3        1 MOL1        -0.2936
      14    H7      20.664997   16.533798   23.074997 H          1 MOL1         0.0724
      15    H8      21.159899   18.223376   23.252723 H          1 MOL1         0.0724
      16    H9      21.115756   17.476420   21.638455 H          1 MOL1         0.0724
@<TRIPOS>BOND
    1     1     2    1
    2     1     3    2
    3     1     4    1
    4     4     5    1
    5     4     6    1
    6     4     7    1
    7     7     8    1
    8     7     9    1
    9     7    10    1
   10    10    11    1
   11    10    12    1
   12    10    13    1
   13    13    14    1
   14    13    15    1
   15    13    16    1
@<TRIPOS>SUBSTRUCTURE
       1 MOL1            1 RESIDUE      1      MOL     
@<SCITEGIC>MOL_PROPERTY
VConf Rank
SciTegic.value.IntegerValue
470

@<SCITEGIC>MOL_PROPERTY
Conf_Id
SciTegic.value.IntegerValue
45

@<SCITEGIC>MOL_PROPERTY
Delta U+W
SciTegic.value.DoubleValue
2.303

@<SCITEGIC>MOL_PROPERTY
U+W
SciTegic.value.DoubleValue
-54.601

@<SCITEGIC>MOL_PROPERTY
Grad RMS
SciTegic.value.DoubleValue
0.000000

@<SCITEGIC>MOL_PROPERTY
U
SciTegic.value.DoubleValue
11.258

@<SCITEGIC>MOL_PROPERTY
W
SciTegic.value.DoubleValue
-65.860

@<SCITEGIC>MOL_PROPERTY
W(PB)
SciTegic.value.DoubleValue
-67.709

@<SCITEGIC>MOL_PROPERTY
W(SA)
SciTegic.value.DoubleValue
1.849

@<SCITEGIC>MOL_PROPERTY
Valence
SciTegic.value.DoubleValue
8.169

@<SCITEGIC>MOL_PROPERTY
Coulomb
SciTegic.value.DoubleValue
2.735

@<SCITEGIC>MOL_PROPERTY
VdW
SciTegic.value.DoubleValue
0.355

@<SCITEGIC>MOL_PROPERTY
VdW6
SciTegic.value.DoubleValue
-6.245

@<SCITEGIC>MOL_PROPERTY
VdW12
SciTegic.value.DoubleValue
6.600

@<SCITEGIC>MOL_PROPERTY
Bond
SciTegic.value.DoubleValue
0.149

@<SCITEGIC>MOL_PROPERTY
Angle
SciTegic.value.DoubleValue
3.168

@<SCITEGIC>MOL_PROPERTY
Pdih
SciTegic.value.DoubleValue
4.840

@<SCITEGIC>MOL_PROPERTY
Idih
SciTegic.value.DoubleValue
0.011

@<SCITEGIC>MOL_PROPERTY
Tether
SciTegic.value.DoubleValue
0.000

@<TRIPOS>MOLECULE
guest-s18_confgen4.mol2 : confsearch ligand conformer 471
          16          15           1
SMALL
USER_CHARGES
 
@<TRIPOS>ATOM
       1    C1      17.241928   19.191283   22.044964 C.2        1 MOL1         0.6075
       2    O1      17.104137   19.482711   20.872846 O.co2      1 MOL1        -0.6830
       3    O2      16.305954   19.039585   22.804078 O.co2      1 MOL1        -0.6830
       4    C2      18.646124   19.000164   22.620813 C.3        1 MOL1        -0.2050
       5    H1      18.693072   17.987992   23.039697 H          1 MOL1         0.0710
       6    H2      18.754232   19.699233   23.458536 H          1 MOL1         0.0710
       7    C3      19.809719   19.204863   21.614586 C.3        1 MOL1        -0.1947
       8    H3      19.693029   18.505630   20.774988 H          1 MOL1         0.0712
       9    H4      19.754259   20.218634   21.194275 H          1 MOL1         0.0712
      10    C4      21.186335   18.993046   22.278906 C.3        1 MOL1        -0.1921
      11    H5      21.243768   17.978923   22.698138 H          1 MOL1         0.0712
      12    H6      21.305046   19.692949   23.117680 H          1 MOL1         0.0712
      13    C5      22.337757   19.197685   21.274668 C.3        1 MOL1        -0.2936
      14    H7      22.261489   18.488569   20.439919 H          1 MOL1         0.0724
      15    H8      23.308854   19.043471   21.762858 H          1 MOL1         0.0724
      16    H9      22.323224   20.215241   20.862554 H          1 MOL1         0.0724
@<TRIPOS>BOND
    1     1     2    1
    2     1     3    2
    3     1     4    1
    4     4     5    1
    5     4     6    1
    6     4     7    1
    7     7     8    1
    8     7     9    1
    9     7    10    1
   10    10    11    1
   11    10    12    1
   12    10    13    1
   13    13    14    1
   14    13    15    1
   15    13    16    1
@<TRIPOS>SUBSTRUCTURE
       1 MOL1            1 RESIDUE      1      MOL     
@<SCITEGIC>MOL_PROPERTY
VConf Rank
SciTegic.value.IntegerValue
471

@<SCITEGIC>MOL_PROPERTY
Conf_Id
SciTegic.value.IntegerValue
0

@<SCITEGIC>MOL_PROPERTY
Delta U+W
SciTegic.value.DoubleValue
0.000

@<SCITEGIC>MOL_PROPERTY
U+W
SciTegic.value.DoubleValue
-56.904

@<SCITEGIC>MOL_PROPERTY
Grad RMS
SciTegic.value.DoubleValue
0.000000

@<SCITEGIC>MOL_PROPERTY
U
SciTegic.value.DoubleValue
7.329

@<SCITEGIC>MOL_PROPERTY
W
SciTegic.value.DoubleValue
-64.233

@<SCITEGIC>MOL_PROPERTY
W(PB)
SciTegic.value.DoubleValue
-66.148

@<SCITEGIC>MOL_PROPERTY
W(SA)
SciTegic.value.DoubleValue
1.915

@<SCITEGIC>MOL_PROPERTY
Valence
SciTegic.value.DoubleValue
6.755

@<SCITEGIC>MOL_PROPERTY
Coulomb
SciTegic.value.DoubleValue
-0.421

@<SCITEGIC>MOL_PROPERTY
VdW
SciTegic.value.DoubleValue
0.995

@<SCITEGIC>MOL_PROPERTY
VdW6
SciTegic.value.DoubleValue
-4.495

@<SCITEGIC>MOL_PROPERTY
VdW12
SciTegic.value.DoubleValue
5.490

@<SCITEGIC>MOL_PROPERTY
Bond
SciTegic.value.DoubleValue
0.106

@<SCITEGIC>MOL_PROPERTY
Angle
SciTegic.value.DoubleValue
2.715

@<SCITEGIC>MOL_PROPERTY
Pdih
SciTegic.value.DoubleValue
3.934

@<SCITEGIC>MOL_PROPERTY
Idih
SciTegic.value.DoubleValue
0.000

@<SCITEGIC>MOL_PROPERTY
Tether
SciTegic.value.DoubleValue
0.000

@<TRIPOS>MOLECULE
guest-s18_confgen4.mol2 : confsearch ligand conformer 472
          16          15           1
SMALL
USER_CHARGES
 
@<TRIPOS>ATOM
       1    C1      19.353611   20.320145   19.582811 C.2        1 MOL1         0.6075
       2    O1      19.848950   21.415159   19.405538 O.co2      1 MOL1        -0.6830
       3    O2      19.081751   19.551783   18.681947 O.co2      1 MOL1        -0.6830
       4    C2      19.074650   19.878748   21.015268 C.3        1 MOL1        -0.2050
       5    H1      18.188286   19.232889   21.006649 H          1 MOL1         0.0710
       6    H2      18.820923   20.769127   21.603229 H          1 MOL1         0.0710
       7    C3      20.270252   19.135749   21.660675 C.3        1 MOL1        -0.1947
       8    H3      20.520066   18.254167   21.054082 H          1 MOL1         0.0712
       9    H4      21.152759   19.790449   21.650630 H          1 MOL1         0.0712
      10    C4      19.961957   18.700526   23.108466 C.3        1 MOL1        -0.1921
      11    H5      19.079895   18.045242   23.118854 H          1 MOL1         0.0712
      12    H6      19.712712   19.581923   23.715551 H          1 MOL1         0.0712
      13    C5      21.156127   17.961830   23.744382 C.3        1 MOL1        -0.2936
      14    H7      22.044885   18.605733   23.775501 H          1 MOL1         0.0724
      15    H8      21.407409   17.057713   23.174381 H          1 MOL1         0.0724
      16    H9      20.920509   17.659411   24.773059 H          1 MOL1         0.0724
@<TRIPOS>BOND
    1     1     2    1
    2     1     3    2
    3     1     4    1
    4     4     5    1
    5     4     6    1
    6     4     7    1
    7     7     8    1
    8     7     9    1
    9     7    10    1
   10    10    11    1
   11    10    12    1
   12    10    13    1
   13    13    14    1
   14    13    15    1
   15    13    16    1
@<TRIPOS>SUBSTRUCTURE
       1 MOL1            1 RESIDUE      1      MOL     
@<SCITEGIC>MOL_PROPERTY
VConf Rank
SciTegic.value.IntegerValue
472

@<SCITEGIC>MOL_PROPERTY
Conf_Id
SciTegic.value.IntegerValue
22

@<SCITEGIC>MOL_PROPERTY
Delta U+W
SciTegic.value.DoubleValue
-1.185

@<SCITEGIC>MOL_PROPERTY
U+W
SciTegic.value.DoubleValue
-58.089

@<SCITEGIC>MOL_PROPERTY
Grad RMS
SciTegic.value.DoubleValue
0.000000

@<SCITEGIC>MOL_PROPERTY
U
SciTegic.value.DoubleValue
6.298

@<SCITEGIC>MOL_PROPERTY
W
SciTegic.value.DoubleValue
-64.387

@<SCITEGIC>MOL_PROPERTY
W(PB)
SciTegic.value.DoubleValue
-66.329

@<SCITEGIC>MOL_PROPERTY
W(SA)
SciTegic.value.DoubleValue
1.942

@<SCITEGIC>MOL_PROPERTY
Valence
SciTegic.value.DoubleValue
6.246

@<SCITEGIC>MOL_PROPERTY
Coulomb
SciTegic.value.DoubleValue
-0.408

@<SCITEGIC>MOL_PROPERTY
VdW
SciTegic.value.DoubleValue
0.460

@<SCITEGIC>MOL_PROPERTY
VdW6
SciTegic.value.DoubleValue
-4.207

@<SCITEGIC>MOL_PROPERTY
VdW12
SciTegic.value.DoubleValue
4.667

@<SCITEGIC>MOL_PROPERTY
Bond
SciTegic.value.DoubleValue
0.072

@<SCITEGIC>MOL_PROPERTY
Angle
SciTegic.value.DoubleValue
2.246

@<SCITEGIC>MOL_PROPERTY
Pdih
SciTegic.value.DoubleValue
3.928

@<SCITEGIC>MOL_PROPERTY
Idih
SciTegic.value.DoubleValue
0.001

@<SCITEGIC>MOL_PROPERTY
Tether
SciTegic.value.DoubleValue
0.000

@<TRIPOS>MOLECULE
guest-s18_confgen4.mol2 : confsearch ligand conformer 473
          16          15           1
SMALL
USER_CHARGES
 
@<TRIPOS>ATOM
       1    C1      21.014770   18.550495   19.699378 C.2        1 MOL1         0.6075
       2    O1      20.434644   17.873491   18.874081 O.co2      1 MOL1        -0.6830
       3    O2      22.220036   18.702172   19.716236 O.co2      1 MOL1        -0.6830
       4    C2      20.186899   19.230071   20.784449 C.3        1 MOL1        -0.2050
       5    H1      19.209214   19.484282   20.357747 H          1 MOL1         0.0710
       6    H2      20.683557   20.172124   21.043262 H          1 MOL1         0.0710
       7    C3      20.005838   18.345225   22.045107 C.3        1 MOL1        -0.1947
       8    H3      19.586634   17.376574   21.739472 H          1 MOL1         0.0712
       9    H4      20.988688   18.132589   22.487940 H          1 MOL1         0.0712
      10    C4      19.078199   18.974025   23.110238 C.3        1 MOL1        -0.1921
      11    H5      18.916518   18.242450   23.913958 H          1 MOL1         0.0712
      12    H6      18.091542   19.175905   22.670767 H          1 MOL1         0.0712
      13    C5      19.647975   20.270514   23.724571 C.3        1 MOL1        -0.2936
      14    H7      19.720435   21.070263   22.976953 H          1 MOL1         0.0724
      15    H8      20.647604   20.099737   24.145077 H          1 MOL1         0.0724
      16    H9      18.998163   20.629655   24.533132 H          1 MOL1         0.0724
@<TRIPOS>BOND
    1     1     2    1
    2     1     3    2
    3     1     4    1
    4     4     5    1
    5     4     6    1
    6     4     7    1
    7     7     8    1
    8     7     9    1
    9     7    10    1
   10    10    11    1
   11    10    12    1
   12    10    13    1
   13    13    14    1
   14    13    15    1
   15    13    16    1
@<TRIPOS>SUBSTRUCTURE
       1 MOL1            1 RESIDUE      1      MOL     
@<SCITEGIC>MOL_PROPERTY
VConf Rank
SciTegic.value.IntegerValue
473

@<SCITEGIC>MOL_PROPERTY
Conf_Id
SciTegic.value.IntegerValue
36

@<SCITEGIC>MOL_PROPERTY
Delta U+W
SciTegic.value.DoubleValue
-0.427

@<SCITEGIC>MOL_PROPERTY
U+W
SciTegic.value.DoubleValue
-57.331

@<SCITEGIC>MOL_PROPERTY
Grad RMS
SciTegic.value.DoubleValue
0.000000

@<SCITEGIC>MOL_PROPERTY
U
SciTegic.value.DoubleValue
7.263

@<SCITEGIC>MOL_PROPERTY
W
SciTegic.value.DoubleValue
-64.594

@<SCITEGIC>MOL_PROPERTY
W(PB)
SciTegic.value.DoubleValue
-66.513

@<SCITEGIC>MOL_PROPERTY
W(SA)
SciTegic.value.DoubleValue
1.920

@<SCITEGIC>MOL_PROPERTY
Valence
SciTegic.value.DoubleValue
6.734

@<SCITEGIC>MOL_PROPERTY
Coulomb
SciTegic.value.DoubleValue
-0.068

@<SCITEGIC>MOL_PROPERTY
VdW
SciTegic.value.DoubleValue
0.598

@<SCITEGIC>MOL_PROPERTY
VdW6
SciTegic.value.DoubleValue
-4.819

@<SCITEGIC>MOL_PROPERTY
VdW12
SciTegic.value.DoubleValue
5.417

@<SCITEGIC>MOL_PROPERTY
Bond
SciTegic.value.DoubleValue
0.107

@<SCITEGIC>MOL_PROPERTY
Angle
SciTegic.value.DoubleValue
2.469

@<SCITEGIC>MOL_PROPERTY
Pdih
SciTegic.value.DoubleValue
4.157

@<SCITEGIC>MOL_PROPERTY
Idih
SciTegic.value.DoubleValue
0.001

@<SCITEGIC>MOL_PROPERTY
Tether
SciTegic.value.DoubleValue
0.000

@<TRIPOS>MOLECULE
guest-s18_confgen4.mol2 : confsearch ligand conformer 474
          16          15           1
SMALL
USER_CHARGES
 
@<TRIPOS>ATOM
       1    C1      20.856910   17.207180   23.459362 C.2        1 MOL1         0.6075
       2    O1      20.798841   17.489473   24.639572 O.co2      1 MOL1        -0.6830
       3    O2      21.562712   16.324275   23.014034 O.co2      1 MOL1        -0.6830
       4    C2      20.013710   18.017813   22.481374 C.3        1 MOL1        -0.2050
       5    H1      19.092671   18.311566   22.997624 H          1 MOL1         0.0710
       6    H2      19.726377   17.359583   21.652676 H          1 MOL1         0.0710
       7    C3      20.756365   19.266517   21.938974 C.3        1 MOL1        -0.1947
       8    H3      21.001206   19.938476   22.773141 H          1 MOL1         0.0712
       9    H4      21.714374   18.947200   21.505748 H          1 MOL1         0.0712
      10    C4      19.957733   20.038618   20.863589 C.3        1 MOL1        -0.1921
      11    H5      19.722929   19.369847   20.023950 H          1 MOL1         0.0712
      12    H6      20.593764   20.836799   20.456551 H          1 MOL1         0.0712
      13    C5      18.656422   20.667165   21.406221 C.3        1 MOL1        -0.2936
      14    H7      17.940436   19.897697   21.720970 H          1 MOL1         0.0724
      15    H8      18.171630   21.274699   20.631053 H          1 MOL1         0.0724
      16    H9      18.863208   21.318230   22.265642 H          1 MOL1         0.0724
@<TRIPOS>BOND
    1     1     2    1
    2     1     3    2
    3     1     4    1
    4     4     5    1
    5     4     6    1
    6     4     7    1
    7     7     8    1
    8     7     9    1
    9     7    10    1
   10    10    11    1
   11    10    12    1
   12    10    13    1
   13    13    14    1
   14    13    15    1
   15    13    16    1
@<TRIPOS>SUBSTRUCTURE
       1 MOL1            1 RESIDUE      1      MOL     
@<SCITEGIC>MOL_PROPERTY
VConf Rank
SciTegic.value.IntegerValue
474

@<SCITEGIC>MOL_PROPERTY
Conf_Id
SciTegic.value.IntegerValue
17

@<SCITEGIC>MOL_PROPERTY
Delta U+W
SciTegic.value.DoubleValue
-0.432

@<SCITEGIC>MOL_PROPERTY
U+W
SciTegic.value.DoubleValue
-57.336

@<SCITEGIC>MOL_PROPERTY
Grad RMS
SciTegic.value.DoubleValue
0.000000

@<SCITEGIC>MOL_PROPERTY
U
SciTegic.value.DoubleValue
7.263

@<SCITEGIC>MOL_PROPERTY
W
SciTegic.value.DoubleValue
-64.599

@<SCITEGIC>MOL_PROPERTY
W(PB)
SciTegic.value.DoubleValue
-66.503

@<SCITEGIC>MOL_PROPERTY
W(SA)
SciTegic.value.DoubleValue
1.904

@<SCITEGIC>MOL_PROPERTY
Valence
SciTegic.value.DoubleValue
6.734

@<SCITEGIC>MOL_PROPERTY
Coulomb
SciTegic.value.DoubleValue
-0.068

@<SCITEGIC>MOL_PROPERTY
VdW
SciTegic.value.DoubleValue
0.598

@<SCITEGIC>MOL_PROPERTY
VdW6
SciTegic.value.DoubleValue
-4.819

@<SCITEGIC>MOL_PROPERTY
VdW12
SciTegic.value.DoubleValue
5.417

@<SCITEGIC>MOL_PROPERTY
Bond
SciTegic.value.DoubleValue
0.107

@<SCITEGIC>MOL_PROPERTY
Angle
SciTegic.value.DoubleValue
2.469

@<SCITEGIC>MOL_PROPERTY
Pdih
SciTegic.value.DoubleValue
4.157

@<SCITEGIC>MOL_PROPERTY
Idih
SciTegic.value.DoubleValue
0.001

@<SCITEGIC>MOL_PROPERTY
Tether
SciTegic.value.DoubleValue
0.000

@<TRIPOS>MOLECULE
guest-s18_confgen4.mol2 : confsearch ligand conformer 475
          16          15           1
SMALL
USER_CHARGES
 
@<TRIPOS>ATOM
       1    C1      18.585380   20.902326   21.806047 C.2        1 MOL1         0.6075
       2    O1      18.837108   21.883457   22.477133 O.co2      1 MOL1        -0.6830
       3    O2      18.331237   20.948512   20.618807 O.co2      1 MOL1        -0.6830
       4    C2      18.564282   19.542505   22.498821 C.3        1 MOL1        -0.2050
       5    H1      17.998874   18.839789   21.874653 H          1 MOL1         0.0710
       6    H2      18.002731   19.658957   23.433344 H          1 MOL1         0.0710
       7    C3      19.971471   18.969354   22.809229 C.3        1 MOL1        -0.1947
       8    H3      20.536007   19.695630   23.410433 H          1 MOL1         0.0712
       9    H4      19.860727   18.066875   23.425530 H          1 MOL1         0.0712
      10    C4      20.764917   18.618756   21.531846 C.3        1 MOL1        -0.1921
      11    H5      20.899743   19.519313   20.916588 H          1 MOL1         0.0712
      12    H6      20.193670   17.902032   20.925744 H          1 MOL1         0.0712
      13    C5      22.144989   18.020268   21.868828 C.3        1 MOL1        -0.2936
      14    H7      22.749284   18.729786   22.449225 H          1 MOL1         0.0724
      15    H8      22.695763   17.777694   20.950719 H          1 MOL1         0.0724
      16    H9      22.040917   17.098027   22.455391 H          1 MOL1         0.0724
@<TRIPOS>BOND
    1     1     2    1
    2     1     3    2
    3     1     4    1
    4     4     5    1
    5     4     6    1
    6     4     7    1
    7     7     8    1
    8     7     9    1
    9     7    10    1
   10    10    11    1
   11    10    12    1
   12    10    13    1
   13    13    14    1
   14    13    15    1
   15    13    16    1
@<TRIPOS>SUBSTRUCTURE
       1 MOL1            1 RESIDUE      1      MOL     
@<SCITEGIC>MOL_PROPERTY
VConf Rank
SciTegic.value.IntegerValue
475

@<SCITEGIC>MOL_PROPERTY
Conf_Id
SciTegic.value.IntegerValue
19

@<SCITEGIC>MOL_PROPERTY
Delta U+W
SciTegic.value.DoubleValue
0.048

@<SCITEGIC>MOL_PROPERTY
U+W
SciTegic.value.DoubleValue
-56.856

@<SCITEGIC>MOL_PROPERTY
Grad RMS
SciTegic.value.DoubleValue
0.000000

@<SCITEGIC>MOL_PROPERTY
U
SciTegic.value.DoubleValue
8.276

@<SCITEGIC>MOL_PROPERTY
W
SciTegic.value.DoubleValue
-65.132

@<SCITEGIC>MOL_PROPERTY
W(PB)
SciTegic.value.DoubleValue
-67.031

@<SCITEGIC>MOL_PROPERTY
W(SA)
SciTegic.value.DoubleValue
1.899

@<SCITEGIC>MOL_PROPERTY
Valence
SciTegic.value.DoubleValue
6.513

@<SCITEGIC>MOL_PROPERTY
Coulomb
SciTegic.value.DoubleValue
1.428

@<SCITEGIC>MOL_PROPERTY
VdW
SciTegic.value.DoubleValue
0.335

@<SCITEGIC>MOL_PROPERTY
VdW6
SciTegic.value.DoubleValue
-5.021

@<SCITEGIC>MOL_PROPERTY
VdW12
SciTegic.value.DoubleValue
5.356

@<SCITEGIC>MOL_PROPERTY
Bond
SciTegic.value.DoubleValue
0.092

@<SCITEGIC>MOL_PROPERTY
Angle
SciTegic.value.DoubleValue
2.417

@<SCITEGIC>MOL_PROPERTY
Pdih
SciTegic.value.DoubleValue
4.003

@<SCITEGIC>MOL_PROPERTY
Idih
SciTegic.value.DoubleValue
0.001

@<SCITEGIC>MOL_PROPERTY
Tether
SciTegic.value.DoubleValue
0.000

@<TRIPOS>MOLECULE
guest-s18_confgen4.mol2 : confsearch ligand conformer 476
          16          15           1
SMALL
USER_CHARGES
 
@<TRIPOS>ATOM
       1    C1      21.583155   20.019084   23.475034 C.2        1 MOL1         0.6075
       2    O1      21.524400   19.625583   24.623097 O.co2      1 MOL1        -0.6830
       3    O2      21.716882   21.188169   23.172345 O.co2      1 MOL1        -0.6830
       4    C2      21.508263   18.984983   22.354979 C.3        1 MOL1        -0.2050
       5    H1      22.173342   18.157026   22.627730 H          1 MOL1         0.0710
       6    H2      21.915470   19.430189   21.438977 H          1 MOL1         0.0710
       7    C3      20.080901   18.437319   22.094698 C.3        1 MOL1        -0.1947
       8    H3      20.142858   17.607225   21.377994 H          1 MOL1         0.0712
       9    H4      19.675120   18.020590   23.027061 H          1 MOL1         0.0712
      10    C4      19.122683   19.515147   21.543068 C.3        1 MOL1        -0.1921
      11    H5      19.535721   19.939604   20.617533 H          1 MOL1         0.0712
      12    H6      19.036856   20.342132   22.261714 H          1 MOL1         0.0712
      13    C5      17.721704   18.936857   21.261664 C.3        1 MOL1        -0.2936
      14    H7      17.771527   18.129494   20.519305 H          1 MOL1         0.0724
      15    H8      17.053383   19.715406   20.871375 H          1 MOL1         0.0724
      16    H9      17.272535   18.532868   22.178446 H          1 MOL1         0.0724
@<TRIPOS>BOND
    1     1     2    1
    2     1     3    2
    3     1     4    1
    4     4     5    1
    5     4     6    1
    6     4     7    1
    7     7     8    1
    8     7     9    1
    9     7    10    1
   10    10    11    1
   11    10    12    1
   12    10    13    1
   13    13    14    1
   14    13    15    1
   15    13    16    1
@<TRIPOS>SUBSTRUCTURE
       1 MOL1            1 RESIDUE      1      MOL     
@<SCITEGIC>MOL_PROPERTY
VConf Rank
SciTegic.value.IntegerValue
476

@<SCITEGIC>MOL_PROPERTY
Conf_Id
SciTegic.value.IntegerValue
20

@<SCITEGIC>MOL_PROPERTY
Delta U+W
SciTegic.value.DoubleValue
-0.010

@<SCITEGIC>MOL_PROPERTY
U+W
SciTegic.value.DoubleValue
-56.914

@<SCITEGIC>MOL_PROPERTY
Grad RMS
SciTegic.value.DoubleValue
0.000000

@<SCITEGIC>MOL_PROPERTY
U
SciTegic.value.DoubleValue
8.277

@<SCITEGIC>MOL_PROPERTY
W
SciTegic.value.DoubleValue
-65.191

@<SCITEGIC>MOL_PROPERTY
W(PB)
SciTegic.value.DoubleValue
-67.081

@<SCITEGIC>MOL_PROPERTY
W(SA)
SciTegic.value.DoubleValue
1.890

@<SCITEGIC>MOL_PROPERTY
Valence
SciTegic.value.DoubleValue
6.513

@<SCITEGIC>MOL_PROPERTY
Coulomb
SciTegic.value.DoubleValue
1.429

@<SCITEGIC>MOL_PROPERTY
VdW
SciTegic.value.DoubleValue
0.335

@<SCITEGIC>MOL_PROPERTY
VdW6
SciTegic.value.DoubleValue
-5.021

@<SCITEGIC>MOL_PROPERTY
VdW12
SciTegic.value.DoubleValue
5.356

@<SCITEGIC>MOL_PROPERTY
Bond
SciTegic.value.DoubleValue
0.092

@<SCITEGIC>MOL_PROPERTY
Angle
SciTegic.value.DoubleValue
2.417

@<SCITEGIC>MOL_PROPERTY
Pdih
SciTegic.value.DoubleValue
4.002

@<SCITEGIC>MOL_PROPERTY
Idih
SciTegic.value.DoubleValue
0.001

@<SCITEGIC>MOL_PROPERTY
Tether
SciTegic.value.DoubleValue
0.000

@<TRIPOS>MOLECULE
guest-s18_confgen4.mol2 : confsearch ligand conformer 477
          16          15           1
SMALL
USER_CHARGES
 
@<TRIPOS>ATOM
       1    C1      20.453316   17.559663   20.867423 C.2        1 MOL1         0.6075
       2    O1      20.305388   16.386133   21.146222 O.co2      1 MOL1        -0.6830
       3    O2      21.482266   18.015085   20.408997 O.co2      1 MOL1        -0.6830
       4    C2      19.271000   18.502828   21.073128 C.3        1 MOL1        -0.2050
       5    H1      18.399956   18.042534   20.592199 H          1 MOL1         0.0710
       6    H2      19.466787   19.435764   20.532254 H          1 MOL1         0.0710
       7    C3      18.940381   18.792678   22.562878 C.3        1 MOL1        -0.1947
       8    H3      18.033715   19.410255   22.616990 H          1 MOL1         0.0712
       9    H4      18.697084   17.844098   23.061234 H          1 MOL1         0.0712
      10    C4      20.078767   19.490351   23.344747 C.3        1 MOL1        -0.1921
      11    H5      20.982511   18.865409   23.327622 H          1 MOL1         0.0712
      12    H6      19.781622   19.575222   24.399085 H          1 MOL1         0.0712
      13    C5      20.412927   20.897944   22.806731 C.3        1 MOL1        -0.2936
      14    H7      20.832183   20.847645   21.793724 H          1 MOL1         0.0724
      15    H8      21.156136   21.387630   23.449155 H          1 MOL1         0.0724
      16    H9      19.517561   21.532511   22.780072 H          1 MOL1         0.0724
@<TRIPOS>BOND
    1     1     2    1
    2     1     3    2
    3     1     4    1
    4     4     5    1
    5     4     6    1
    6     4     7    1
    7     7     8    1
    8     7     9    1
    9     7    10    1
   10    10    11    1
   11    10    12    1
   12    10    13    1
   13    13    14    1
   14    13    15    1
   15    13    16    1
@<TRIPOS>SUBSTRUCTURE
       1 MOL1            1 RESIDUE      1      MOL     
@<SCITEGIC>MOL_PROPERTY
VConf Rank
SciTegic.value.IntegerValue
477

@<SCITEGIC>MOL_PROPERTY
Conf_Id
SciTegic.value.IntegerValue
37

@<SCITEGIC>MOL_PROPERTY
Delta U+W
SciTegic.value.DoubleValue
1.063

@<SCITEGIC>MOL_PROPERTY
U+W
SciTegic.value.DoubleValue
-55.841

@<SCITEGIC>MOL_PROPERTY
Grad RMS
SciTegic.value.DoubleValue
0.000000

@<SCITEGIC>MOL_PROPERTY
U
SciTegic.value.DoubleValue
9.719

@<SCITEGIC>MOL_PROPERTY
W
SciTegic.value.DoubleValue
-65.560

@<SCITEGIC>MOL_PROPERTY
W(PB)
SciTegic.value.DoubleValue
-67.414

@<SCITEGIC>MOL_PROPERTY
W(SA)
SciTegic.value.DoubleValue
1.854

@<SCITEGIC>MOL_PROPERTY
Valence
SciTegic.value.DoubleValue
7.002

@<SCITEGIC>MOL_PROPERTY
Coulomb
SciTegic.value.DoubleValue
2.402

@<SCITEGIC>MOL_PROPERTY
VdW
SciTegic.value.DoubleValue
0.314

@<SCITEGIC>MOL_PROPERTY
VdW6
SciTegic.value.DoubleValue
-5.861

@<SCITEGIC>MOL_PROPERTY
VdW12
SciTegic.value.DoubleValue
6.175

@<SCITEGIC>MOL_PROPERTY
Bond
SciTegic.value.DoubleValue
0.134

@<SCITEGIC>MOL_PROPERTY
Angle
SciTegic.value.DoubleValue
2.733

@<SCITEGIC>MOL_PROPERTY
Pdih
SciTegic.value.DoubleValue
4.133

@<SCITEGIC>MOL_PROPERTY
Idih
SciTegic.value.DoubleValue
0.002

@<SCITEGIC>MOL_PROPERTY
Tether
SciTegic.value.DoubleValue
0.000

@<TRIPOS>MOLECULE
guest-s18_confgen4.mol2 : confsearch ligand conformer 478
          16          15           1
SMALL
USER_CHARGES
 
@<TRIPOS>ATOM
       1    C1      18.300737   19.044167   23.285103 C.2        1 MOL1         0.6075
       2    O1      18.233957   18.629656   24.425500 O.co2      1 MOL1        -0.6830
       3    O2      17.764097   20.068336   22.911745 O.co2      1 MOL1        -0.6830
       4    C2      19.071214   18.214290   22.261669 C.3        1 MOL1        -0.2050
       5    H1      18.811492   18.565514   21.256465 H          1 MOL1         0.0710
       6    H2      18.703509   17.184083   22.334800 H          1 MOL1         0.0710
       7    C3      20.611187   18.224441   22.464295 C.3        1 MOL1        -0.1947
       8    H3      20.838792   17.816830   23.458983 H          1 MOL1         0.0712
       9    H4      21.074395   17.542298   21.738699 H          1 MOL1         0.0712
      10    C4      21.262128   19.622238   22.336104 C.3        1 MOL1        -0.1921
      11    H5      22.330789   19.536732   22.576479 H          1 MOL1         0.0712
      12    H6      20.831421   20.305657   23.081106 H          1 MOL1         0.0712
      13    C5      21.116187   20.234727   20.926849 C.3        1 MOL1        -0.2936
      14    H7      21.507584   19.554716   20.159086 H          1 MOL1         0.0724
      15    H8      21.672902   21.178313   20.859220 H          1 MOL1         0.0724
      16    H9      20.065908   20.452150   20.694197 H          1 MOL1         0.0724
@<TRIPOS>BOND
    1     1     2    1
    2     1     3    2
    3     1     4    1
    4     4     5    1
    5     4     6    1
    6     4     7    1
    7     7     8    1
    8     7     9    1
    9     7    10    1
   10    10    11    1
   11    10    12    1
   12    10    13    1
   13    13    14    1
   14    13    15    1
   15    13    16    1
@<TRIPOS>SUBSTRUCTURE
       1 MOL1            1 RESIDUE      1      MOL     
@<SCITEGIC>MOL_PROPERTY
VConf Rank
SciTegic.value.IntegerValue
478

@<SCITEGIC>MOL_PROPERTY
Conf_Id
SciTegic.value.IntegerValue
39

@<SCITEGIC>MOL_PROPERTY
Delta U+W
SciTegic.value.DoubleValue
1.129

@<SCITEGIC>MOL_PROPERTY
U+W
SciTegic.value.DoubleValue
-55.775

@<SCITEGIC>MOL_PROPERTY
Grad RMS
SciTegic.value.DoubleValue
0.000000

@<SCITEGIC>MOL_PROPERTY
U
SciTegic.value.DoubleValue
9.718

@<SCITEGIC>MOL_PROPERTY
W
SciTegic.value.DoubleValue
-65.493

@<SCITEGIC>MOL_PROPERTY
W(PB)
SciTegic.value.DoubleValue
-67.361

@<SCITEGIC>MOL_PROPERTY
W(SA)
SciTegic.value.DoubleValue
1.869

@<SCITEGIC>MOL_PROPERTY
Valence
SciTegic.value.DoubleValue
7.002

@<SCITEGIC>MOL_PROPERTY
Coulomb
SciTegic.value.DoubleValue
2.402

@<SCITEGIC>MOL_PROPERTY
VdW
SciTegic.value.DoubleValue
0.314

@<SCITEGIC>MOL_PROPERTY
VdW6
SciTegic.value.DoubleValue
-5.861

@<SCITEGIC>MOL_PROPERTY
VdW12
SciTegic.value.DoubleValue
6.175

@<SCITEGIC>MOL_PROPERTY
Bond
SciTegic.value.DoubleValue
0.134

@<SCITEGIC>MOL_PROPERTY
Angle
SciTegic.value.DoubleValue
2.734

@<SCITEGIC>MOL_PROPERTY
Pdih
SciTegic.value.DoubleValue
4.133

@<SCITEGIC>MOL_PROPERTY
Idih
SciTegic.value.DoubleValue
0.002

@<SCITEGIC>MOL_PROPERTY
Tether
SciTegic.value.DoubleValue
0.000

@<TRIPOS>MOLECULE
guest-s18_confgen4.mol2 : confsearch ligand conformer 479
          16          15           1
SMALL
USER_CHARGES
 
@<TRIPOS>ATOM
       1    C1      21.106992   20.258766   23.333801 C.2        1 MOL1         0.6075
       2    O1      21.731023   19.619533   24.157686 O.co2      1 MOL1        -0.6830
       3    O2      20.515340   21.287973   23.594260 O.co2      1 MOL1        -0.6830
       4    C2      21.144329   19.791784   21.879776 C.3        1 MOL1        -0.2050
       5    H1      21.781013   18.901655   21.807090 H          1 MOL1         0.0710
       6    H2      21.647954   20.584119   21.313811 H          1 MOL1         0.0710
       7    C3      19.757031   19.514831   21.235039 C.3        1 MOL1        -0.1947
       8    H3      19.058306   20.324454   21.487697 H          1 MOL1         0.0712
       9    H4      19.877579   19.548650   20.143813 H          1 MOL1         0.0712
      10    C4      19.136387   18.144451   21.598937 C.3        1 MOL1        -0.1921
      11    H5      19.838692   17.338005   21.346661 H          1 MOL1         0.0712
      12    H6      18.248396   17.987682   20.971092 H          1 MOL1         0.0712
      13    C5      18.716391   18.022969   23.078508 C.3        1 MOL1        -0.2936
      14    H7      19.589848   18.007483   23.741706 H          1 MOL1         0.0724
      15    H8      18.159832   17.091572   23.244369 H          1 MOL1         0.0724
      16    H9      18.072174   18.860892   23.375493 H          1 MOL1         0.0724
@<TRIPOS>BOND
    1     1     2    1
    2     1     3    2
    3     1     4    1
    4     4     5    1
    5     4     6    1
    6     4     7    1
    7     7     8    1
    8     7     9    1
    9     7    10    1
   10    10    11    1
   11    10    12    1
   12    10    13    1
   13    13    14    1
   14    13    15    1
   15    13    16    1
@<TRIPOS>SUBSTRUCTURE
       1 MOL1            1 RESIDUE      1      MOL     
@<SCITEGIC>MOL_PROPERTY
VConf Rank
SciTegic.value.IntegerValue
479

@<SCITEGIC>MOL_PROPERTY
Conf_Id
SciTegic.value.IntegerValue
47

@<SCITEGIC>MOL_PROPERTY
Delta U+W
SciTegic.value.DoubleValue
2.301

@<SCITEGIC>MOL_PROPERTY
U+W
SciTegic.value.DoubleValue
-54.603

@<SCITEGIC>MOL_PROPERTY
Grad RMS
SciTegic.value.DoubleValue
0.000000

@<SCITEGIC>MOL_PROPERTY
U
SciTegic.value.DoubleValue
11.258

@<SCITEGIC>MOL_PROPERTY
W
SciTegic.value.DoubleValue
-65.861

@<SCITEGIC>MOL_PROPERTY
W(PB)
SciTegic.value.DoubleValue
-67.702

@<SCITEGIC>MOL_PROPERTY
W(SA)
SciTegic.value.DoubleValue
1.841

@<SCITEGIC>MOL_PROPERTY
Valence
SciTegic.value.DoubleValue
8.169

@<SCITEGIC>MOL_PROPERTY
Coulomb
SciTegic.value.DoubleValue
2.735

@<SCITEGIC>MOL_PROPERTY
VdW
SciTegic.value.DoubleValue
0.355

@<SCITEGIC>MOL_PROPERTY
VdW6
SciTegic.value.DoubleValue
-6.245

@<SCITEGIC>MOL_PROPERTY
VdW12
SciTegic.value.DoubleValue
6.600

@<SCITEGIC>MOL_PROPERTY
Bond
SciTegic.value.DoubleValue
0.149

@<SCITEGIC>MOL_PROPERTY
Angle
SciTegic.value.DoubleValue
3.168

@<SCITEGIC>MOL_PROPERTY
Pdih
SciTegic.value.DoubleValue
4.840

@<SCITEGIC>MOL_PROPERTY
Idih
SciTegic.value.DoubleValue
0.011

@<SCITEGIC>MOL_PROPERTY
Tether
SciTegic.value.DoubleValue
0.000

@<TRIPOS>MOLECULE
guest-s18_confgen4.mol2 : confsearch ligand conformer 480
          16          15           1
SMALL
USER_CHARGES
 
@<TRIPOS>ATOM
       1    C1      19.766661   17.120619   22.280266 C.2        1 MOL1         0.6075
       2    O1      18.628197   16.792137   22.009790 O.co2      1 MOL1        -0.6830
       3    O2      20.394712   16.652448   23.209344 O.co2      1 MOL1        -0.6830
       4    C2      20.477014   18.105124   21.353004 C.3        1 MOL1        -0.2050
       5    H1      20.524696   17.623457   20.369402 H          1 MOL1         0.0710
       6    H2      21.512849   18.230034   21.691268 H          1 MOL1         0.0710
       7    C3      19.789269   19.491334   21.203286 C.3        1 MOL1        -0.1947
       8    H3      20.157282   19.954086   20.277607 H          1 MOL1         0.0712
       9    H4      18.706940   19.359567   21.066385 H          1 MOL1         0.0712
      10    C4      20.061771   20.477630   22.364545 C.3        1 MOL1        -0.1921
      11    H5      19.667876   21.463765   22.082272 H          1 MOL1         0.0712
      12    H6      21.144726   20.605187   22.499341 H          1 MOL1         0.0712
      13    C5      19.417954   20.058996   23.702652 C.3        1 MOL1        -0.2936
      14    H7      19.525101   20.858526   24.446992 H          1 MOL1         0.0724
      15    H8      19.896246   19.161030   24.112401 H          1 MOL1         0.0724
      16    H9      18.346862   19.853078   23.577393 H          1 MOL1         0.0724
@<TRIPOS>BOND
    1     1     2    1
    2     1     3    2
    3     1     4    1
    4     4     5    1
    5     4     6    1
    6     4     7    1
    7     7     8    1
    8     7     9    1
    9     7    10    1
   10    10    11    1
   11    10    12    1
   12    10    13    1
   13    13    14    1
   14    13    15    1
   15    13    16    1
@<TRIPOS>SUBSTRUCTURE
       1 MOL1            1 RESIDUE      1      MOL     
@<SCITEGIC>MOL_PROPERTY
VConf Rank
SciTegic.value.IntegerValue
480

@<SCITEGIC>MOL_PROPERTY
Conf_Id
SciTegic.value.IntegerValue
45

@<SCITEGIC>MOL_PROPERTY
Delta U+W
SciTegic.value.DoubleValue
2.303

@<SCITEGIC>MOL_PROPERTY
U+W
SciTegic.value.DoubleValue
-54.601

@<SCITEGIC>MOL_PROPERTY
Grad RMS
SciTegic.value.DoubleValue
0.000000

@<SCITEGIC>MOL_PROPERTY
U
SciTegic.value.DoubleValue
11.258

@<SCITEGIC>MOL_PROPERTY
W
SciTegic.value.DoubleValue
-65.860

@<SCITEGIC>MOL_PROPERTY
W(PB)
SciTegic.value.DoubleValue
-67.709

@<SCITEGIC>MOL_PROPERTY
W(SA)
SciTegic.value.DoubleValue
1.849

@<SCITEGIC>MOL_PROPERTY
Valence
SciTegic.value.DoubleValue
8.169

@<SCITEGIC>MOL_PROPERTY
Coulomb
SciTegic.value.DoubleValue
2.735

@<SCITEGIC>MOL_PROPERTY
VdW
SciTegic.value.DoubleValue
0.355

@<SCITEGIC>MOL_PROPERTY
VdW6
SciTegic.value.DoubleValue
-6.245

@<SCITEGIC>MOL_PROPERTY
VdW12
SciTegic.value.DoubleValue
6.600

@<SCITEGIC>MOL_PROPERTY
Bond
SciTegic.value.DoubleValue
0.149

@<SCITEGIC>MOL_PROPERTY
Angle
SciTegic.value.DoubleValue
3.168

@<SCITEGIC>MOL_PROPERTY
Pdih
SciTegic.value.DoubleValue
4.840

@<SCITEGIC>MOL_PROPERTY
Idih
SciTegic.value.DoubleValue
0.011

@<SCITEGIC>MOL_PROPERTY
Tether
SciTegic.value.DoubleValue
0.000

@<TRIPOS>MOLECULE
guest-s18_confgen4.mol2 : confsearch ligand conformer 481
          16          15           1
SMALL
USER_CHARGES
 
@<TRIPOS>ATOM
       1    C1      21.937884   18.116207   23.614434 C.2        1 MOL1         0.6075
       2    O1      22.067982   17.075057   23.000546 O.co2      1 MOL1        -0.6830
       3    O2      22.576134   18.380013   24.613612 O.co2      1 MOL1        -0.6830
       4    C2      20.931859   19.162622   23.131917 C.3        1 MOL1        -0.2050
       5    H1      21.484893   20.093759   22.960746 H          1 MOL1         0.0710
       6    H2      20.234450   19.350869   23.956748 H          1 MOL1         0.0710
       7    C3      20.139603   18.781568   21.853060 C.3        1 MOL1        -0.1947
       8    H3      20.843728   18.588883   21.031750 H          1 MOL1         0.0712
       9    H4      19.591988   17.845241   22.028786 H          1 MOL1         0.0712
      10    C4      19.150573   19.891407   21.439133 C.3        1 MOL1        -0.1921
      11    H5      19.697186   20.827952   21.261374 H          1 MOL1         0.0712
      12    H6      18.444691   20.083875   22.259003 H          1 MOL1         0.0712
      13    C5      18.366848   19.507160   20.168594 C.3        1 MOL1        -0.2936
      14    H7      19.047114   19.339201   19.323314 H          1 MOL1         0.0724
      15    H8      17.668620   20.306531   19.888190 H          1 MOL1         0.0724
      16    H9      17.785375   18.589635   20.328298 H          1 MOL1         0.0724
@<TRIPOS>BOND
    1     1     2    1
    2     1     3    2
    3     1     4    1
    4     4     5    1
    5     4     6    1
    6     4     7    1
    7     7     8    1
    8     7     9    1
    9     7    10    1
   10    10    11    1
   11    10    12    1
   12    10    13    1
   13    13    14    1
   14    13    15    1
   15    13    16    1
@<TRIPOS>SUBSTRUCTURE
       1 MOL1            1 RESIDUE      1      MOL     
@<SCITEGIC>MOL_PROPERTY
VConf Rank
SciTegic.value.IntegerValue
481

@<SCITEGIC>MOL_PROPERTY
Conf_Id
SciTegic.value.IntegerValue
0

@<SCITEGIC>MOL_PROPERTY
Delta U+W
SciTegic.value.DoubleValue
0.000

@<SCITEGIC>MOL_PROPERTY
U+W
SciTegic.value.DoubleValue
-56.904

@<SCITEGIC>MOL_PROPERTY
Grad RMS
SciTegic.value.DoubleValue
0.000000

@<SCITEGIC>MOL_PROPERTY
U
SciTegic.value.DoubleValue
7.329

@<SCITEGIC>MOL_PROPERTY
W
SciTegic.value.DoubleValue
-64.233

@<SCITEGIC>MOL_PROPERTY
W(PB)
SciTegic.value.DoubleValue
-66.148

@<SCITEGIC>MOL_PROPERTY
W(SA)
SciTegic.value.DoubleValue
1.915

@<SCITEGIC>MOL_PROPERTY
Valence
SciTegic.value.DoubleValue
6.755

@<SCITEGIC>MOL_PROPERTY
Coulomb
SciTegic.value.DoubleValue
-0.421

@<SCITEGIC>MOL_PROPERTY
VdW
SciTegic.value.DoubleValue
0.995

@<SCITEGIC>MOL_PROPERTY
VdW6
SciTegic.value.DoubleValue
-4.495

@<SCITEGIC>MOL_PROPERTY
VdW12
SciTegic.value.DoubleValue
5.490

@<SCITEGIC>MOL_PROPERTY
Bond
SciTegic.value.DoubleValue
0.106

@<SCITEGIC>MOL_PROPERTY
Angle
SciTegic.value.DoubleValue
2.715

@<SCITEGIC>MOL_PROPERTY
Pdih
SciTegic.value.DoubleValue
3.934

@<SCITEGIC>MOL_PROPERTY
Idih
SciTegic.value.DoubleValue
0.000

@<SCITEGIC>MOL_PROPERTY
Tether
SciTegic.value.DoubleValue
0.000

@<TRIPOS>MOLECULE
guest-s18_confgen4.mol2 : confsearch ligand conformer 482
          16          15           1
SMALL
USER_CHARGES
 
@<TRIPOS>ATOM
       1    C1      17.581216   20.080585   22.661265 C.2        1 MOL1         0.6075
       2    O1      16.835128   19.254529   23.147912 O.co2      1 MOL1        -0.6830
       3    O2      17.560324   21.259651   22.953175 O.co2      1 MOL1        -0.6830
       4    C2      18.612167   19.608718   21.641920 C.3        1 MOL1        -0.2050
       5    H1      18.778885   20.421180   20.924311 H          1 MOL1         0.0710
       6    H2      18.181066   18.768010   21.084954 H          1 MOL1         0.0710
       7    C3      19.953028   19.186985   22.291762 C.3        1 MOL1        -0.1947
       8    H3      20.365755   20.035058   22.855658 H          1 MOL1         0.0712
       9    H4      19.767904   18.381855   23.016363 H          1 MOL1         0.0712
      10    C4      20.977503   18.714205   21.239388 C.3        1 MOL1        -0.1921
      11    H5      21.163413   19.519318   20.514978 H          1 MOL1         0.0712
      12    H6      20.565390   17.865706   20.675696 H          1 MOL1         0.0712
      13    C5      22.309336   18.296100   21.893231 C.3        1 MOL1        -0.2936
      14    H7      22.157471   17.470030   22.600349 H          1 MOL1         0.0724
      15    H8      22.759899   19.135851   22.438466 H          1 MOL1         0.0724
      16    H9      23.026259   17.962812   21.131594 H          1 MOL1         0.0724
@<TRIPOS>BOND
    1     1     2    1
    2     1     3    2
    3     1     4    1
    4     4     5    1
    5     4     6    1
    6     4     7    1
    7     7     8    1
    8     7     9    1
    9     7    10    1
   10    10    11    1
   11    10    12    1
   12    10    13    1
   13    13    14    1
   14    13    15    1
   15    13    16    1
@<TRIPOS>SUBSTRUCTURE
       1 MOL1            1 RESIDUE      1      MOL     
@<SCITEGIC>MOL_PROPERTY
VConf Rank
SciTegic.value.IntegerValue
482

@<SCITEGIC>MOL_PROPERTY
Conf_Id
SciTegic.value.IntegerValue
22

@<SCITEGIC>MOL_PROPERTY
Delta U+W
SciTegic.value.DoubleValue
-1.185

@<SCITEGIC>MOL_PROPERTY
U+W
SciTegic.value.DoubleValue
-58.089

@<SCITEGIC>MOL_PROPERTY
Grad RMS
SciTegic.value.DoubleValue
0.000000

@<SCITEGIC>MOL_PROPERTY
U
SciTegic.value.DoubleValue
6.298

@<SCITEGIC>MOL_PROPERTY
W
SciTegic.value.DoubleValue
-64.387

@<SCITEGIC>MOL_PROPERTY
W(PB)
SciTegic.value.DoubleValue
-66.329

@<SCITEGIC>MOL_PROPERTY
W(SA)
SciTegic.value.DoubleValue
1.942

@<SCITEGIC>MOL_PROPERTY
Valence
SciTegic.value.DoubleValue
6.246

@<SCITEGIC>MOL_PROPERTY
Coulomb
SciTegic.value.DoubleValue
-0.408

@<SCITEGIC>MOL_PROPERTY
VdW
SciTegic.value.DoubleValue
0.460

@<SCITEGIC>MOL_PROPERTY
VdW6
SciTegic.value.DoubleValue
-4.207

@<SCITEGIC>MOL_PROPERTY
VdW12
SciTegic.value.DoubleValue
4.667

@<SCITEGIC>MOL_PROPERTY
Bond
SciTegic.value.DoubleValue
0.072

@<SCITEGIC>MOL_PROPERTY
Angle
SciTegic.value.DoubleValue
2.246

@<SCITEGIC>MOL_PROPERTY
Pdih
SciTegic.value.DoubleValue
3.928

@<SCITEGIC>MOL_PROPERTY
Idih
SciTegic.value.DoubleValue
0.001

@<SCITEGIC>MOL_PROPERTY
Tether
SciTegic.value.DoubleValue
0.000

@<TRIPOS>MOLECULE
guest-s18_confgen4.mol2 : confsearch ligand conformer 483
          16          15           1
SMALL
USER_CHARGES
 
@<TRIPOS>ATOM
       1    C1      17.800890   19.316693   23.399269 C.2        1 MOL1         0.6075
       2    O1      16.980790   20.196494   23.227858 O.co2      1 MOL1        -0.6830
       3    O2      17.895932   18.678591   24.428711 O.co2      1 MOL1        -0.6830
       4    C2      18.776507   19.010854   22.268250 C.3        1 MOL1        -0.2050
       5    H1      18.264026   19.197101   21.316809 H          1 MOL1         0.0710
       6    H2      19.009632   17.940716   22.307925 H          1 MOL1         0.0710
       7    C3      20.074990   19.854825   22.349792 C.3        1 MOL1        -0.1947
       8    H3      19.802639   20.918380   22.395656 H          1 MOL1         0.0712
       9    H4      20.601222   19.628161   23.287348 H          1 MOL1         0.0712
      10    C4      21.026748   19.637099   21.150976 C.3        1 MOL1        -0.1921
      11    H5      21.862001   20.346645   21.229751 H          1 MOL1         0.0712
      12    H6      20.504278   19.875028   20.214069 H          1 MOL1         0.0712
      13    C5      21.596191   18.204132   21.078350 C.3        1 MOL1        -0.2936
      14    H7      20.805861   17.467965   20.885431 H          1 MOL1         0.0724
      15    H8      22.098730   17.933073   22.016024 H          1 MOL1         0.0724
      16    H9      22.330281   18.123814   20.266150 H          1 MOL1         0.0724
@<TRIPOS>BOND
    1     1     2    1
    2     1     3    2
    3     1     4    1
    4     4     5    1
    5     4     6    1
    6     4     7    1
    7     7     8    1
    8     7     9    1
    9     7    10    1
   10    10    11    1
   11    10    12    1
   12    10    13    1
   13    13    14    1
   14    13    15    1
   15    13    16    1
@<TRIPOS>SUBSTRUCTURE
       1 MOL1            1 RESIDUE      1      MOL     
@<SCITEGIC>MOL_PROPERTY
VConf Rank
SciTegic.value.IntegerValue
483

@<SCITEGIC>MOL_PROPERTY
Conf_Id
SciTegic.value.IntegerValue
36

@<SCITEGIC>MOL_PROPERTY
Delta U+W
SciTegic.value.DoubleValue
-0.427

@<SCITEGIC>MOL_PROPERTY
U+W
SciTegic.value.DoubleValue
-57.331

@<SCITEGIC>MOL_PROPERTY
Grad RMS
SciTegic.value.DoubleValue
0.000000

@<SCITEGIC>MOL_PROPERTY
U
SciTegic.value.DoubleValue
7.263

@<SCITEGIC>MOL_PROPERTY
W
SciTegic.value.DoubleValue
-64.594

@<SCITEGIC>MOL_PROPERTY
W(PB)
SciTegic.value.DoubleValue
-66.513

@<SCITEGIC>MOL_PROPERTY
W(SA)
SciTegic.value.DoubleValue
1.920

@<SCITEGIC>MOL_PROPERTY
Valence
SciTegic.value.DoubleValue
6.734

@<SCITEGIC>MOL_PROPERTY
Coulomb
SciTegic.value.DoubleValue
-0.068

@<SCITEGIC>MOL_PROPERTY
VdW
SciTegic.value.DoubleValue
0.598

@<SCITEGIC>MOL_PROPERTY
VdW6
SciTegic.value.DoubleValue
-4.819

@<SCITEGIC>MOL_PROPERTY
VdW12
SciTegic.value.DoubleValue
5.417

@<SCITEGIC>MOL_PROPERTY
Bond
SciTegic.value.DoubleValue
0.107

@<SCITEGIC>MOL_PROPERTY
Angle
SciTegic.value.DoubleValue
2.469

@<SCITEGIC>MOL_PROPERTY
Pdih
SciTegic.value.DoubleValue
4.157

@<SCITEGIC>MOL_PROPERTY
Idih
SciTegic.value.DoubleValue
0.001

@<SCITEGIC>MOL_PROPERTY
Tether
SciTegic.value.DoubleValue
0.000

@<TRIPOS>MOLECULE
guest-s18_confgen4.mol2 : confsearch ligand conformer 484
          16          15           1
SMALL
USER_CHARGES
 
@<TRIPOS>ATOM
       1    C1      19.193234   17.571667   20.081487 C.2        1 MOL1         0.6075
       2    O1      19.859738   16.556365   20.051625 O.co2      1 MOL1        -0.6830
       3    O2      18.526270   17.964876   19.145250 O.co2      1 MOL1        -0.6830
       4    C2      19.210288   18.408606   21.355777 C.3        1 MOL1        -0.2050
       5    H1      19.324253   17.724019   22.203993 H          1 MOL1         0.0710
       6    H2      18.231872   18.893186   21.458010 H          1 MOL1         0.0710
       7    C3      20.337175   19.474016   21.360167 C.3        1 MOL1        -0.1947
       8    H3      21.314054   18.974574   21.300369 H          1 MOL1         0.0712
       9    H4      20.246165   20.088105   20.453502 H          1 MOL1         0.0712
      10    C4      20.300568   20.403363   22.595231 C.3        1 MOL1        -0.1921
      11    H5      19.327953   20.911840   22.648623 H          1 MOL1         0.0712
      12    H6      21.056178   21.190755   22.467258 H          1 MOL1         0.0712
      13    C5      20.572919   19.663166   23.922207 C.3        1 MOL1        -0.2936
      14    H7      19.778043   18.941803   24.149341 H          1 MOL1         0.0724
      15    H8      20.622748   20.375791   24.755687 H          1 MOL1         0.0724
      16    H9      21.527831   19.123006   23.881954 H          1 MOL1         0.0724
@<TRIPOS>BOND
    1     1     2    1
    2     1     3    2
    3     1     4    1
    4     4     5    1
    5     4     6    1
    6     4     7    1
    7     7     8    1
    8     7     9    1
    9     7    10    1
   10    10    11    1
   11    10    12    1
   12    10    13    1
   13    13    14    1
   14    13    15    1
   15    13    16    1
@<TRIPOS>SUBSTRUCTURE
       1 MOL1            1 RESIDUE      1      MOL     
@<SCITEGIC>MOL_PROPERTY
VConf Rank
SciTegic.value.IntegerValue
484

@<SCITEGIC>MOL_PROPERTY
Conf_Id
SciTegic.value.IntegerValue
17

@<SCITEGIC>MOL_PROPERTY
Delta U+W
SciTegic.value.DoubleValue
-0.432

@<SCITEGIC>MOL_PROPERTY
U+W
SciTegic.value.DoubleValue
-57.336

@<SCITEGIC>MOL_PROPERTY
Grad RMS
SciTegic.value.DoubleValue
0.000000

@<SCITEGIC>MOL_PROPERTY
U
SciTegic.value.DoubleValue
7.263

@<SCITEGIC>MOL_PROPERTY
W
SciTegic.value.DoubleValue
-64.599

@<SCITEGIC>MOL_PROPERTY
W(PB)
SciTegic.value.DoubleValue
-66.503

@<SCITEGIC>MOL_PROPERTY
W(SA)
SciTegic.value.DoubleValue
1.904

@<SCITEGIC>MOL_PROPERTY
Valence
SciTegic.value.DoubleValue
6.734

@<SCITEGIC>MOL_PROPERTY
Coulomb
SciTegic.value.DoubleValue
-0.068

@<SCITEGIC>MOL_PROPERTY
VdW
SciTegic.value.DoubleValue
0.598

@<SCITEGIC>MOL_PROPERTY
VdW6
SciTegic.value.DoubleValue
-4.819

@<SCITEGIC>MOL_PROPERTY
VdW12
SciTegic.value.DoubleValue
5.417

@<SCITEGIC>MOL_PROPERTY
Bond
SciTegic.value.DoubleValue
0.107

@<SCITEGIC>MOL_PROPERTY
Angle
SciTegic.value.DoubleValue
2.469

@<SCITEGIC>MOL_PROPERTY
Pdih
SciTegic.value.DoubleValue
4.157

@<SCITEGIC>MOL_PROPERTY
Idih
SciTegic.value.DoubleValue
0.001

@<SCITEGIC>MOL_PROPERTY
Tether
SciTegic.value.DoubleValue
0.000

@<TRIPOS>MOLECULE
guest-s18_confgen4.mol2 : confsearch ligand conformer 485
          16          15           1
SMALL
USER_CHARGES
 
@<TRIPOS>ATOM
       1    C1      18.647507   18.278593   20.461189 C.2        1 MOL1         0.6075
       2    O1      18.868703   17.122266   20.160649 O.co2      1 MOL1        -0.6830
       3    O2      17.544087   18.697813   20.749250 O.co2      1 MOL1        -0.6830
       4    C2      19.815798   19.260688   20.452406 C.3        1 MOL1        -0.2050
       5    H1      19.416072   20.280536   20.395719 H          1 MOL1         0.0710
       6    H2      20.381067   19.090027   19.528512 H          1 MOL1         0.0710
       7    C3      20.764663   19.125154   21.671554 C.3        1 MOL1        -0.1947
       8    H3      21.134491   18.092109   21.732116 H          1 MOL1         0.0712
       9    H4      21.642315   19.766394   21.513132 H          1 MOL1         0.0712
      10    C4      20.082953   19.515325   23.000922 C.3        1 MOL1        -0.1921
      11    H5      19.214513   18.866193   23.180264 H          1 MOL1         0.0712
      12    H6      19.702758   20.544117   22.934474 H          1 MOL1         0.0712
      13    C5      21.056827   19.404189   24.190697 C.3        1 MOL1        -0.2936
      14    H7      21.428687   18.376819   24.298779 H          1 MOL1         0.0724
      15    H8      20.556702   19.683907   25.127046 H          1 MOL1         0.0724
      16    H9      21.919958   20.069153   24.055633 H          1 MOL1         0.0724
@<TRIPOS>BOND
    1     1     2    1
    2     1     3    2
    3     1     4    1
    4     4     5    1
    5     4     6    1
    6     4     7    1
    7     7     8    1
    8     7     9    1
    9     7    10    1
   10    10    11    1
   11    10    12    1
   12    10    13    1
   13    13    14    1
   14    13    15    1
   15    13    16    1
@<TRIPOS>SUBSTRUCTURE
       1 MOL1            1 RESIDUE      1      MOL     
@<SCITEGIC>MOL_PROPERTY
VConf Rank
SciTegic.value.IntegerValue
485

@<SCITEGIC>MOL_PROPERTY
Conf_Id
SciTegic.value.IntegerValue
19

@<SCITEGIC>MOL_PROPERTY
Delta U+W
SciTegic.value.DoubleValue
0.048

@<SCITEGIC>MOL_PROPERTY
U+W
SciTegic.value.DoubleValue
-56.856

@<SCITEGIC>MOL_PROPERTY
Grad RMS
SciTegic.value.DoubleValue
0.000000

@<SCITEGIC>MOL_PROPERTY
U
SciTegic.value.DoubleValue
8.276

@<SCITEGIC>MOL_PROPERTY
W
SciTegic.value.DoubleValue
-65.132

@<SCITEGIC>MOL_PROPERTY
W(PB)
SciTegic.value.DoubleValue
-67.031

@<SCITEGIC>MOL_PROPERTY
W(SA)
SciTegic.value.DoubleValue
1.899

@<SCITEGIC>MOL_PROPERTY
Valence
SciTegic.value.DoubleValue
6.513

@<SCITEGIC>MOL_PROPERTY
Coulomb
SciTegic.value.DoubleValue
1.428

@<SCITEGIC>MOL_PROPERTY
VdW
SciTegic.value.DoubleValue
0.335

@<SCITEGIC>MOL_PROPERTY
VdW6
SciTegic.value.DoubleValue
-5.021

@<SCITEGIC>MOL_PROPERTY
VdW12
SciTegic.value.DoubleValue
5.356

@<SCITEGIC>MOL_PROPERTY
Bond
SciTegic.value.DoubleValue
0.092

@<SCITEGIC>MOL_PROPERTY
Angle
SciTegic.value.DoubleValue
2.417

@<SCITEGIC>MOL_PROPERTY
Pdih
SciTegic.value.DoubleValue
4.003

@<SCITEGIC>MOL_PROPERTY
Idih
SciTegic.value.DoubleValue
0.001

@<SCITEGIC>MOL_PROPERTY
Tether
SciTegic.value.DoubleValue
0.000

@<TRIPOS>MOLECULE
guest-s18_confgen4.mol2 : confsearch ligand conformer 486
          16          15           1
SMALL
USER_CHARGES
 
@<TRIPOS>ATOM
       1    C1      17.963386   18.487082   23.329984 C.2        1 MOL1         0.6075
       2    O1      17.142344   19.370149   23.479739 O.co2      1 MOL1        -0.6830
       3    O2      18.374039   17.791587   24.237680 O.co2      1 MOL1        -0.6830
       4    C2      18.488244   18.223600   21.921226 C.3        1 MOL1        -0.2050
       5    H1      17.624690   18.214564   21.245631 H          1 MOL1         0.0710
       6    H2      18.924200   17.217532   21.891986 H          1 MOL1         0.0710
       7    C3      19.521321   19.268758   21.425804 C.3        1 MOL1        -0.1947
       8    H3      19.736100   19.082377   20.364818 H          1 MOL1         0.0712
       9    H4      19.080944   20.273682   21.487598 H          1 MOL1         0.0712
      10    C4      20.840566   19.225768   22.227012 C.3        1 MOL1        -0.1921
      11    H5      21.273333   18.217136   22.174563 H          1 MOL1         0.0712
      12    H6      20.640471   19.431321   23.287877 H          1 MOL1         0.0712
      13    C5      21.861107   20.250261   21.692913 C.3        1 MOL1        -0.2936
      14    H7      22.107314   20.048696   20.642119 H          1 MOL1         0.0724
      15    H8      22.791880   20.207350   22.273375 H          1 MOL1         0.0724
      16    H9      21.464859   21.271813   21.762695 H          1 MOL1         0.0724
@<TRIPOS>BOND
    1     1     2    1
    2     1     3    2
    3     1     4    1
    4     4     5    1
    5     4     6    1
    6     4     7    1
    7     7     8    1
    8     7     9    1
    9     7    10    1
   10    10    11    1
   11    10    12    1
   12    10    13    1
   13    13    14    1
   14    13    15    1
   15    13    16    1
@<TRIPOS>SUBSTRUCTURE
       1 MOL1            1 RESIDUE      1      MOL     
@<SCITEGIC>MOL_PROPERTY
VConf Rank
SciTegic.value.IntegerValue
486

@<SCITEGIC>MOL_PROPERTY
Conf_Id
SciTegic.value.IntegerValue
20

@<SCITEGIC>MOL_PROPERTY
Delta U+W
SciTegic.value.DoubleValue
-0.010

@<SCITEGIC>MOL_PROPERTY
U+W
SciTegic.value.DoubleValue
-56.914

@<SCITEGIC>MOL_PROPERTY
Grad RMS
SciTegic.value.DoubleValue
0.000000

@<SCITEGIC>MOL_PROPERTY
U
SciTegic.value.DoubleValue
8.277

@<SCITEGIC>MOL_PROPERTY
W
SciTegic.value.DoubleValue
-65.191

@<SCITEGIC>MOL_PROPERTY
W(PB)
SciTegic.value.DoubleValue
-67.081

@<SCITEGIC>MOL_PROPERTY
W(SA)
SciTegic.value.DoubleValue
1.890

@<SCITEGIC>MOL_PROPERTY
Valence
SciTegic.value.DoubleValue
6.513

@<SCITEGIC>MOL_PROPERTY
Coulomb
SciTegic.value.DoubleValue
1.429

@<SCITEGIC>MOL_PROPERTY
VdW
SciTegic.value.DoubleValue
0.335

@<SCITEGIC>MOL_PROPERTY
VdW6
SciTegic.value.DoubleValue
-5.021

@<SCITEGIC>MOL_PROPERTY
VdW12
SciTegic.value.DoubleValue
5.356

@<SCITEGIC>MOL_PROPERTY
Bond
SciTegic.value.DoubleValue
0.092

@<SCITEGIC>MOL_PROPERTY
Angle
SciTegic.value.DoubleValue
2.417

@<SCITEGIC>MOL_PROPERTY
Pdih
SciTegic.value.DoubleValue
4.002

@<SCITEGIC>MOL_PROPERTY
Idih
SciTegic.value.DoubleValue
0.001

@<SCITEGIC>MOL_PROPERTY
Tether
SciTegic.value.DoubleValue
0.000

@<TRIPOS>MOLECULE
guest-s18_confgen4.mol2 : confsearch ligand conformer 487
          16          15           1
SMALL
USER_CHARGES
 
@<TRIPOS>ATOM
       1    C1      21.343982   20.683761   21.843287 C.2        1 MOL1         0.6075
       2    O1      21.602324   21.133254   20.744196 O.co2      1 MOL1        -0.6830
       3    O2      22.191752   20.345247   22.645156 O.co2      1 MOL1        -0.6830
       4    C2      19.876608   20.571501   22.248202 C.3        1 MOL1        -0.2050
       5    H1      19.408698   21.542651   22.048678 H          1 MOL1         0.0710
       6    H2      19.821361   20.417601   23.331950 H          1 MOL1         0.0710
       7    C3      19.092696   19.460842   21.496805 C.3        1 MOL1        -0.1947
       8    H3      18.035144   19.505245   21.790034 H          1 MOL1         0.0712
       9    H4      19.122844   19.675058   20.419513 H          1 MOL1         0.0712
      10    C4      19.627655   18.028982   21.736773 C.3        1 MOL1        -0.1921
      11    H5      20.676126   17.962041   21.414554 H          1 MOL1         0.0712
      12    H6      19.064136   17.331253   21.102147 H          1 MOL1         0.0712
      13    C5      19.508040   17.572871   23.206501 C.3        1 MOL1        -0.2936
      14    H7      20.155512   18.168995   23.862172 H          1 MOL1         0.0724
      15    H8      19.810410   16.522567   23.307954 H          1 MOL1         0.0724
      16    H9      18.474314   17.663880   23.564540 H          1 MOL1         0.0724
@<TRIPOS>BOND
    1     1     2    1
    2     1     3    2
    3     1     4    1
    4     4     5    1
    5     4     6    1
    6     4     7    1
    7     7     8    1
    8     7     9    1
    9     7    10    1
   10    10    11    1
   11    10    12    1
   12    10    13    1
   13    13    14    1
   14    13    15    1
   15    13    16    1
@<TRIPOS>SUBSTRUCTURE
       1 MOL1            1 RESIDUE      1      MOL     
@<SCITEGIC>MOL_PROPERTY
VConf Rank
SciTegic.value.IntegerValue
487

@<SCITEGIC>MOL_PROPERTY
Conf_Id
SciTegic.value.IntegerValue
37

@<SCITEGIC>MOL_PROPERTY
Delta U+W
SciTegic.value.DoubleValue
1.063

@<SCITEGIC>MOL_PROPERTY
U+W
SciTegic.value.DoubleValue
-55.841

@<SCITEGIC>MOL_PROPERTY
Grad RMS
SciTegic.value.DoubleValue
0.000000

@<SCITEGIC>MOL_PROPERTY
U
SciTegic.value.DoubleValue
9.719

@<SCITEGIC>MOL_PROPERTY
W
SciTegic.value.DoubleValue
-65.560

@<SCITEGIC>MOL_PROPERTY
W(PB)
SciTegic.value.DoubleValue
-67.414

@<SCITEGIC>MOL_PROPERTY
W(SA)
SciTegic.value.DoubleValue
1.854

@<SCITEGIC>MOL_PROPERTY
Valence
SciTegic.value.DoubleValue
7.002

@<SCITEGIC>MOL_PROPERTY
Coulomb
SciTegic.value.DoubleValue
2.402

@<SCITEGIC>MOL_PROPERTY
VdW
SciTegic.value.DoubleValue
0.314

@<SCITEGIC>MOL_PROPERTY
VdW6
SciTegic.value.DoubleValue
-5.861

@<SCITEGIC>MOL_PROPERTY
VdW12
SciTegic.value.DoubleValue
6.175

@<SCITEGIC>MOL_PROPERTY
Bond
SciTegic.value.DoubleValue
0.134

@<SCITEGIC>MOL_PROPERTY
Angle
SciTegic.value.DoubleValue
2.733

@<SCITEGIC>MOL_PROPERTY
Pdih
SciTegic.value.DoubleValue
4.133

@<SCITEGIC>MOL_PROPERTY
Idih
SciTegic.value.DoubleValue
0.002

@<SCITEGIC>MOL_PROPERTY
Tether
SciTegic.value.DoubleValue
0.000

@<TRIPOS>MOLECULE
guest-s18_confgen4.mol2 : confsearch ligand conformer 488
          16          15           1
SMALL
USER_CHARGES
 
@<TRIPOS>ATOM
       1    C1      20.417027   19.278747   24.298947 C.2        1 MOL1         0.6075
       2    O1      19.511806   19.147320   25.099000 O.co2      1 MOL1        -0.6830
       3    O2      21.499340   18.739315   24.416898 O.co2      1 MOL1        -0.6830
       4    C2      20.191505   20.198213   23.101671 C.3        1 MOL1        -0.2050
       5    H1      21.161118   20.422274   22.642438 H          1 MOL1         0.0710
       6    H2      19.804975   21.148159   23.489069 H          1 MOL1         0.0710
       7    C3      19.202191   19.635149   22.044838 C.3        1 MOL1        -0.1947
       8    H3      18.227368   19.473096   22.525269 H          1 MOL1         0.0712
       9    H4      19.039224   20.391412   21.265172 H          1 MOL1         0.0712
      10    C4      19.659472   18.313069   21.383784 C.3        1 MOL1        -0.1921
      11    H5      18.860574   17.956662   20.719054 H          1 MOL1         0.0712
      12    H6      19.792537   17.537364   22.150708 H          1 MOL1         0.0712
      13    C5      20.959861   18.459742   20.565300 C.3        1 MOL1        -0.2936
      14    H7      20.865143   19.254463   19.813960 H          1 MOL1         0.0724
      15    H8      21.190585   17.523506   20.040811 H          1 MOL1         0.0724
      16    H9      21.813571   18.695658   21.213382 H          1 MOL1         0.0724
@<TRIPOS>BOND
    1     1     2    1
    2     1     3    2
    3     1     4    1
    4     4     5    1
    5     4     6    1
    6     4     7    1
    7     7     8    1
    8     7     9    1
    9     7    10    1
   10    10    11    1
   11    10    12    1
   12    10    13    1
   13    13    14    1
   14    13    15    1
   15    13    16    1
@<TRIPOS>SUBSTRUCTURE
       1 MOL1            1 RESIDUE      1      MOL     
@<SCITEGIC>MOL_PROPERTY
VConf Rank
SciTegic.value.IntegerValue
488

@<SCITEGIC>MOL_PROPERTY
Conf_Id
SciTegic.value.IntegerValue
39

@<SCITEGIC>MOL_PROPERTY
Delta U+W
SciTegic.value.DoubleValue
1.129

@<SCITEGIC>MOL_PROPERTY
U+W
SciTegic.value.DoubleValue
-55.775

@<SCITEGIC>MOL_PROPERTY
Grad RMS
SciTegic.value.DoubleValue
0.000000

@<SCITEGIC>MOL_PROPERTY
U
SciTegic.value.DoubleValue
9.718

@<SCITEGIC>MOL_PROPERTY
W
SciTegic.value.DoubleValue
-65.493

@<SCITEGIC>MOL_PROPERTY
W(PB)
SciTegic.value.DoubleValue
-67.361

@<SCITEGIC>MOL_PROPERTY
W(SA)
SciTegic.value.DoubleValue
1.869

@<SCITEGIC>MOL_PROPERTY
Valence
SciTegic.value.DoubleValue
7.002

@<SCITEGIC>MOL_PROPERTY
Coulomb
SciTegic.value.DoubleValue
2.402

@<SCITEGIC>MOL_PROPERTY
VdW
SciTegic.value.DoubleValue
0.314

@<SCITEGIC>MOL_PROPERTY
VdW6
SciTegic.value.DoubleValue
-5.861

@<SCITEGIC>MOL_PROPERTY
VdW12
SciTegic.value.DoubleValue
6.175

@<SCITEGIC>MOL_PROPERTY
Bond
SciTegic.value.DoubleValue
0.134

@<SCITEGIC>MOL_PROPERTY
Angle
SciTegic.value.DoubleValue
2.734

@<SCITEGIC>MOL_PROPERTY
Pdih
SciTegic.value.DoubleValue
4.133

@<SCITEGIC>MOL_PROPERTY
Idih
SciTegic.value.DoubleValue
0.002

@<SCITEGIC>MOL_PROPERTY
Tether
SciTegic.value.DoubleValue
0.000

@<TRIPOS>MOLECULE
guest-s18_confgen4.mol2 : confsearch ligand conformer 489
          16          15           1
SMALL
USER_CHARGES
 
@<TRIPOS>ATOM
       1    C1      20.278765   18.026484   20.618119 C.2        1 MOL1         0.6075
       2    O1      21.343216   18.346879   20.127088 O.co2      1 MOL1        -0.6830
       3    O2      19.250937   17.923711   19.977679 O.co2      1 MOL1        -0.6830
       4    C2      20.252420   17.646871   22.097598 C.3        1 MOL1        -0.2050
       5    H1      21.269289   17.718047   22.502432 H          1 MOL1         0.0710
       6    H2      19.971965   16.587948   22.139744 H          1 MOL1         0.0710
       7    C3      19.265228   18.465732   22.976178 C.3        1 MOL1        -0.1947
       8    H3      18.298724   18.562816   22.462384 H          1 MOL1         0.0712
       9    H4      19.065872   17.889014   23.889471 H          1 MOL1         0.0712
      10    C4      19.782807   19.860676   23.402564 C.3        1 MOL1        -0.1921
      11    H5      20.749967   19.759450   23.914019 H          1 MOL1         0.0712
      12    H6      19.085448   20.278850   24.141559 H          1 MOL1         0.0712
      13    C5      19.915214   20.860581   22.235112 C.3        1 MOL1        -0.2936
      14    H7      20.721249   20.570473   21.550170 H          1 MOL1         0.0724
      15    H8      20.149262   21.863923   22.613655 H          1 MOL1         0.0724
      16    H9      18.980926   20.923363   21.661969 H          1 MOL1         0.0724
@<TRIPOS>BOND
    1     1     2    1
    2     1     3    2
    3     1     4    1
    4     4     5    1
    5     4     6    1
    6     4     7    1
    7     7     8    1
    8     7     9    1
    9     7    10    1
   10    10    11    1
   11    10    12    1
   12    10    13    1
   13    13    14    1
   14    13    15    1
   15    13    16    1
@<TRIPOS>SUBSTRUCTURE
       1 MOL1            1 RESIDUE      1      MOL     
@<SCITEGIC>MOL_PROPERTY
VConf Rank
SciTegic.value.IntegerValue
489

@<SCITEGIC>MOL_PROPERTY
Conf_Id
SciTegic.value.IntegerValue
47

@<SCITEGIC>MOL_PROPERTY
Delta U+W
SciTegic.value.DoubleValue
2.301

@<SCITEGIC>MOL_PROPERTY
U+W
SciTegic.value.DoubleValue
-54.603

@<SCITEGIC>MOL_PROPERTY
Grad RMS
SciTegic.value.DoubleValue
0.000000

@<SCITEGIC>MOL_PROPERTY
U
SciTegic.value.DoubleValue
11.258

@<SCITEGIC>MOL_PROPERTY
W
SciTegic.value.DoubleValue
-65.861

@<SCITEGIC>MOL_PROPERTY
W(PB)
SciTegic.value.DoubleValue
-67.702

@<SCITEGIC>MOL_PROPERTY
W(SA)
SciTegic.value.DoubleValue
1.841

@<SCITEGIC>MOL_PROPERTY
Valence
SciTegic.value.DoubleValue
8.169

@<SCITEGIC>MOL_PROPERTY
Coulomb
SciTegic.value.DoubleValue
2.735

@<SCITEGIC>MOL_PROPERTY
VdW
SciTegic.value.DoubleValue
0.355

@<SCITEGIC>MOL_PROPERTY
VdW6
SciTegic.value.DoubleValue
-6.245

@<SCITEGIC>MOL_PROPERTY
VdW12
SciTegic.value.DoubleValue
6.600

@<SCITEGIC>MOL_PROPERTY
Bond
SciTegic.value.DoubleValue
0.149

@<SCITEGIC>MOL_PROPERTY
Angle
SciTegic.value.DoubleValue
3.168

@<SCITEGIC>MOL_PROPERTY
Pdih
SciTegic.value.DoubleValue
4.840

@<SCITEGIC>MOL_PROPERTY
Idih
SciTegic.value.DoubleValue
0.011

@<SCITEGIC>MOL_PROPERTY
Tether
SciTegic.value.DoubleValue
0.000

@<TRIPOS>MOLECULE
guest-s18_confgen4.mol2 : confsearch ligand conformer 490
          16          15           1
SMALL
USER_CHARGES
 
@<TRIPOS>ATOM
       1    C1      20.714779   17.418537   22.903511 C.2        1 MOL1         0.6075
       2    O1      20.040133   16.482956   22.520495 O.co2      1 MOL1        -0.6830
       3    O2      21.117322   17.529514   24.044765 O.co2      1 MOL1        -0.6830
       4    C2      21.155361   18.462327   21.878789 C.3        1 MOL1        -0.2050
       5    H1      21.764624   17.930523   21.138700 H          1 MOL1         0.0710
       6    H2      21.818284   19.185803   22.368782 H          1 MOL1         0.0710
       7    C3      20.001197   19.201533   21.144985 C.3        1 MOL1        -0.1947
       8    H3      20.407825   19.630080   20.218997 H          1 MOL1         0.0712
       9    H4      19.233125   18.480226   20.833022 H          1 MOL1         0.0712
      10    C4      19.353047   20.351947   21.952456 C.3        1 MOL1        -0.1921
      11    H5      18.670995   20.900882   21.288551 H          1 MOL1         0.0712
      12    H6      20.124336   21.069789   22.263979 H          1 MOL1         0.0712
      13    C5      18.557376   19.877119   23.186042 C.3        1 MOL1        -0.2936
      14    H7      18.008832   20.715175   23.634963 H          1 MOL1         0.0724
      15    H8      19.221874   19.467676   23.956625 H          1 MOL1         0.0724
      16    H9      17.829045   19.102929   22.911283 H          1 MOL1         0.0724
@<TRIPOS>BOND
    1     1     2    1
    2     1     3    2
    3     1     4    1
    4     4     5    1
    5     4     6    1
    6     4     7    1
    7     7     8    1
    8     7     9    1
    9     7    10    1
   10    10    11    1
   11    10    12    1
   12    10    13    1
   13    13    14    1
   14    13    15    1
   15    13    16    1
@<TRIPOS>SUBSTRUCTURE
       1 MOL1            1 RESIDUE      1      MOL     
@<SCITEGIC>MOL_PROPERTY
VConf Rank
SciTegic.value.IntegerValue
490

@<SCITEGIC>MOL_PROPERTY
Conf_Id
SciTegic.value.IntegerValue
45

@<SCITEGIC>MOL_PROPERTY
Delta U+W
SciTegic.value.DoubleValue
2.303

@<SCITEGIC>MOL_PROPERTY
U+W
SciTegic.value.DoubleValue
-54.601

@<SCITEGIC>MOL_PROPERTY
Grad RMS
SciTegic.value.DoubleValue
0.000000

@<SCITEGIC>MOL_PROPERTY
U
SciTegic.value.DoubleValue
11.258

@<SCITEGIC>MOL_PROPERTY
W
SciTegic.value.DoubleValue
-65.860

@<SCITEGIC>MOL_PROPERTY
W(PB)
SciTegic.value.DoubleValue
-67.709

@<SCITEGIC>MOL_PROPERTY
W(SA)
SciTegic.value.DoubleValue
1.849

@<SCITEGIC>MOL_PROPERTY
Valence
SciTegic.value.DoubleValue
8.169

@<SCITEGIC>MOL_PROPERTY
Coulomb
SciTegic.value.DoubleValue
2.735

@<SCITEGIC>MOL_PROPERTY
VdW
SciTegic.value.DoubleValue
0.355

@<SCITEGIC>MOL_PROPERTY
VdW6
SciTegic.value.DoubleValue
-6.245

@<SCITEGIC>MOL_PROPERTY
VdW12
SciTegic.value.DoubleValue
6.600

@<SCITEGIC>MOL_PROPERTY
Bond
SciTegic.value.DoubleValue
0.149

@<SCITEGIC>MOL_PROPERTY
Angle
SciTegic.value.DoubleValue
3.168

@<SCITEGIC>MOL_PROPERTY
Pdih
SciTegic.value.DoubleValue
4.840

@<SCITEGIC>MOL_PROPERTY
Idih
SciTegic.value.DoubleValue
0.011

@<SCITEGIC>MOL_PROPERTY
Tether
SciTegic.value.DoubleValue
0.000

@<TRIPOS>MOLECULE
guest-s18_confgen4.mol2 : confsearch ligand conformer 491
          16          15           1
SMALL
USER_CHARGES
 
@<TRIPOS>ATOM
       1    C1      18.627491   20.585750   23.823831 C.2        1 MOL1         0.6075
       2    O1      17.721200   20.889666   23.072799 O.co2      1 MOL1        -0.6830
       3    O2      18.674000   20.942513   24.983947 O.co2      1 MOL1        -0.6830
       4    C2      19.777385   19.715059   23.314386 C.3        1 MOL1        -0.2050
       5    H1      19.823170   18.826065   23.954506 H          1 MOL1         0.0710
       6    H2      20.706959   20.273924   23.474781 H          1 MOL1         0.0710
       7    C3      19.675364   19.284492   21.826922 C.3        1 MOL1        -0.1947
       8    H3      18.739648   18.729825   21.671200 H          1 MOL1         0.0712
       9    H4      19.624363   20.179173   21.190987 H          1 MOL1         0.0712
      10    C4      20.873621   18.411306   21.399153 C.3        1 MOL1        -0.1921
      11    H5      20.924728   17.515302   22.033239 H          1 MOL1         0.0712
      12    H6      21.809982   18.965508   21.552735 H          1 MOL1         0.0712
      13    C5      20.766594   17.986911   19.921122 C.3        1 MOL1        -0.2936
      14    H7      19.853428   17.403239   19.745268 H          1 MOL1         0.0724
      15    H8      21.625783   17.367104   19.633415 H          1 MOL1         0.0724
      16    H9      20.745213   18.864142   19.261215 H          1 MOL1         0.0724
@<TRIPOS>BOND
    1     1     2    1
    2     1     3    2
    3     1     4    1
    4     4     5    1
    5     4     6    1
    6     4     7    1
    7     7     8    1
    8     7     9    1
    9     7    10    1
   10    10    11    1
   11    10    12    1
   12    10    13    1
   13    13    14    1
   14    13    15    1
   15    13    16    1
@<TRIPOS>SUBSTRUCTURE
       1 MOL1            1 RESIDUE      1      MOL     
@<SCITEGIC>MOL_PROPERTY
VConf Rank
SciTegic.value.IntegerValue
491

@<SCITEGIC>MOL_PROPERTY
Conf_Id
SciTegic.value.IntegerValue
0

@<SCITEGIC>MOL_PROPERTY
Delta U+W
SciTegic.value.DoubleValue
0.000

@<SCITEGIC>MOL_PROPERTY
U+W
SciTegic.value.DoubleValue
-56.904

@<SCITEGIC>MOL_PROPERTY
Grad RMS
SciTegic.value.DoubleValue
0.000000

@<SCITEGIC>MOL_PROPERTY
U
SciTegic.value.DoubleValue
7.329

@<SCITEGIC>MOL_PROPERTY
W
SciTegic.value.DoubleValue
-64.233

@<SCITEGIC>MOL_PROPERTY
W(PB)
SciTegic.value.DoubleValue
-66.148

@<SCITEGIC>MOL_PROPERTY
W(SA)
SciTegic.value.DoubleValue
1.915

@<SCITEGIC>MOL_PROPERTY
Valence
SciTegic.value.DoubleValue
6.755

@<SCITEGIC>MOL_PROPERTY
Coulomb
SciTegic.value.DoubleValue
-0.421

@<SCITEGIC>MOL_PROPERTY
VdW
SciTegic.value.DoubleValue
0.995

@<SCITEGIC>MOL_PROPERTY
VdW6
SciTegic.value.DoubleValue
-4.495

@<SCITEGIC>MOL_PROPERTY
VdW12
SciTegic.value.DoubleValue
5.490

@<SCITEGIC>MOL_PROPERTY
Bond
SciTegic.value.DoubleValue
0.106

@<SCITEGIC>MOL_PROPERTY
Angle
SciTegic.value.DoubleValue
2.715

@<SCITEGIC>MOL_PROPERTY
Pdih
SciTegic.value.DoubleValue
3.934

@<SCITEGIC>MOL_PROPERTY
Idih
SciTegic.value.DoubleValue
0.000

@<SCITEGIC>MOL_PROPERTY
Tether
SciTegic.value.DoubleValue
0.000

@<TRIPOS>MOLECULE
guest-s18_confgen4.mol2 : confsearch ligand conformer 492
          16          15           1
SMALL
USER_CHARGES
 
@<TRIPOS>ATOM
       1    C1      17.939236   17.787748   23.075079 C.2        1 MOL1         0.6075
       2    O1      17.735871   18.056160   24.242315 O.co2      1 MOL1        -0.6830
       3    O2      17.064010   17.461803   22.298173 O.co2      1 MOL1        -0.6830
       4    C2      19.368279   17.882704   22.552200 C.3        1 MOL1        -0.2050
       5    H1      19.495156   17.127283   21.767286 H          1 MOL1         0.0710
       6    H2      20.049062   17.617424   23.370132 H          1 MOL1         0.0710
       7    C3      19.716707   19.287729   22.002142 C.3        1 MOL1        -0.1947
       8    H3      19.019020   19.544007   21.192757 H          1 MOL1         0.0712
       9    H4      19.572886   20.034188   22.795657 H          1 MOL1         0.0712
      10    C4      21.166941   19.356531   21.479984 C.3        1 MOL1        -0.1921
      11    H5      21.310973   18.610664   20.685958 H          1 MOL1         0.0712
      12    H6      21.864986   19.100932   22.289268 H          1 MOL1         0.0712
      13    C5      21.506636   20.757540   20.934198 C.3        1 MOL1        -0.2936
      14    H7      21.401174   21.520208   21.716940 H          1 MOL1         0.0724
      15    H8      20.843052   21.026328   20.101803 H          1 MOL1         0.0724
      16    H9      22.540754   20.789343   20.567130 H          1 MOL1         0.0724
@<TRIPOS>BOND
    1     1     2    1
    2     1     3    2
    3     1     4    1
    4     4     5    1
    5     4     6    1
    6     4     7    1
    7     7     8    1
    8     7     9    1
    9     7    10    1
   10    10    11    1
   11    10    12    1
   12    10    13    1
   13    13    14    1
   14    13    15    1
   15    13    16    1
@<TRIPOS>SUBSTRUCTURE
       1 MOL1            1 RESIDUE      1      MOL     
@<SCITEGIC>MOL_PROPERTY
VConf Rank
SciTegic.value.IntegerValue
492

@<SCITEGIC>MOL_PROPERTY
Conf_Id
SciTegic.value.IntegerValue
22

@<SCITEGIC>MOL_PROPERTY
Delta U+W
SciTegic.value.DoubleValue
-1.185

@<SCITEGIC>MOL_PROPERTY
U+W
SciTegic.value.DoubleValue
-58.089

@<SCITEGIC>MOL_PROPERTY
Grad RMS
SciTegic.value.DoubleValue
0.000000

@<SCITEGIC>MOL_PROPERTY
U
SciTegic.value.DoubleValue
6.298

@<SCITEGIC>MOL_PROPERTY
W
SciTegic.value.DoubleValue
-64.387

@<SCITEGIC>MOL_PROPERTY
W(PB)
SciTegic.value.DoubleValue
-66.329

@<SCITEGIC>MOL_PROPERTY
W(SA)
SciTegic.value.DoubleValue
1.942

@<SCITEGIC>MOL_PROPERTY
Valence
SciTegic.value.DoubleValue
6.246

@<SCITEGIC>MOL_PROPERTY
Coulomb
SciTegic.value.DoubleValue
-0.408

@<SCITEGIC>MOL_PROPERTY
VdW
SciTegic.value.DoubleValue
0.460

@<SCITEGIC>MOL_PROPERTY
VdW6
SciTegic.value.DoubleValue
-4.207

@<SCITEGIC>MOL_PROPERTY
VdW12
SciTegic.value.DoubleValue
4.667

@<SCITEGIC>MOL_PROPERTY
Bond
SciTegic.value.DoubleValue
0.072

@<SCITEGIC>MOL_PROPERTY
Angle
SciTegic.value.DoubleValue
2.246

@<SCITEGIC>MOL_PROPERTY
Pdih
SciTegic.value.DoubleValue
3.928

@<SCITEGIC>MOL_PROPERTY
Idih
SciTegic.value.DoubleValue
0.001

@<SCITEGIC>MOL_PROPERTY
Tether
SciTegic.value.DoubleValue
0.000

@<TRIPOS>MOLECULE
guest-s18_confgen4.mol2 : confsearch ligand conformer 493
          16          15           1
SMALL
USER_CHARGES
 
@<TRIPOS>ATOM
       1    C1      19.084457   21.020899   23.540735 C.2        1 MOL1         0.6075
       2    O1      18.780997   20.817223   24.699365 O.co2      1 MOL1        -0.6830
       3    O2      18.682227   21.970248   22.898160 O.co2      1 MOL1        -0.6830
       4    C2      20.003845   20.019757   22.850073 C.3        1 MOL1        -0.2050
       5    H1      20.688912   19.611170   23.602605 H          1 MOL1         0.0710
       6    H2      20.611026   20.570108   22.122363 H          1 MOL1         0.0710
       7    C3      19.227682   18.871322   22.154615 C.3        1 MOL1        -0.1947
       8    H3      18.564675   18.396506   22.891093 H          1 MOL1         0.0712
       9    H4      18.576628   19.288941   21.374210 H          1 MOL1         0.0712
      10    C4      20.147175   17.788957   21.543529 C.3        1 MOL1        -0.1921
      11    H5      19.523281   16.964698   21.171156 H          1 MOL1         0.0712
      12    H6      20.790136   17.362903   22.326126 H          1 MOL1         0.0712
      13    C5      21.019961   18.315499   20.384248 C.3        1 MOL1        -0.2936
      14    H7      21.741596   19.064370   20.733844 H          1 MOL1         0.0724
      15    H8      20.400013   18.772630   19.601979 H          1 MOL1         0.0724
      16    H9      21.588106   17.494340   19.928269 H          1 MOL1         0.0724
@<TRIPOS>BOND
    1     1     2    1
    2     1     3    2
    3     1     4    1
    4     4     5    1
    5     4     6    1
    6     4     7    1
    7     7     8    1
    8     7     9    1
    9     7    10    1
   10    10    11    1
   11    10    12    1
   12    10    13    1
   13    13    14    1
   14    13    15    1
   15    13    16    1
@<TRIPOS>SUBSTRUCTURE
       1 MOL1            1 RESIDUE      1      MOL     
@<SCITEGIC>MOL_PROPERTY
VConf Rank
SciTegic.value.IntegerValue
493

@<SCITEGIC>MOL_PROPERTY
Conf_Id
SciTegic.value.IntegerValue
36

@<SCITEGIC>MOL_PROPERTY
Delta U+W
SciTegic.value.DoubleValue
-0.427

@<SCITEGIC>MOL_PROPERTY
U+W
SciTegic.value.DoubleValue
-57.331

@<SCITEGIC>MOL_PROPERTY
Grad RMS
SciTegic.value.DoubleValue
0.000000

@<SCITEGIC>MOL_PROPERTY
U
SciTegic.value.DoubleValue
7.263

@<SCITEGIC>MOL_PROPERTY
W
SciTegic.value.DoubleValue
-64.594

@<SCITEGIC>MOL_PROPERTY
W(PB)
SciTegic.value.DoubleValue
-66.513

@<SCITEGIC>MOL_PROPERTY
W(SA)
SciTegic.value.DoubleValue
1.920

@<SCITEGIC>MOL_PROPERTY
Valence
SciTegic.value.DoubleValue
6.734

@<SCITEGIC>MOL_PROPERTY
Coulomb
SciTegic.value.DoubleValue
-0.068

@<SCITEGIC>MOL_PROPERTY
VdW
SciTegic.value.DoubleValue
0.598

@<SCITEGIC>MOL_PROPERTY
VdW6
SciTegic.value.DoubleValue
-4.819

@<SCITEGIC>MOL_PROPERTY
VdW12
SciTegic.value.DoubleValue
5.417

@<SCITEGIC>MOL_PROPERTY
Bond
SciTegic.value.DoubleValue
0.107

@<SCITEGIC>MOL_PROPERTY
Angle
SciTegic.value.DoubleValue
2.469

@<SCITEGIC>MOL_PROPERTY
Pdih
SciTegic.value.DoubleValue
4.157

@<SCITEGIC>MOL_PROPERTY
Idih
SciTegic.value.DoubleValue
0.001

@<SCITEGIC>MOL_PROPERTY
Tether
SciTegic.value.DoubleValue
0.000

@<TRIPOS>MOLECULE
guest-s18_confgen4.mol2 : confsearch ligand conformer 494
          16          15           1
SMALL
USER_CHARGES
 
@<TRIPOS>ATOM
       1    C1      17.636390   18.758526   20.924834 C.2        1 MOL1         0.6075
       2    O1      17.402939   17.573509   20.793714 O.co2      1 MOL1        -0.6830
       3    O2      17.048143   19.630167   20.316391 O.co2      1 MOL1        -0.6830
       4    C2      18.741043   19.173683   21.890215 C.3        1 MOL1        -0.2050
       5    H1      18.754703   18.450610   22.713681 H          1 MOL1         0.0710
       6    H2      18.472216   20.147499   22.316809 H          1 MOL1         0.0710
       7    C3      20.133395   19.253556   21.212005 C.3        1 MOL1        -0.1947
       8    H3      20.410594   18.262775   20.826230 H          1 MOL1         0.0712
       9    H4      20.063789   19.918260   20.339793 H          1 MOL1         0.0712
      10    C4      21.245191   19.778784   22.149264 C.3        1 MOL1        -0.1921
      11    H5      20.973591   20.774656   22.525898 H          1 MOL1         0.0712
      12    H6      22.167167   19.908134   21.565708 H          1 MOL1         0.0712
      13    C5      21.535872   18.836202   23.336688 C.3        1 MOL1        -0.2936
      14    H7      20.674659   18.765795   24.012808 H          1 MOL1         0.0724
      15    H8      22.387626   19.207253   23.921361 H          1 MOL1         0.0724
      16    H9      21.781969   17.825728   22.985079 H          1 MOL1         0.0724
@<TRIPOS>BOND
    1     1     2    1
    2     1     3    2
    3     1     4    1
    4     4     5    1
    5     4     6    1
    6     4     7    1
    7     7     8    1
    8     7     9    1
    9     7    10    1
   10    10    11    1
   11    10    12    1
   12    10    13    1
   13    13    14    1
   14    13    15    1
   15    13    16    1
@<TRIPOS>SUBSTRUCTURE
       1 MOL1            1 RESIDUE      1      MOL     
@<SCITEGIC>MOL_PROPERTY
VConf Rank
SciTegic.value.IntegerValue
494

@<SCITEGIC>MOL_PROPERTY
Conf_Id
SciTegic.value.IntegerValue
17

@<SCITEGIC>MOL_PROPERTY
Delta U+W
SciTegic.value.DoubleValue
-0.432

@<SCITEGIC>MOL_PROPERTY
U+W
SciTegic.value.DoubleValue
-57.336

@<SCITEGIC>MOL_PROPERTY
Grad RMS
SciTegic.value.DoubleValue
0.000000

@<SCITEGIC>MOL_PROPERTY
U
SciTegic.value.DoubleValue
7.263

@<SCITEGIC>MOL_PROPERTY
W
SciTegic.value.DoubleValue
-64.599

@<SCITEGIC>MOL_PROPERTY
W(PB)
SciTegic.value.DoubleValue
-66.503

@<SCITEGIC>MOL_PROPERTY
W(SA)
SciTegic.value.DoubleValue
1.904

@<SCITEGIC>MOL_PROPERTY
Valence
SciTegic.value.DoubleValue
6.734

@<SCITEGIC>MOL_PROPERTY
Coulomb
SciTegic.value.DoubleValue
-0.068

@<SCITEGIC>MOL_PROPERTY
VdW
SciTegic.value.DoubleValue
0.598

@<SCITEGIC>MOL_PROPERTY
VdW6
SciTegic.value.DoubleValue
-4.819

@<SCITEGIC>MOL_PROPERTY
VdW12
SciTegic.value.DoubleValue
5.417

@<SCITEGIC>MOL_PROPERTY
Bond
SciTegic.value.DoubleValue
0.107

@<SCITEGIC>MOL_PROPERTY
Angle
SciTegic.value.DoubleValue
2.469

@<SCITEGIC>MOL_PROPERTY
Pdih
SciTegic.value.DoubleValue
4.157

@<SCITEGIC>MOL_PROPERTY
Idih
SciTegic.value.DoubleValue
0.001

@<SCITEGIC>MOL_PROPERTY
Tether
SciTegic.value.DoubleValue
0.000

@<TRIPOS>MOLECULE
guest-s18_confgen4.mol2 : confsearch ligand conformer 495
          16          15           1
SMALL
USER_CHARGES
 
@<TRIPOS>ATOM
       1    C1      22.109462   20.443815   22.057527 C.2        1 MOL1         0.6075
       2    O1      22.673623   20.500507   23.132167 O.co2      1 MOL1        -0.6830
       3    O2      22.676459   20.183986   21.014807 O.co2      1 MOL1        -0.6830
       4    C2      20.612600   20.738772   22.013966 C.3        1 MOL1        -0.2050
       5    H1      20.334495   20.989292   20.982956 H          1 MOL1         0.0710
       6    H2      20.437566   21.637768   22.616795 H          1 MOL1         0.0710
       7    C3      19.724757   19.581750   22.541290 C.3        1 MOL1        -0.1947
       8    H3      20.033452   19.322706   23.563653 H          1 MOL1         0.0712
       9    H4      18.684984   19.930365   22.603728 H          1 MOL1         0.0712
      10    C4      19.787706   18.327821   21.642467 C.3        1 MOL1        -0.1921
      11    H5      20.821090   17.957700   21.589055 H          1 MOL1         0.0712
      12    H6      19.490746   18.591022   20.617813 H          1 MOL1         0.0712
      13    C5      18.871146   17.206277   22.170105 C.3        1 MOL1        -0.2936
      14    H7      19.166228   16.902293   23.183007 H          1 MOL1         0.0724
      15    H8      18.928276   16.322860   21.520930 H          1 MOL1         0.0724
      16    H9      17.824511   17.536348   22.202075 H          1 MOL1         0.0724
@<TRIPOS>BOND
    1     1     2    1
    2     1     3    2
    3     1     4    1
    4     4     5    1
    5     4     6    1
    6     4     7    1
    7     7     8    1
    8     7     9    1
    9     7    10    1
   10    10    11    1
   11    10    12    1
   12    10    13    1
   13    13    14    1
   14    13    15    1
   15    13    16    1
@<TRIPOS>SUBSTRUCTURE
       1 MOL1            1 RESIDUE      1      MOL     
@<SCITEGIC>MOL_PROPERTY
VConf Rank
SciTegic.value.IntegerValue
495

@<SCITEGIC>MOL_PROPERTY
Conf_Id
SciTegic.value.IntegerValue
19

@<SCITEGIC>MOL_PROPERTY
Delta U+W
SciTegic.value.DoubleValue
0.048

@<SCITEGIC>MOL_PROPERTY
U+W
SciTegic.value.DoubleValue
-56.856

@<SCITEGIC>MOL_PROPERTY
Grad RMS
SciTegic.value.DoubleValue
0.000000

@<SCITEGIC>MOL_PROPERTY
U
SciTegic.value.DoubleValue
8.276

@<SCITEGIC>MOL_PROPERTY
W
SciTegic.value.DoubleValue
-65.132

@<SCITEGIC>MOL_PROPERTY
W(PB)
SciTegic.value.DoubleValue
-67.031

@<SCITEGIC>MOL_PROPERTY
W(SA)
SciTegic.value.DoubleValue
1.899

@<SCITEGIC>MOL_PROPERTY
Valence
SciTegic.value.DoubleValue
6.513

@<SCITEGIC>MOL_PROPERTY
Coulomb
SciTegic.value.DoubleValue
1.428

@<SCITEGIC>MOL_PROPERTY
VdW
SciTegic.value.DoubleValue
0.335

@<SCITEGIC>MOL_PROPERTY
VdW6
SciTegic.value.DoubleValue
-5.021

@<SCITEGIC>MOL_PROPERTY
VdW12
SciTegic.value.DoubleValue
5.356

@<SCITEGIC>MOL_PROPERTY
Bond
SciTegic.value.DoubleValue
0.092

@<SCITEGIC>MOL_PROPERTY
Angle
SciTegic.value.DoubleValue
2.417

@<SCITEGIC>MOL_PROPERTY
Pdih
SciTegic.value.DoubleValue
4.003

@<SCITEGIC>MOL_PROPERTY
Idih
SciTegic.value.DoubleValue
0.001

@<SCITEGIC>MOL_PROPERTY
Tether
SciTegic.value.DoubleValue
0.000

@<TRIPOS>MOLECULE
guest-s18_confgen4.mol2 : confsearch ligand conformer 496
          16          15           1
SMALL
USER_CHARGES
 
@<TRIPOS>ATOM
       1    C1      19.077022   17.904234   23.935734 C.2        1 MOL1         0.6075
       2    O1      19.550670   18.252600   24.999050 O.co2      1 MOL1        -0.6830
       3    O2      19.031027   16.746950   23.568528 O.co2      1 MOL1        -0.6830
       4    C2      18.487590   18.977217   23.024265 C.3        1 MOL1        -0.2050
       5    H1      17.870381   19.634749   23.647916 H          1 MOL1         0.0710
       6    H2      17.812371   18.495376   22.306634 H          1 MOL1         0.0710
       7    C3      19.549575   19.822970   22.274643 C.3        1 MOL1        -0.1947
       8    H3      19.045773   20.650951   21.757738 H          1 MOL1         0.0712
       9    H4      20.235416   20.276007   23.004028 H          1 MOL1         0.0712
      10    C4      20.351330   18.994691   21.247350 C.3        1 MOL1        -0.1921
      11    H5      19.663290   18.532295   20.526122 H          1 MOL1         0.0712
      12    H6      20.876619   18.174680   21.756639 H          1 MOL1         0.0712
      13    C5      21.375598   19.865707   20.493321 C.3        1 MOL1        -0.2936
      14    H7      20.875558   20.675114   19.945384 H          1 MOL1         0.0724
      15    H8      21.937055   19.262065   19.768407 H          1 MOL1         0.0724
      16    H9      22.095524   20.316070   21.189260 H          1 MOL1         0.0724
@<TRIPOS>BOND
    1     1     2    1
    2     1     3    2
    3     1     4    1
    4     4     5    1
    5     4     6    1
    6     4     7    1
    7     7     8    1
    8     7     9    1
    9     7    10    1
   10    10    11    1
   11    10    12    1
   12    10    13    1
   13    13    14    1
   14    13    15    1
   15    13    16    1
@<TRIPOS>SUBSTRUCTURE
       1 MOL1            1 RESIDUE      1      MOL     
@<SCITEGIC>MOL_PROPERTY
VConf Rank
SciTegic.value.IntegerValue
496

@<SCITEGIC>MOL_PROPERTY
Conf_Id
SciTegic.value.IntegerValue
20

@<SCITEGIC>MOL_PROPERTY
Delta U+W
SciTegic.value.DoubleValue
-0.010

@<SCITEGIC>MOL_PROPERTY
U+W
SciTegic.value.DoubleValue
-56.914

@<SCITEGIC>MOL_PROPERTY
Grad RMS
SciTegic.value.DoubleValue
0.000000

@<SCITEGIC>MOL_PROPERTY
U
SciTegic.value.DoubleValue
8.277

@<SCITEGIC>MOL_PROPERTY
W
SciTegic.value.DoubleValue
-65.191

@<SCITEGIC>MOL_PROPERTY
W(PB)
SciTegic.value.DoubleValue
-67.081

@<SCITEGIC>MOL_PROPERTY
W(SA)
SciTegic.value.DoubleValue
1.890

@<SCITEGIC>MOL_PROPERTY
Valence
SciTegic.value.DoubleValue
6.513

@<SCITEGIC>MOL_PROPERTY
Coulomb
SciTegic.value.DoubleValue
1.429

@<SCITEGIC>MOL_PROPERTY
VdW
SciTegic.value.DoubleValue
0.335

@<SCITEGIC>MOL_PROPERTY
VdW6
SciTegic.value.DoubleValue
-5.021

@<SCITEGIC>MOL_PROPERTY
VdW12
SciTegic.value.DoubleValue
5.356

@<SCITEGIC>MOL_PROPERTY
Bond
SciTegic.value.DoubleValue
0.092

@<SCITEGIC>MOL_PROPERTY
Angle
SciTegic.value.DoubleValue
2.417

@<SCITEGIC>MOL_PROPERTY
Pdih
SciTegic.value.DoubleValue
4.002

@<SCITEGIC>MOL_PROPERTY
Idih
SciTegic.value.DoubleValue
0.001

@<SCITEGIC>MOL_PROPERTY
Tether
SciTegic.value.DoubleValue
0.000

@<TRIPOS>MOLECULE
guest-s18_confgen4.mol2 : confsearch ligand conformer 497
          16          15           1
SMALL
USER_CHARGES
 
@<TRIPOS>ATOM
       1    C1      19.415477   20.855646   20.928536 C.2        1 MOL1         0.6075
       2    O1      20.241026   21.396540   20.219531 O.co2      1 MOL1        -0.6830
       3    O2      18.649754   21.463845   21.649690 O.co2      1 MOL1        -0.6830
       4    C2      19.314446   19.333322   20.883066 C.3        1 MOL1        -0.2050
       5    H1      19.246591   19.043002   19.828082 H          1 MOL1         0.0710
       6    H2      18.370478   19.029173   21.349610 H          1 MOL1         0.0710
       7    C3      20.512927   18.596463   21.541366 C.3        1 MOL1        -0.1947
       8    H3      20.396455   17.514551   21.392122 H          1 MOL1         0.0712
       9    H4      21.434565   18.882394   21.015838 H          1 MOL1         0.0712
      10    C4      20.688204   18.885966   23.051153 C.3        1 MOL1        -0.1921
      11    H5      20.840639   19.962475   23.210807 H          1 MOL1         0.0712
      12    H6      21.603314   18.388943   23.401396 H          1 MOL1         0.0712
      13    C5      19.498867   18.399499   23.906296 C.3        1 MOL1        -0.2936
      14    H7      18.585058   18.960774   23.673034 H          1 MOL1         0.0724
      15    H8      19.711091   18.540542   24.973970 H          1 MOL1         0.0724
      16    H9      19.302707   17.332610   23.737964 H          1 MOL1         0.0724
@<TRIPOS>BOND
    1     1     2    1
    2     1     3    2
    3     1     4    1
    4     4     5    1
    5     4     6    1
    6     4     7    1
    7     7     8    1
    8     7     9    1
    9     7    10    1
   10    10    11    1
   11    10    12    1
   12    10    13    1
   13    13    14    1
   14    13    15    1
   15    13    16    1
@<TRIPOS>SUBSTRUCTURE
       1 MOL1            1 RESIDUE      1      MOL     
@<SCITEGIC>MOL_PROPERTY
VConf Rank
SciTegic.value.IntegerValue
497

@<SCITEGIC>MOL_PROPERTY
Conf_Id
SciTegic.value.IntegerValue
37

@<SCITEGIC>MOL_PROPERTY
Delta U+W
SciTegic.value.DoubleValue
1.063

@<SCITEGIC>MOL_PROPERTY
U+W
SciTegic.value.DoubleValue
-55.841

@<SCITEGIC>MOL_PROPERTY
Grad RMS
SciTegic.value.DoubleValue
0.000000

@<SCITEGIC>MOL_PROPERTY
U
SciTegic.value.DoubleValue
9.719

@<SCITEGIC>MOL_PROPERTY
W
SciTegic.value.DoubleValue
-65.560

@<SCITEGIC>MOL_PROPERTY
W(PB)
SciTegic.value.DoubleValue
-67.414

@<SCITEGIC>MOL_PROPERTY
W(SA)
SciTegic.value.DoubleValue
1.854

@<SCITEGIC>MOL_PROPERTY
Valence
SciTegic.value.DoubleValue
7.002

@<SCITEGIC>MOL_PROPERTY
Coulomb
SciTegic.value.DoubleValue
2.402

@<SCITEGIC>MOL_PROPERTY
VdW
SciTegic.value.DoubleValue
0.314

@<SCITEGIC>MOL_PROPERTY
VdW6
SciTegic.value.DoubleValue
-5.861

@<SCITEGIC>MOL_PROPERTY
VdW12
SciTegic.value.DoubleValue
6.175

@<SCITEGIC>MOL_PROPERTY
Bond
SciTegic.value.DoubleValue
0.134

@<SCITEGIC>MOL_PROPERTY
Angle
SciTegic.value.DoubleValue
2.733

@<SCITEGIC>MOL_PROPERTY
Pdih
SciTegic.value.DoubleValue
4.133

@<SCITEGIC>MOL_PROPERTY
Idih
SciTegic.value.DoubleValue
0.002

@<SCITEGIC>MOL_PROPERTY
Tether
SciTegic.value.DoubleValue
0.000

@<TRIPOS>MOLECULE
guest-s18_confgen4.mol2 : confsearch ligand conformer 498
          16          15           1
SMALL
USER_CHARGES
 
@<TRIPOS>ATOM
       1    C1      19.442894   17.348754   21.202720 C.2        1 MOL1         0.6075
       2    O1      18.694727   17.359946   20.245169 O.co2      1 MOL1        -0.6830
       3    O2      20.442188   16.660350   21.264467 O.co2      1 MOL1        -0.6830
       4    C2      19.087301   18.220530   22.404097 C.3        1 MOL1        -0.2050
       5    H1      19.686907   17.897784   23.262908 H          1 MOL1         0.0710
       6    H2      18.041891   18.011642   22.659767 H          1 MOL1         0.0710
       7    C3      19.259989   19.744350   22.157457 C.3        1 MOL1        -0.1947
       8    H3      18.605846   20.043611   21.326857 H          1 MOL1         0.0712
       9    H4      18.907510   20.294303   23.040452 H          1 MOL1         0.0712
      10    C4      20.709478   20.177700   21.833141 C.3        1 MOL1        -0.1921
      11    H5      20.711755   21.250303   21.595140 H          1 MOL1         0.0712
      12    H6      21.061979   19.659952   20.930214 H          1 MOL1         0.0712
      13    C5      21.694975   19.923026   22.993477 C.3        1 MOL1        -0.2936
      14    H7      21.346890   20.401091   23.918331 H          1 MOL1         0.0724
      15    H8      22.684822   20.331787   22.752689 H          1 MOL1         0.0724
      16    H9      21.817147   18.849022   23.183415 H          1 MOL1         0.0724
@<TRIPOS>BOND
    1     1     2    1
    2     1     3    2
    3     1     4    1
    4     4     5    1
    5     4     6    1
    6     4     7    1
    7     7     8    1
    8     7     9    1
    9     7    10    1
   10    10    11    1
   11    10    12    1
   12    10    13    1
   13    13    14    1
   14    13    15    1
   15    13    16    1
@<TRIPOS>SUBSTRUCTURE
       1 MOL1            1 RESIDUE      1      MOL     
@<SCITEGIC>MOL_PROPERTY
VConf Rank
SciTegic.value.IntegerValue
498

@<SCITEGIC>MOL_PROPERTY
Conf_Id
SciTegic.value.IntegerValue
39

@<SCITEGIC>MOL_PROPERTY
Delta U+W
SciTegic.value.DoubleValue
1.129

@<SCITEGIC>MOL_PROPERTY
U+W
SciTegic.value.DoubleValue
-55.775

@<SCITEGIC>MOL_PROPERTY
Grad RMS
SciTegic.value.DoubleValue
0.000000

@<SCITEGIC>MOL_PROPERTY
U
SciTegic.value.DoubleValue
9.718

@<SCITEGIC>MOL_PROPERTY
W
SciTegic.value.DoubleValue
-65.493

@<SCITEGIC>MOL_PROPERTY
W(PB)
SciTegic.value.DoubleValue
-67.361

@<SCITEGIC>MOL_PROPERTY
W(SA)
SciTegic.value.DoubleValue
1.869

@<SCITEGIC>MOL_PROPERTY
Valence
SciTegic.value.DoubleValue
7.002

@<SCITEGIC>MOL_PROPERTY
Coulomb
SciTegic.value.DoubleValue
2.402

@<SCITEGIC>MOL_PROPERTY
VdW
SciTegic.value.DoubleValue
0.314

@<SCITEGIC>MOL_PROPERTY
VdW6
SciTegic.value.DoubleValue
-5.861

@<SCITEGIC>MOL_PROPERTY
VdW12
SciTegic.value.DoubleValue
6.175

@<SCITEGIC>MOL_PROPERTY
Bond
SciTegic.value.DoubleValue
0.134

@<SCITEGIC>MOL_PROPERTY
Angle
SciTegic.value.DoubleValue
2.734

@<SCITEGIC>MOL_PROPERTY
Pdih
SciTegic.value.DoubleValue
4.133

@<SCITEGIC>MOL_PROPERTY
Idih
SciTegic.value.DoubleValue
0.002

@<SCITEGIC>MOL_PROPERTY
Tether
SciTegic.value.DoubleValue
0.000

@<TRIPOS>MOLECULE
guest-s18_confgen4.mol2 : confsearch ligand conformer 499
          16          15           1
SMALL
USER_CHARGES
 
@<TRIPOS>ATOM
       1    C1      20.542481   17.936533   23.772349 C.2        1 MOL1         0.6075
       2    O1      20.033423   16.833680   23.734985 O.co2      1 MOL1        -0.6830
       3    O2      20.597417   18.613783   24.780056 O.co2      1 MOL1        -0.6830
       4    C2      21.226922   18.457804   22.510021 C.3        1 MOL1        -0.2050
       5    H1      21.153928   17.696232   21.724108 H          1 MOL1         0.0710
       6    H2      22.291278   18.555347   22.753706 H          1 MOL1         0.0710
       7    C3      20.702041   19.823953   21.985503 C.3        1 MOL1        -0.1947
       8    H3      20.583797   20.526061   22.822523 H          1 MOL1         0.0712
       9    H4      21.473920   20.256313   21.334565 H          1 MOL1         0.0712
      10    C4      19.388759   19.742790   21.170479 C.3        1 MOL1        -0.1921
      11    H5      19.510483   19.038520   20.335962 H          1 MOL1         0.0712
      12    H6      19.199010   20.726296   20.718811 H          1 MOL1         0.0712
      13    C5      18.157094   19.344783   22.010050 C.3        1 MOL1        -0.2936
      14    H7      18.224056   18.303749   22.348816 H          1 MOL1         0.0724
      15    H8      17.239802   19.439517   21.414761 H          1 MOL1         0.0724
      16    H9      18.056876   19.989459   22.893045 H          1 MOL1         0.0724
@<TRIPOS>BOND
    1     1     2    1
    2     1     3    2
    3     1     4    1
    4     4     5    1
    5     4     6    1
    6     4     7    1
    7     7     8    1
    8     7     9    1
    9     7    10    1
   10    10    11    1
   11    10    12    1
   12    10    13    1
   13    13    14    1
   14    13    15    1
   15    13    16    1
@<TRIPOS>SUBSTRUCTURE
       1 MOL1            1 RESIDUE      1      MOL     
@<SCITEGIC>MOL_PROPERTY
VConf Rank
SciTegic.value.IntegerValue
499

@<SCITEGIC>MOL_PROPERTY
Conf_Id
SciTegic.value.IntegerValue
47

@<SCITEGIC>MOL_PROPERTY
Delta U+W
SciTegic.value.DoubleValue
2.301

@<SCITEGIC>MOL_PROPERTY
U+W
SciTegic.value.DoubleValue
-54.603

@<SCITEGIC>MOL_PROPERTY
Grad RMS
SciTegic.value.DoubleValue
0.000000

@<SCITEGIC>MOL_PROPERTY
U
SciTegic.value.DoubleValue
11.258

@<SCITEGIC>MOL_PROPERTY
W
SciTegic.value.DoubleValue
-65.861

@<SCITEGIC>MOL_PROPERTY
W(PB)
SciTegic.value.DoubleValue
-67.702

@<SCITEGIC>MOL_PROPERTY
W(SA)
SciTegic.value.DoubleValue
1.841

@<SCITEGIC>MOL_PROPERTY
Valence
SciTegic.value.DoubleValue
8.169

@<SCITEGIC>MOL_PROPERTY
Coulomb
SciTegic.value.DoubleValue
2.735

@<SCITEGIC>MOL_PROPERTY
VdW
SciTegic.value.DoubleValue
0.355

@<SCITEGIC>MOL_PROPERTY
VdW6
SciTegic.value.DoubleValue
-6.245

@<SCITEGIC>MOL_PROPERTY
VdW12
SciTegic.value.DoubleValue
6.600

@<SCITEGIC>MOL_PROPERTY
Bond
SciTegic.value.DoubleValue
0.149

@<SCITEGIC>MOL_PROPERTY
Angle
SciTegic.value.DoubleValue
3.168

@<SCITEGIC>MOL_PROPERTY
Pdih
SciTegic.value.DoubleValue
4.840

@<SCITEGIC>MOL_PROPERTY
Idih
SciTegic.value.DoubleValue
0.011

@<SCITEGIC>MOL_PROPERTY
Tether
SciTegic.value.DoubleValue
0.000

@<TRIPOS>MOLECULE
guest-s18_confgen4.mol2 : confsearch ligand conformer 500
          16          15           1
SMALL
USER_CHARGES
 
@<TRIPOS>ATOM
       1    C1      19.847777   18.428995   24.139661 C.2        1 MOL1         0.6075
       2    O1      20.983298   18.435984   24.572906 O.co2      1 MOL1        -0.6830
       3    O2      19.095711   17.480895   24.250665 O.co2      1 MOL1        -0.6830
       4    C2      19.306786   19.707805   23.502763 C.3        1 MOL1        -0.2050
       5    H1      19.329526   20.475756   24.284737 H          1 MOL1         0.0710
       6    H2      18.252172   19.557804   23.241481 H          1 MOL1         0.0710
       7    C3      20.099035   20.221571   22.267703 C.3        1 MOL1        -0.1947
       8    H3      19.862083   21.285422   22.131582 H          1 MOL1         0.0712
       9    H4      21.178271   20.175141   22.469283 H          1 MOL1         0.0712
      10    C4      19.774342   19.492426   20.941625 C.3        1 MOL1        -0.1921
      11    H5      20.261692   20.034040   20.119166 H          1 MOL1         0.0712
      12    H6      18.694420   19.539515   20.744697 H          1 MOL1         0.0712
      13    C5      20.244845   18.023535   20.905967 C.3        1 MOL1        -0.2936
      14    H7      20.115093   17.603147   19.900378 H          1 MOL1         0.0724
      15    H8      19.666428   17.401858   21.600194 H          1 MOL1         0.0724
      16    H9      21.306675   17.943125   21.173140 H          1 MOL1         0.0724
@<TRIPOS>BOND
    1     1     2    1
    2     1     3    2
    3     1     4    1
    4     4     5    1
    5     4     6    1
    6     4     7    1
    7     7     8    1
    8     7     9    1
    9     7    10    1
   10    10    11    1
   11    10    12    1
   12    10    13    1
   13    13    14    1
   14    13    15    1
   15    13    16    1
@<TRIPOS>SUBSTRUCTURE
       1 MOL1            1 RESIDUE      1      MOL     
@<SCITEGIC>MOL_PROPERTY
VConf Rank
SciTegic.value.IntegerValue
500

@<SCITEGIC>MOL_PROPERTY
Conf_Id
SciTegic.value.IntegerValue
45

@<SCITEGIC>MOL_PROPERTY
Delta U+W
SciTegic.value.DoubleValue
2.303

@<SCITEGIC>MOL_PROPERTY
U+W
SciTegic.value.DoubleValue
-54.601

@<SCITEGIC>MOL_PROPERTY
Grad RMS
SciTegic.value.DoubleValue
0.000000

@<SCITEGIC>MOL_PROPERTY
U
SciTegic.value.DoubleValue
11.258

@<SCITEGIC>MOL_PROPERTY
W
SciTegic.value.DoubleValue
-65.860

@<SCITEGIC>MOL_PROPERTY
W(PB)
SciTegic.value.DoubleValue
-67.709

@<SCITEGIC>MOL_PROPERTY
W(SA)
SciTegic.value.DoubleValue
1.849

@<SCITEGIC>MOL_PROPERTY
Valence
SciTegic.value.DoubleValue
8.169

@<SCITEGIC>MOL_PROPERTY
Coulomb
SciTegic.value.DoubleValue
2.735

@<SCITEGIC>MOL_PROPERTY
VdW
SciTegic.value.DoubleValue
0.355

@<SCITEGIC>MOL_PROPERTY
VdW6
SciTegic.value.DoubleValue
-6.245

@<SCITEGIC>MOL_PROPERTY
VdW12
SciTegic.value.DoubleValue
6.600

@<SCITEGIC>MOL_PROPERTY
Bond
SciTegic.value.DoubleValue
0.149

@<SCITEGIC>MOL_PROPERTY
Angle
SciTegic.value.DoubleValue
3.168

@<SCITEGIC>MOL_PROPERTY
Pdih
SciTegic.value.DoubleValue
4.840

@<SCITEGIC>MOL_PROPERTY
Idih
SciTegic.value.DoubleValue
0.011

@<SCITEGIC>MOL_PROPERTY
Tether
SciTegic.value.DoubleValue
0.000

@<TRIPOS>MOLECULE
guest-s18_confgen4.mol2 : confsearch ligand conformer 501
          16          15           1
SMALL
USER_CHARGES
 
@<TRIPOS>ATOM
       1    C1      19.529773   16.792326   20.524619 C.2        1 MOL1         0.6075
       2    O1      18.832177   17.325974   19.684168 O.co2      1 MOL1        -0.6830
       3    O2      19.782236   15.604244   20.518522 O.co2      1 MOL1        -0.6830
       4    C2      20.132026   17.628395   21.655182 C.3        1 MOL1        -0.2050
       5    H1      21.220101   17.499929   21.613339 H          1 MOL1         0.0710
       6    H2      19.793631   17.190802   22.601842 H          1 MOL1         0.0710
       7    C3      19.781624   19.139844   21.622202 C.3        1 MOL1        -0.1947
       8    H3      20.118140   19.571487   20.669358 H          1 MOL1         0.0712
       9    H4      18.690207   19.262037   21.658895 H          1 MOL1         0.0712
      10    C4      20.429215   19.904430   22.795783 C.3        1 MOL1        -0.1921
      11    H5      21.520902   19.784492   22.759239 H          1 MOL1         0.0712
      12    H6      20.092121   19.474865   23.749377 H          1 MOL1         0.0712
      13    C5      20.077597   21.404778   22.757564 C.3        1 MOL1        -0.2936
      14    H7      20.431434   21.867472   21.826874 H          1 MOL1         0.0724
      15    H8      20.545630   21.933339   23.598224 H          1 MOL1         0.0724
      16    H9      18.992113   21.555566   22.824318 H          1 MOL1         0.0724
@<TRIPOS>BOND
    1     1     2    1
    2     1     3    2
    3     1     4    1
    4     4     5    1
    5     4     6    1
    6     4     7    1
    7     7     8    1
    8     7     9    1
    9     7    10    1
   10    10    11    1
   11    10    12    1
   12    10    13    1
   13    13    14    1
   14    13    15    1
   15    13    16    1
@<TRIPOS>SUBSTRUCTURE
       1 MOL1            1 RESIDUE      1      MOL     
@<SCITEGIC>MOL_PROPERTY
VConf Rank
SciTegic.value.IntegerValue
501

@<SCITEGIC>MOL_PROPERTY
Conf_Id
SciTegic.value.IntegerValue
0

@<SCITEGIC>MOL_PROPERTY
Delta U+W
SciTegic.value.DoubleValue
0.000

@<SCITEGIC>MOL_PROPERTY
U+W
SciTegic.value.DoubleValue
-56.904

@<SCITEGIC>MOL_PROPERTY
Grad RMS
SciTegic.value.DoubleValue
0.000000

@<SCITEGIC>MOL_PROPERTY
U
SciTegic.value.DoubleValue
7.329

@<SCITEGIC>MOL_PROPERTY
W
SciTegic.value.DoubleValue
-64.233

@<SCITEGIC>MOL_PROPERTY
W(PB)
SciTegic.value.DoubleValue
-66.148

@<SCITEGIC>MOL_PROPERTY
W(SA)
SciTegic.value.DoubleValue
1.915

@<SCITEGIC>MOL_PROPERTY
Valence
SciTegic.value.DoubleValue
6.755

@<SCITEGIC>MOL_PROPERTY
Coulomb
SciTegic.value.DoubleValue
-0.421

@<SCITEGIC>MOL_PROPERTY
VdW
SciTegic.value.DoubleValue
0.995

@<SCITEGIC>MOL_PROPERTY
VdW6
SciTegic.value.DoubleValue
-4.495

@<SCITEGIC>MOL_PROPERTY
VdW12
SciTegic.value.DoubleValue
5.490

@<SCITEGIC>MOL_PROPERTY
Bond
SciTegic.value.DoubleValue
0.106

@<SCITEGIC>MOL_PROPERTY
Angle
SciTegic.value.DoubleValue
2.715

@<SCITEGIC>MOL_PROPERTY
Pdih
SciTegic.value.DoubleValue
3.934

@<SCITEGIC>MOL_PROPERTY
Idih
SciTegic.value.DoubleValue
0.000

@<SCITEGIC>MOL_PROPERTY
Tether
SciTegic.value.DoubleValue
0.000

@<TRIPOS>MOLECULE
guest-s18_confgen4.mol2 : confsearch ligand conformer 502
          16          15           1
SMALL
USER_CHARGES
 
@<TRIPOS>ATOM
       1    C1      19.665876   21.604702   20.861200 C.2        1 MOL1         0.6075
       2    O1      18.823714   21.658635   19.987303 O.co2      1 MOL1        -0.6830
       3    O2      19.918631   22.528350   21.608752 O.co2      1 MOL1        -0.6830
       4    C2      20.434916   20.300596   21.041385 C.3        1 MOL1        -0.2050
       5    H1      21.444134   20.545705   21.393876 H          1 MOL1         0.0710
       6    H2      20.541331   19.828618   20.057127 H          1 MOL1         0.0710
       7    C3      19.746522   19.326429   22.028893 C.3        1 MOL1        -0.1947
       8    H3      19.636026   19.817575   23.005682 H          1 MOL1         0.0712
       9    H4      18.733150   19.100504   21.668911 H          1 MOL1         0.0712
      10    C4      20.544415   18.016072   22.192888 C.3        1 MOL1        -0.1921
      11    H5      21.557654   18.241529   22.553519 H          1 MOL1         0.0712
      12    H6      20.654578   17.524289   21.216389 H          1 MOL1         0.0712
      13    C5      19.853486   17.051506   23.176926 C.3        1 MOL1        -0.2936
      14    H7      18.848602   16.784104   22.824540 H          1 MOL1         0.0724
      15    H8      19.758327   17.506652   24.171541 H          1 MOL1         0.0724
      16    H9      20.433382   16.125326   23.282091 H          1 MOL1         0.0724
@<TRIPOS>BOND
    1     1     2    1
    2     1     3    2
    3     1     4    1
    4     4     5    1
    5     4     6    1
    6     4     7    1
    7     7     8    1
    8     7     9    1
    9     7    10    1
   10    10    11    1
   11    10    12    1
   12    10    13    1
   13    13    14    1
   14    13    15    1
   15    13    16    1
@<TRIPOS>SUBSTRUCTURE
       1 MOL1            1 RESIDUE      1      MOL     
@<SCITEGIC>MOL_PROPERTY
VConf Rank
SciTegic.value.IntegerValue
502

@<SCITEGIC>MOL_PROPERTY
Conf_Id
SciTegic.value.IntegerValue
22

@<SCITEGIC>MOL_PROPERTY
Delta U+W
SciTegic.value.DoubleValue
-1.185

@<SCITEGIC>MOL_PROPERTY
U+W
SciTegic.value.DoubleValue
-58.089

@<SCITEGIC>MOL_PROPERTY
Grad RMS
SciTegic.value.DoubleValue
0.000000

@<SCITEGIC>MOL_PROPERTY
U
SciTegic.value.DoubleValue
6.298

@<SCITEGIC>MOL_PROPERTY
W
SciTegic.value.DoubleValue
-64.387

@<SCITEGIC>MOL_PROPERTY
W(PB)
SciTegic.value.DoubleValue
-66.329

@<SCITEGIC>MOL_PROPERTY
W(SA)
SciTegic.value.DoubleValue
1.942

@<SCITEGIC>MOL_PROPERTY
Valence
SciTegic.value.DoubleValue
6.246

@<SCITEGIC>MOL_PROPERTY
Coulomb
SciTegic.value.DoubleValue
-0.408

@<SCITEGIC>MOL_PROPERTY
VdW
SciTegic.value.DoubleValue
0.460

@<SCITEGIC>MOL_PROPERTY
VdW6
SciTegic.value.DoubleValue
-4.207

@<SCITEGIC>MOL_PROPERTY
VdW12
SciTegic.value.DoubleValue
4.667

@<SCITEGIC>MOL_PROPERTY
Bond
SciTegic.value.DoubleValue
0.072

@<SCITEGIC>MOL_PROPERTY
Angle
SciTegic.value.DoubleValue
2.246

@<SCITEGIC>MOL_PROPERTY
Pdih
SciTegic.value.DoubleValue
3.928

@<SCITEGIC>MOL_PROPERTY
Idih
SciTegic.value.DoubleValue
0.001

@<SCITEGIC>MOL_PROPERTY
Tether
SciTegic.value.DoubleValue
0.000

@<TRIPOS>MOLECULE
guest-s18_confgen4.mol2 : confsearch ligand conformer 503
          16          15           1
SMALL
USER_CHARGES
 
@<TRIPOS>ATOM
       1    C1      21.428345   19.929874   23.974123 C.2        1 MOL1         0.6075
       2    O1      22.642249   19.934335   23.925021 O.co2      1 MOL1        -0.6830
       3    O2      20.798325   19.926334   25.012882 O.co2      1 MOL1        -0.6830
       4    C2      20.654234   19.907195   22.660803 C.3        1 MOL1        -0.2050
       5    H1      21.237497   20.456739   21.912224 H          1 MOL1         0.0710
       6    H2      19.719697   20.458846   22.813901 H          1 MOL1         0.0710
       7    C3      20.362191   18.468847   22.159946 C.3        1 MOL1        -0.1947
       8    H3      21.310159   17.916381   22.100217 H          1 MOL1         0.0712
       9    H4      19.741812   17.942447   22.898418 H          1 MOL1         0.0712
      10    C4      19.674835   18.426939   20.775680 C.3        1 MOL1        -0.1921
      11    H5      19.604271   17.380557   20.447939 H          1 MOL1         0.0712
      12    H6      20.300676   18.943112   20.034553 H          1 MOL1         0.0712
      13    C5      18.259714   19.043663   20.779881 C.3        1 MOL1        -0.2936
      14    H7      18.291961   20.119684   20.991826 H          1 MOL1         0.0724
      15    H8      17.623625   18.562367   21.534199 H          1 MOL1         0.0724
      16    H9      17.781125   18.912250   19.800754 H          1 MOL1         0.0724
@<TRIPOS>BOND
    1     1     2    1
    2     1     3    2
    3     1     4    1
    4     4     5    1
    5     4     6    1
    6     4     7    1
    7     7     8    1
    8     7     9    1
    9     7    10    1
   10    10    11    1
   11    10    12    1
   12    10    13    1
   13    13    14    1
   14    13    15    1
   15    13    16    1
@<TRIPOS>SUBSTRUCTURE
       1 MOL1            1 RESIDUE      1      MOL     
@<SCITEGIC>MOL_PROPERTY
VConf Rank
SciTegic.value.IntegerValue
503

@<SCITEGIC>MOL_PROPERTY
Conf_Id
SciTegic.value.IntegerValue
36

@<SCITEGIC>MOL_PROPERTY
Delta U+W
SciTegic.value.DoubleValue
-0.427

@<SCITEGIC>MOL_PROPERTY
U+W
SciTegic.value.DoubleValue
-57.331

@<SCITEGIC>MOL_PROPERTY
Grad RMS
SciTegic.value.DoubleValue
0.000000

@<SCITEGIC>MOL_PROPERTY
U
SciTegic.value.DoubleValue
7.263

@<SCITEGIC>MOL_PROPERTY
W
SciTegic.value.DoubleValue
-64.594

@<SCITEGIC>MOL_PROPERTY
W(PB)
SciTegic.value.DoubleValue
-66.513

@<SCITEGIC>MOL_PROPERTY
W(SA)
SciTegic.value.DoubleValue
1.920

@<SCITEGIC>MOL_PROPERTY
Valence
SciTegic.value.DoubleValue
6.734

@<SCITEGIC>MOL_PROPERTY
Coulomb
SciTegic.value.DoubleValue
-0.068

@<SCITEGIC>MOL_PROPERTY
VdW
SciTegic.value.DoubleValue
0.598

@<SCITEGIC>MOL_PROPERTY
VdW6
SciTegic.value.DoubleValue
-4.819

@<SCITEGIC>MOL_PROPERTY
VdW12
SciTegic.value.DoubleValue
5.417

@<SCITEGIC>MOL_PROPERTY
Bond
SciTegic.value.DoubleValue
0.107

@<SCITEGIC>MOL_PROPERTY
Angle
SciTegic.value.DoubleValue
2.469

@<SCITEGIC>MOL_PROPERTY
Pdih
SciTegic.value.DoubleValue
4.157

@<SCITEGIC>MOL_PROPERTY
Idih
SciTegic.value.DoubleValue
0.001

@<SCITEGIC>MOL_PROPERTY
Tether
SciTegic.value.DoubleValue
0.000

@<TRIPOS>MOLECULE
guest-s18_confgen4.mol2 : confsearch ligand conformer 504
          16          15           1
SMALL
USER_CHARGES
 
@<TRIPOS>ATOM
       1    C1      19.048510   21.561492   22.057209 C.2        1 MOL1         0.6075
       2    O1      18.730721   21.879435   23.185872 O.co2      1 MOL1        -0.6830
       3    O2      18.654846   22.135985   21.061729 O.co2      1 MOL1        -0.6830
       4    C2      19.975577   20.364265   21.878971 C.3        1 MOL1        -0.2050
       5    H1      20.654625   20.336215   22.738753 H          1 MOL1         0.0710
       6    H2      20.588172   20.537916   20.986144 H          1 MOL1         0.0710
       7    C3      19.207411   19.023527   21.747305 C.3        1 MOL1        -0.1947
       8    H3      18.631155   18.839618   22.664592 H          1 MOL1         0.0712
       9    H4      18.474975   19.114594   20.933258 H          1 MOL1         0.0712
      10    C4      20.125693   17.814214   21.456222 C.3        1 MOL1        -0.1921
      11    H5      20.693409   17.992900   20.532561 H          1 MOL1         0.0712
      12    H6      19.498633   16.931442   21.269625 H          1 MOL1         0.0712
      13    C5      21.099716   17.497668   22.611215 C.3        1 MOL1        -0.2936
      14    H7      21.822835   18.309358   22.759673 H          1 MOL1         0.0724
      15    H8      21.666897   16.583058   22.394879 H          1 MOL1         0.0724
      16    H9      20.556114   17.343451   23.552472 H          1 MOL1         0.0724
@<TRIPOS>BOND
    1     1     2    1
    2     1     3    2
    3     1     4    1
    4     4     5    1
    5     4     6    1
    6     4     7    1
    7     7     8    1
    8     7     9    1
    9     7    10    1
   10    10    11    1
   11    10    12    1
   12    10    13    1
   13    13    14    1
   14    13    15    1
   15    13    16    1
@<TRIPOS>SUBSTRUCTURE
       1 MOL1            1 RESIDUE      1      MOL     
@<SCITEGIC>MOL_PROPERTY
VConf Rank
SciTegic.value.IntegerValue
504

@<SCITEGIC>MOL_PROPERTY
Conf_Id
SciTegic.value.IntegerValue
17

@<SCITEGIC>MOL_PROPERTY
Delta U+W
SciTegic.value.DoubleValue
-0.432

@<SCITEGIC>MOL_PROPERTY
U+W
SciTegic.value.DoubleValue
-57.336

@<SCITEGIC>MOL_PROPERTY
Grad RMS
SciTegic.value.DoubleValue
0.000000

@<SCITEGIC>MOL_PROPERTY
U
SciTegic.value.DoubleValue
7.263

@<SCITEGIC>MOL_PROPERTY
W
SciTegic.value.DoubleValue
-64.599

@<SCITEGIC>MOL_PROPERTY
W(PB)
SciTegic.value.DoubleValue
-66.503

@<SCITEGIC>MOL_PROPERTY
W(SA)
SciTegic.value.DoubleValue
1.904

@<SCITEGIC>MOL_PROPERTY
Valence
SciTegic.value.DoubleValue
6.734

@<SCITEGIC>MOL_PROPERTY
Coulomb
SciTegic.value.DoubleValue
-0.068

@<SCITEGIC>MOL_PROPERTY
VdW
SciTegic.value.DoubleValue
0.598

@<SCITEGIC>MOL_PROPERTY
VdW6
SciTegic.value.DoubleValue
-4.819

@<SCITEGIC>MOL_PROPERTY
VdW12
SciTegic.value.DoubleValue
5.417

@<SCITEGIC>MOL_PROPERTY
Bond
SciTegic.value.DoubleValue
0.107

@<SCITEGIC>MOL_PROPERTY
Angle
SciTegic.value.DoubleValue
2.469

@<SCITEGIC>MOL_PROPERTY
Pdih
SciTegic.value.DoubleValue
4.157

@<SCITEGIC>MOL_PROPERTY
Idih
SciTegic.value.DoubleValue
0.001

@<SCITEGIC>MOL_PROPERTY
Tether
SciTegic.value.DoubleValue
0.000

@<TRIPOS>MOLECULE
guest-s18_confgen4.mol2 : confsearch ligand conformer 505
          16          15           1
SMALL
USER_CHARGES
 
@<TRIPOS>ATOM
       1    C1      19.004308   21.178091   21.697709 C.2        1 MOL1         0.6075
       2    O1      18.366228   21.189439   20.663752 O.co2      1 MOL1        -0.6830
       3    O2      18.553084   21.532600   22.768682 O.co2      1 MOL1        -0.6830
       4    C2      20.457858   20.716011   21.641458 C.3        1 MOL1        -0.2050
       5    H1      20.977650   21.084410   22.534308 H          1 MOL1         0.0710
       6    H2      20.924649   21.205416   20.778427 H          1 MOL1         0.0710
       7    C3      20.628369   19.179454   21.519171 C.3        1 MOL1        -0.1947
       8    H3      20.079239   18.821150   20.637299 H          1 MOL1         0.0712
       9    H4      21.688721   18.951216   21.345623 H          1 MOL1         0.0712
      10    C4      20.145316   18.426330   22.777602 C.3        1 MOL1        -0.1921
      11    H5      19.079385   18.631088   22.949619 H          1 MOL1         0.0712
      12    H6      20.686401   18.794373   23.660295 H          1 MOL1         0.0712
      13    C5      20.357068   16.905309   22.643432 C.3        1 MOL1        -0.2936
      14    H7      19.800965   16.505897   21.785138 H          1 MOL1         0.0724
      15    H8      20.008046   16.385407   23.545099 H          1 MOL1         0.0724
      16    H9      21.419813   16.667090   22.504726 H          1 MOL1         0.0724
@<TRIPOS>BOND
    1     1     2    1
    2     1     3    2
    3     1     4    1
    4     4     5    1
    5     4     6    1
    6     4     7    1
    7     7     8    1
    8     7     9    1
    9     7    10    1
   10    10    11    1
   11    10    12    1
   12    10    13    1
   13    13    14    1
   14    13    15    1
   15    13    16    1
@<TRIPOS>SUBSTRUCTURE
       1 MOL1            1 RESIDUE      1      MOL     
@<SCITEGIC>MOL_PROPERTY
VConf Rank
SciTegic.value.IntegerValue
505

@<SCITEGIC>MOL_PROPERTY
Conf_Id
SciTegic.value.IntegerValue
19

@<SCITEGIC>MOL_PROPERTY
Delta U+W
SciTegic.value.DoubleValue
0.048

@<SCITEGIC>MOL_PROPERTY
U+W
SciTegic.value.DoubleValue
-56.856

@<SCITEGIC>MOL_PROPERTY
Grad RMS
SciTegic.value.DoubleValue
0.000000

@<SCITEGIC>MOL_PROPERTY
U
SciTegic.value.DoubleValue
8.276

@<SCITEGIC>MOL_PROPERTY
W
SciTegic.value.DoubleValue
-65.132

@<SCITEGIC>MOL_PROPERTY
W(PB)
SciTegic.value.DoubleValue
-67.031

@<SCITEGIC>MOL_PROPERTY
W(SA)
SciTegic.value.DoubleValue
1.899

@<SCITEGIC>MOL_PROPERTY
Valence
SciTegic.value.DoubleValue
6.513

@<SCITEGIC>MOL_PROPERTY
Coulomb
SciTegic.value.DoubleValue
1.428

@<SCITEGIC>MOL_PROPERTY
VdW
SciTegic.value.DoubleValue
0.335

@<SCITEGIC>MOL_PROPERTY
VdW6
SciTegic.value.DoubleValue
-5.021

@<SCITEGIC>MOL_PROPERTY
VdW12
SciTegic.value.DoubleValue
5.356

@<SCITEGIC>MOL_PROPERTY
Bond
SciTegic.value.DoubleValue
0.092

@<SCITEGIC>MOL_PROPERTY
Angle
SciTegic.value.DoubleValue
2.417

@<SCITEGIC>MOL_PROPERTY
Pdih
SciTegic.value.DoubleValue
4.003

@<SCITEGIC>MOL_PROPERTY
Idih
SciTegic.value.DoubleValue
0.001

@<SCITEGIC>MOL_PROPERTY
Tether
SciTegic.value.DoubleValue
0.000

@<TRIPOS>MOLECULE
guest-s18_confgen4.mol2 : confsearch ligand conformer 506
          16          15           1
SMALL
USER_CHARGES
 
@<TRIPOS>ATOM
       1    C1      18.821200   20.975308   23.198041 C.2        1 MOL1         0.6075
       2    O1      18.350185   20.679359   24.278273 O.co2      1 MOL1        -0.6830
       3    O2      18.212623   21.593267   22.347147 O.co2      1 MOL1        -0.6830
       4    C2      20.262818   20.568294   22.905507 C.3        1 MOL1        -0.2050
       5    H1      20.860454   20.818727   23.790013 H          1 MOL1         0.0710
       6    H2      20.641256   21.185984   22.081900 H          1 MOL1         0.0710
       7    C3      20.439554   19.064319   22.571041 C.3        1 MOL1        -0.1947
       8    H3      21.512388   18.835681   22.513495 H          1 MOL1         0.0712
       9    H4      20.030551   18.458302   23.391457 H          1 MOL1         0.0712
      10    C4      19.763014   18.668267   21.240768 C.3        1 MOL1        -0.1921
      11    H5      20.164034   19.283538   20.423454 H          1 MOL1         0.0712
      12    H6      18.684749   18.873754   21.294098 H          1 MOL1         0.0712
      13    C5      19.982388   17.177429   20.915764 C.3        1 MOL1        -0.2936
      14    H7      21.052133   16.948807   20.821989 H          1 MOL1         0.0724
      15    H8      19.494855   16.912471   19.968544 H          1 MOL1         0.0724
      16    H9      19.562595   16.538170   21.703528 H          1 MOL1         0.0724
@<TRIPOS>BOND
    1     1     2    1
    2     1     3    2
    3     1     4    1
    4     4     5    1
    5     4     6    1
    6     4     7    1
    7     7     8    1
    8     7     9    1
    9     7    10    1
   10    10    11    1
   11    10    12    1
   12    10    13    1
   13    13    14    1
   14    13    15    1
   15    13    16    1
@<TRIPOS>SUBSTRUCTURE
       1 MOL1            1 RESIDUE      1      MOL     
@<SCITEGIC>MOL_PROPERTY
VConf Rank
SciTegic.value.IntegerValue
506

@<SCITEGIC>MOL_PROPERTY
Conf_Id
SciTegic.value.IntegerValue
20

@<SCITEGIC>MOL_PROPERTY
Delta U+W
SciTegic.value.DoubleValue
-0.010

@<SCITEGIC>MOL_PROPERTY
U+W
SciTegic.value.DoubleValue
-56.914

@<SCITEGIC>MOL_PROPERTY
Grad RMS
SciTegic.value.DoubleValue
0.000000

@<SCITEGIC>MOL_PROPERTY
U
SciTegic.value.DoubleValue
8.277

@<SCITEGIC>MOL_PROPERTY
W
SciTegic.value.DoubleValue
-65.191

@<SCITEGIC>MOL_PROPERTY
W(PB)
SciTegic.value.DoubleValue
-67.081

@<SCITEGIC>MOL_PROPERTY
W(SA)
SciTegic.value.DoubleValue
1.890

@<SCITEGIC>MOL_PROPERTY
Valence
SciTegic.value.DoubleValue
6.513

@<SCITEGIC>MOL_PROPERTY
Coulomb
SciTegic.value.DoubleValue
1.429

@<SCITEGIC>MOL_PROPERTY
VdW
SciTegic.value.DoubleValue
0.335

@<SCITEGIC>MOL_PROPERTY
VdW6
SciTegic.value.DoubleValue
-5.021

@<SCITEGIC>MOL_PROPERTY
VdW12
SciTegic.value.DoubleValue
5.356

@<SCITEGIC>MOL_PROPERTY
Bond
SciTegic.value.DoubleValue
0.092

@<SCITEGIC>MOL_PROPERTY
Angle
SciTegic.value.DoubleValue
2.417

@<SCITEGIC>MOL_PROPERTY
Pdih
SciTegic.value.DoubleValue
4.002

@<SCITEGIC>MOL_PROPERTY
Idih
SciTegic.value.DoubleValue
0.001

@<SCITEGIC>MOL_PROPERTY
Tether
SciTegic.value.DoubleValue
0.000

@<TRIPOS>MOLECULE
guest-s18_confgen4.mol2 : confsearch ligand conformer 507
          16          15           1
SMALL
USER_CHARGES
 
@<TRIPOS>ATOM
       1    C1      18.351135   17.999288   23.162937 C.2        1 MOL1         0.6075
       2    O1      17.201527   17.934556   22.774354 O.co2      1 MOL1        -0.6830
       3    O2      18.656649   18.182097   24.324635 O.co2      1 MOL1        -0.6830
       4    C2      19.468236   17.806377   22.140873 C.3        1 MOL1        -0.2050
       5    H1      19.243409   16.890436   21.581959 H          1 MOL1         0.0710
       6    H2      20.406554   17.620590   22.675933 H          1 MOL1         0.0710
       7    C3      19.630294   18.987573   21.145287 C.3        1 MOL1        -0.1947
       8    H3      20.396691   18.729536   20.402035 H          1 MOL1         0.0712
       9    H4      18.690932   19.111305   20.588831 H          1 MOL1         0.0712
      10    C4      19.998943   20.335503   21.809496 C.3        1 MOL1        -0.1921
      11    H5      19.221384   20.622455   22.531063 H          1 MOL1         0.0712
      12    H6      20.008400   21.117652   21.037950 H          1 MOL1         0.0712
      13    C5      21.373210   20.312253   22.511843 C.3        1 MOL1        -0.2936
      14    H7      21.369287   19.630124   23.371594 H          1 MOL1         0.0724
      15    H8      21.631014   21.312426   22.883395 H          1 MOL1         0.0724
      16    H9      22.163936   19.993578   21.820276 H          1 MOL1         0.0724
@<TRIPOS>BOND
    1     1     2    1
    2     1     3    2
    3     1     4    1
    4     4     5    1
    5     4     6    1
    6     4     7    1
    7     7     8    1
    8     7     9    1
    9     7    10    1
   10    10    11    1
   11    10    12    1
   12    10    13    1
   13    13    14    1
   14    13    15    1
   15    13    16    1
@<TRIPOS>SUBSTRUCTURE
       1 MOL1            1 RESIDUE      1      MOL     
@<SCITEGIC>MOL_PROPERTY
VConf Rank
SciTegic.value.IntegerValue
507

@<SCITEGIC>MOL_PROPERTY
Conf_Id
SciTegic.value.IntegerValue
37

@<SCITEGIC>MOL_PROPERTY
Delta U+W
SciTegic.value.DoubleValue
1.063

@<SCITEGIC>MOL_PROPERTY
U+W
SciTegic.value.DoubleValue
-55.841

@<SCITEGIC>MOL_PROPERTY
Grad RMS
SciTegic.value.DoubleValue
0.000000

@<SCITEGIC>MOL_PROPERTY
U
SciTegic.value.DoubleValue
9.719

@<SCITEGIC>MOL_PROPERTY
W
SciTegic.value.DoubleValue
-65.560

@<SCITEGIC>MOL_PROPERTY
W(PB)
SciTegic.value.DoubleValue
-67.414

@<SCITEGIC>MOL_PROPERTY
W(SA)
SciTegic.value.DoubleValue
1.854

@<SCITEGIC>MOL_PROPERTY
Valence
SciTegic.value.DoubleValue
7.002

@<SCITEGIC>MOL_PROPERTY
Coulomb
SciTegic.value.DoubleValue
2.402

@<SCITEGIC>MOL_PROPERTY
VdW
SciTegic.value.DoubleValue
0.314

@<SCITEGIC>MOL_PROPERTY
VdW6
SciTegic.value.DoubleValue
-5.861

@<SCITEGIC>MOL_PROPERTY
VdW12
SciTegic.value.DoubleValue
6.175

@<SCITEGIC>MOL_PROPERTY
Bond
SciTegic.value.DoubleValue
0.134

@<SCITEGIC>MOL_PROPERTY
Angle
SciTegic.value.DoubleValue
2.733

@<SCITEGIC>MOL_PROPERTY
Pdih
SciTegic.value.DoubleValue
4.133

@<SCITEGIC>MOL_PROPERTY
Idih
SciTegic.value.DoubleValue
0.002

@<SCITEGIC>MOL_PROPERTY
Tether
SciTegic.value.DoubleValue
0.000

@<TRIPOS>MOLECULE
guest-s18_confgen4.mol2 : confsearch ligand conformer 508
          16          15           1
SMALL
USER_CHARGES
 
@<TRIPOS>ATOM
       1    C1      21.296950   19.198137   23.981175 C.2        1 MOL1         0.6075
       2    O1      22.504596   19.064105   24.001416 O.co2      1 MOL1        -0.6830
       3    O2      20.708880   20.068458   24.591926 O.co2      1 MOL1        -0.6830
       4    C2      20.475258   18.197657   23.172713 C.3        1 MOL1        -0.2050
       5    H1      19.424225   18.282326   23.471724 H          1 MOL1         0.0710
       6    H2      20.801887   17.193816   23.468513 H          1 MOL1         0.0710
       7    C3      20.620806   18.351329   21.633921 C.3        1 MOL1        -0.1947
       8    H3      21.675999   18.207511   21.363296 H          1 MOL1         0.0712
       9    H4      20.063080   17.545969   21.137224 H          1 MOL1         0.0712
      10    C4      20.144687   19.715879   21.081376 C.3        1 MOL1        -0.1921
      11    H5      20.364479   19.756601   20.005662 H          1 MOL1         0.0712
      12    H6      20.719923   20.529117   21.545428 H          1 MOL1         0.0712
      13    C5      18.635827   19.964502   21.291070 C.3        1 MOL1        -0.2936
      14    H7      18.038927   19.146702   20.866829 H          1 MOL1         0.0724
      15    H8      18.329063   20.897428   20.800760 H          1 MOL1         0.0724
      16    H9      18.391712   20.054613   22.357266 H          1 MOL1         0.0724
@<TRIPOS>BOND
    1     1     2    1
    2     1     3    2
    3     1     4    1
    4     4     5    1
    5     4     6    1
    6     4     7    1
    7     7     8    1
    8     7     9    1
    9     7    10    1
   10    10    11    1
   11    10    12    1
   12    10    13    1
   13    13    14    1
   14    13    15    1
   15    13    16    1
@<TRIPOS>SUBSTRUCTURE
       1 MOL1            1 RESIDUE      1      MOL     
@<SCITEGIC>MOL_PROPERTY
VConf Rank
SciTegic.value.IntegerValue
508

@<SCITEGIC>MOL_PROPERTY
Conf_Id
SciTegic.value.IntegerValue
39

@<SCITEGIC>MOL_PROPERTY
Delta U+W
SciTegic.value.DoubleValue
1.129

@<SCITEGIC>MOL_PROPERTY
U+W
SciTegic.value.DoubleValue
-55.775

@<SCITEGIC>MOL_PROPERTY
Grad RMS
SciTegic.value.DoubleValue
0.000000

@<SCITEGIC>MOL_PROPERTY
U
SciTegic.value.DoubleValue
9.718

@<SCITEGIC>MOL_PROPERTY
W
SciTegic.value.DoubleValue
-65.493

@<SCITEGIC>MOL_PROPERTY
W(PB)
SciTegic.value.DoubleValue
-67.361

@<SCITEGIC>MOL_PROPERTY
W(SA)
SciTegic.value.DoubleValue
1.869

@<SCITEGIC>MOL_PROPERTY
Valence
SciTegic.value.DoubleValue
7.002

@<SCITEGIC>MOL_PROPERTY
Coulomb
SciTegic.value.DoubleValue
2.402

@<SCITEGIC>MOL_PROPERTY
VdW
SciTegic.value.DoubleValue
0.314

@<SCITEGIC>MOL_PROPERTY
VdW6
SciTegic.value.DoubleValue
-5.861

@<SCITEGIC>MOL_PROPERTY
VdW12
SciTegic.value.DoubleValue
6.175

@<SCITEGIC>MOL_PROPERTY
Bond
SciTegic.value.DoubleValue
0.134

@<SCITEGIC>MOL_PROPERTY
Angle
SciTegic.value.DoubleValue
2.734

@<SCITEGIC>MOL_PROPERTY
Pdih
SciTegic.value.DoubleValue
4.133

@<SCITEGIC>MOL_PROPERTY
Idih
SciTegic.value.DoubleValue
0.002

@<SCITEGIC>MOL_PROPERTY
Tether
SciTegic.value.DoubleValue
0.000

@<TRIPOS>MOLECULE
guest-s18_confgen4.mol2 : confsearch ligand conformer 509
          16          15           1
SMALL
USER_CHARGES
 
@<TRIPOS>ATOM
       1    C1      18.700456   17.777579   21.348334 C.2        1 MOL1         0.6075
       2    O1      18.581310   16.755942   21.995546 O.co2      1 MOL1        -0.6830
       3    O2      18.953225   17.790344   20.159594 O.co2      1 MOL1        -0.6830
       4    C2      18.429559   19.109053   22.046509 C.3        1 MOL1        -0.2050
       5    H1      18.140082   18.914326   23.086348 H          1 MOL1         0.0710
       6    H2      17.552198   19.543465   21.553282 H          1 MOL1         0.0710
       7    C3      19.596432   20.135142   21.996220 C.3        1 MOL1        -0.1947
       8    H3      20.018221   20.173198   20.982225 H          1 MOL1         0.0712
       9    H4      19.178964   21.132841   22.187976 H          1 MOL1         0.0712
      10    C4      20.720914   19.887421   23.030501 C.3        1 MOL1        -0.1921
      11    H5      20.294926   19.848107   24.042538 H          1 MOL1         0.0712
      12    H6      21.402175   20.749375   23.015946 H          1 MOL1         0.0712
      13    C5      21.543555   18.609788   22.763663 C.3        1 MOL1        -0.2936
      14    H7      20.943688   17.706603   22.929240 H          1 MOL1         0.0724
      15    H8      22.406845   18.560844   23.439757 H          1 MOL1         0.0724
      16    H9      21.918741   18.590790   21.732060 H          1 MOL1         0.0724
@<TRIPOS>BOND
    1     1     2    1
    2     1     3    2
    3     1     4    1
    4     4     5    1
    5     4     6    1
    6     4     7    1
    7     7     8    1
    8     7     9    1
    9     7    10    1
   10    10    11    1
   11    10    12    1
   12    10    13    1
   13    13    14    1
   14    13    15    1
   15    13    16    1
@<TRIPOS>SUBSTRUCTURE
       1 MOL1            1 RESIDUE      1      MOL     
@<SCITEGIC>MOL_PROPERTY
VConf Rank
SciTegic.value.IntegerValue
509

@<SCITEGIC>MOL_PROPERTY
Conf_Id
SciTegic.value.IntegerValue
47

@<SCITEGIC>MOL_PROPERTY
Delta U+W
SciTegic.value.DoubleValue
2.301

@<SCITEGIC>MOL_PROPERTY
U+W
SciTegic.value.DoubleValue
-54.603

@<SCITEGIC>MOL_PROPERTY
Grad RMS
SciTegic.value.DoubleValue
0.000000

@<SCITEGIC>MOL_PROPERTY
U
SciTegic.value.DoubleValue
11.258

@<SCITEGIC>MOL_PROPERTY
W
SciTegic.value.DoubleValue
-65.861

@<SCITEGIC>MOL_PROPERTY
W(PB)
SciTegic.value.DoubleValue
-67.702

@<SCITEGIC>MOL_PROPERTY
W(SA)
SciTegic.value.DoubleValue
1.841

@<SCITEGIC>MOL_PROPERTY
Valence
SciTegic.value.DoubleValue
8.169

@<SCITEGIC>MOL_PROPERTY
Coulomb
SciTegic.value.DoubleValue
2.735

@<SCITEGIC>MOL_PROPERTY
VdW
SciTegic.value.DoubleValue
0.355

@<SCITEGIC>MOL_PROPERTY
VdW6
SciTegic.value.DoubleValue
-6.245

@<SCITEGIC>MOL_PROPERTY
VdW12
SciTegic.value.DoubleValue
6.600

@<SCITEGIC>MOL_PROPERTY
Bond
SciTegic.value.DoubleValue
0.149

@<SCITEGIC>MOL_PROPERTY
Angle
SciTegic.value.DoubleValue
3.168

@<SCITEGIC>MOL_PROPERTY
Pdih
SciTegic.value.DoubleValue
4.840

@<SCITEGIC>MOL_PROPERTY
Idih
SciTegic.value.DoubleValue
0.011

@<SCITEGIC>MOL_PROPERTY
Tether
SciTegic.value.DoubleValue
0.000

@<TRIPOS>MOLECULE
guest-s18_confgen4.mol2 : confsearch ligand conformer 510
          16          15           1
SMALL
USER_CHARGES
 
@<TRIPOS>ATOM
       1    C1      17.957121   19.654481   22.190132 C.2        1 MOL1         0.6075
       2    O1      17.449397   19.150013   21.207845 O.co2      1 MOL1        -0.6830
       3    O2      17.818122   20.824337   22.488354 O.co2      1 MOL1        -0.6830
       4    C2      18.735233   18.753780   23.147704 C.3        1 MOL1        -0.2050
       5    H1      18.021190   18.010801   23.521700 H          1 MOL1         0.0710
       6    H2      19.054403   19.345555   24.014256 H          1 MOL1         0.0710
       7    C3      19.952204   18.014610   22.523527 C.3        1 MOL1        -0.1947
       8    H3      20.193564   17.156809   23.165693 H          1 MOL1         0.0712
       9    H4      19.674111   17.593339   21.547446 H          1 MOL1         0.0712
      10    C4      21.231052   18.875506   22.385800 C.3        1 MOL1        -0.1921
      11    H5      22.061062   18.219433   22.089243 H          1 MOL1         0.0712
      12    H6      21.504624   19.296245   23.363229 H          1 MOL1         0.0712
      13    C5      21.110280   20.010394   21.347664 C.3        1 MOL1        -0.2936
      14    H7      22.083283   20.494180   21.192789 H          1 MOL1         0.0724
      15    H8      20.407207   20.783455   21.680929 H          1 MOL1         0.0724
      16    H9      20.765302   19.624076   20.379636 H          1 MOL1         0.0724
@<TRIPOS>BOND
    1     1     2    1
    2     1     3    2
    3     1     4    1
    4     4     5    1
    5     4     6    1
    6     4     7    1
    7     7     8    1
    8     7     9    1
    9     7    10    1
   10    10    11    1
   11    10    12    1
   12    10    13    1
   13    13    14    1
   14    13    15    1
   15    13    16    1
@<TRIPOS>SUBSTRUCTURE
       1 MOL1            1 RESIDUE      1      MOL     
@<SCITEGIC>MOL_PROPERTY
VConf Rank
SciTegic.value.IntegerValue
510

@<SCITEGIC>MOL_PROPERTY
Conf_Id
SciTegic.value.IntegerValue
45

@<SCITEGIC>MOL_PROPERTY
Delta U+W
SciTegic.value.DoubleValue
2.303

@<SCITEGIC>MOL_PROPERTY
U+W
SciTegic.value.DoubleValue
-54.601

@<SCITEGIC>MOL_PROPERTY
Grad RMS
SciTegic.value.DoubleValue
0.000000

@<SCITEGIC>MOL_PROPERTY
U
SciTegic.value.DoubleValue
11.258

@<SCITEGIC>MOL_PROPERTY
W
SciTegic.value.DoubleValue
-65.860

@<SCITEGIC>MOL_PROPERTY
W(PB)
SciTegic.value.DoubleValue
-67.709

@<SCITEGIC>MOL_PROPERTY
W(SA)
SciTegic.value.DoubleValue
1.849

@<SCITEGIC>MOL_PROPERTY
Valence
SciTegic.value.DoubleValue
8.169

@<SCITEGIC>MOL_PROPERTY
Coulomb
SciTegic.value.DoubleValue
2.735

@<SCITEGIC>MOL_PROPERTY
VdW
SciTegic.value.DoubleValue
0.355

@<SCITEGIC>MOL_PROPERTY
VdW6
SciTegic.value.DoubleValue
-6.245

@<SCITEGIC>MOL_PROPERTY
VdW12
SciTegic.value.DoubleValue
6.600

@<SCITEGIC>MOL_PROPERTY
Bond
SciTegic.value.DoubleValue
0.149

@<SCITEGIC>MOL_PROPERTY
Angle
SciTegic.value.DoubleValue
3.168

@<SCITEGIC>MOL_PROPERTY
Pdih
SciTegic.value.DoubleValue
4.840

@<SCITEGIC>MOL_PROPERTY
Idih
SciTegic.value.DoubleValue
0.011

@<SCITEGIC>MOL_PROPERTY
Tether
SciTegic.value.DoubleValue
0.000

@<TRIPOS>MOLECULE
guest-s18_confgen4.mol2 : confsearch ligand conformer 511
          16          15           1
SMALL
USER_CHARGES
 
@<TRIPOS>ATOM
       1    C1      22.120801   19.287361   20.173431 C.2        1 MOL1         0.6075
       2    O1      21.420587   19.336613   19.180933 O.co2      1 MOL1        -0.6830
       3    O2      23.334252   19.318351   20.129966 O.co2      1 MOL1        -0.6830
       4    C2      21.474059   19.180849   21.555557 C.3        1 MOL1        -0.2050
       5    H1      21.825872   20.033666   22.148087 H          1 MOL1         0.0710
       6    H2      21.867542   18.275167   22.032081 H          1 MOL1         0.0710
       7    C3      19.922630   19.143698   21.561365 C.3        1 MOL1        -0.1947
       8    H3      19.534327   20.050866   21.077902 H          1 MOL1         0.0712
       9    H4      19.576045   18.290550   20.961793 H          1 MOL1         0.0712
      10    C4      19.356901   19.035869   22.993002 C.3        1 MOL1        -0.1921
      11    H5      19.701343   19.889456   23.593209 H          1 MOL1         0.0712
      12    H6      19.743082   18.128087   23.477042 H          1 MOL1         0.0712
      13    C5      17.815859   18.999408   22.992192 C.3        1 MOL1        -0.2936
      14    H7      17.401707   19.910864   22.541418 H          1 MOL1         0.0724
      15    H8      17.430173   18.922674   24.017131 H          1 MOL1         0.0724
      16    H9      17.443748   18.136500   22.424396 H          1 MOL1         0.0724
@<TRIPOS>BOND
    1     1     2    1
    2     1     3    2
    3     1     4    1
    4     4     5    1
    5     4     6    1
    6     4     7    1
    7     7     8    1
    8     7     9    1
    9     7    10    1
   10    10    11    1
   11    10    12    1
   12    10    13    1
   13    13    14    1
   14    13    15    1
   15    13    16    1
@<TRIPOS>SUBSTRUCTURE
       1 MOL1            1 RESIDUE      1      MOL     
@<SCITEGIC>MOL_PROPERTY
VConf Rank
SciTegic.value.IntegerValue
511

@<SCITEGIC>MOL_PROPERTY
Conf_Id
SciTegic.value.IntegerValue
0

@<SCITEGIC>MOL_PROPERTY
Delta U+W
SciTegic.value.DoubleValue
0.000

@<SCITEGIC>MOL_PROPERTY
U+W
SciTegic.value.DoubleValue
-56.904

@<SCITEGIC>MOL_PROPERTY
Grad RMS
SciTegic.value.DoubleValue
0.000000

@<SCITEGIC>MOL_PROPERTY
U
SciTegic.value.DoubleValue
7.329

@<SCITEGIC>MOL_PROPERTY
W
SciTegic.value.DoubleValue
-64.233

@<SCITEGIC>MOL_PROPERTY
W(PB)
SciTegic.value.DoubleValue
-66.148

@<SCITEGIC>MOL_PROPERTY
W(SA)
SciTegic.value.DoubleValue
1.915

@<SCITEGIC>MOL_PROPERTY
Valence
SciTegic.value.DoubleValue
6.755

@<SCITEGIC>MOL_PROPERTY
Coulomb
SciTegic.value.DoubleValue
-0.421

@<SCITEGIC>MOL_PROPERTY
VdW
SciTegic.value.DoubleValue
0.995

@<SCITEGIC>MOL_PROPERTY
VdW6
SciTegic.value.DoubleValue
-4.495

@<SCITEGIC>MOL_PROPERTY
VdW12
SciTegic.value.DoubleValue
5.490

@<SCITEGIC>MOL_PROPERTY
Bond
SciTegic.value.DoubleValue
0.106

@<SCITEGIC>MOL_PROPERTY
Angle
SciTegic.value.DoubleValue
2.715

@<SCITEGIC>MOL_PROPERTY
Pdih
SciTegic.value.DoubleValue
3.934

@<SCITEGIC>MOL_PROPERTY
Idih
SciTegic.value.DoubleValue
0.000

@<SCITEGIC>MOL_PROPERTY
Tether
SciTegic.value.DoubleValue
0.000

@<TRIPOS>MOLECULE
guest-s18_confgen4.mol2 : confsearch ligand conformer 512
          16          15           1
SMALL
USER_CHARGES
 
@<TRIPOS>ATOM
       1    C1      22.178272   17.525567   21.365417 C.2        1 MOL1         0.6075
       2    O1      22.186016   16.456578   21.942516 O.co2      1 MOL1        -0.6830
       3    O2      22.659555   17.697740   20.263343 O.co2      1 MOL1        -0.6830
       4    C2      21.512125   18.711514   22.054156 C.3        1 MOL1        -0.2050
       5    H1      22.041840   19.623050   21.751907 H          1 MOL1         0.0710
       6    H2      21.651321   18.599727   23.136273 H          1 MOL1         0.0710
       7    C3      20.005093   18.834132   21.719669 C.3        1 MOL1        -0.1947
       8    H3      19.881437   18.932875   20.632237 H          1 MOL1         0.0712
       9    H4      19.490903   17.909475   22.016603 H          1 MOL1         0.0712
      10    C4      19.355896   20.040954   22.428673 C.3        1 MOL1        -0.1921
      11    H5      19.869385   20.965904   22.131462 H          1 MOL1         0.0712
      12    H6      19.478783   19.942258   23.516191 H          1 MOL1         0.0712
      13    C5      17.856282   20.156718   22.091244 C.3        1 MOL1        -0.2936
      14    H7      17.312100   19.256783   22.406606 H          1 MOL1         0.0724
      15    H8      17.705586   20.287965   21.011644 H          1 MOL1         0.0724
      16    H9      17.410149   21.019353   22.603081 H          1 MOL1         0.0724
@<TRIPOS>BOND
    1     1     2    1
    2     1     3    2
    3     1     4    1
    4     4     5    1
    5     4     6    1
    6     4     7    1
    7     7     8    1
    8     7     9    1
    9     7    10    1
   10    10    11    1
   11    10    12    1
   12    10    13    1
   13    13    14    1
   14    13    15    1
   15    13    16    1
@<TRIPOS>SUBSTRUCTURE
       1 MOL1            1 RESIDUE      1      MOL     
@<SCITEGIC>MOL_PROPERTY
VConf Rank
SciTegic.value.IntegerValue
512

@<SCITEGIC>MOL_PROPERTY
Conf_Id
SciTegic.value.IntegerValue
22

@<SCITEGIC>MOL_PROPERTY
Delta U+W
SciTegic.value.DoubleValue
-1.185

@<SCITEGIC>MOL_PROPERTY
U+W
SciTegic.value.DoubleValue
-58.089

@<SCITEGIC>MOL_PROPERTY
Grad RMS
SciTegic.value.DoubleValue
0.000000

@<SCITEGIC>MOL_PROPERTY
U
SciTegic.value.DoubleValue
6.298

@<SCITEGIC>MOL_PROPERTY
W
SciTegic.value.DoubleValue
-64.387

@<SCITEGIC>MOL_PROPERTY
W(PB)
SciTegic.value.DoubleValue
-66.329

@<SCITEGIC>MOL_PROPERTY
W(SA)
SciTegic.value.DoubleValue
1.942

@<SCITEGIC>MOL_PROPERTY
Valence
SciTegic.value.DoubleValue
6.246

@<SCITEGIC>MOL_PROPERTY
Coulomb
SciTegic.value.DoubleValue
-0.408

@<SCITEGIC>MOL_PROPERTY
VdW
SciTegic.value.DoubleValue
0.460

@<SCITEGIC>MOL_PROPERTY
VdW6
SciTegic.value.DoubleValue
-4.207

@<SCITEGIC>MOL_PROPERTY
VdW12
SciTegic.value.DoubleValue
4.667

@<SCITEGIC>MOL_PROPERTY
Bond
SciTegic.value.DoubleValue
0.072

@<SCITEGIC>MOL_PROPERTY
Angle
SciTegic.value.DoubleValue
2.246

@<SCITEGIC>MOL_PROPERTY
Pdih
SciTegic.value.DoubleValue
3.928

@<SCITEGIC>MOL_PROPERTY
Idih
SciTegic.value.DoubleValue
0.001

@<SCITEGIC>MOL_PROPERTY
Tether
SciTegic.value.DoubleValue
0.000

@<TRIPOS>MOLECULE
guest-s18_confgen4.mol2 : confsearch ligand conformer 513
          16          15           1
SMALL
USER_CHARGES
 
@<TRIPOS>ATOM
       1    C1      21.970927   20.595567   21.233383 C.2        1 MOL1         0.6075
       2    O1      23.031338   20.110943   20.891824 O.co2      1 MOL1        -0.6830
       3    O2      21.847000   21.745317   21.605774 O.co2      1 MOL1        -0.6830
       4    C2      20.732466   19.706551   21.212517 C.3        1 MOL1        -0.2050
       5    H1      20.844059   18.986366   20.393099 H          1 MOL1         0.0710
       6    H2      19.870328   20.339664   20.973766 H          1 MOL1         0.0710
       7    C3      20.505790   18.959979   22.552756 C.3        1 MOL1        -0.1947
       8    H3      21.419310   18.404539   22.806521 H          1 MOL1         0.0712
       9    H4      20.352937   19.691304   23.358429 H          1 MOL1         0.0712
      10    C4      19.318067   17.970968   22.513015 C.3        1 MOL1        -0.1921
      11    H5      19.295023   17.408620   23.456701 H          1 MOL1         0.0712
      12    H6      19.476407   17.232391   21.715010 H          1 MOL1         0.0712
      13    C5      17.953953   18.665661   22.314195 C.3        1 MOL1        -0.2936
      14    H7      17.889107   19.147708   21.330728 H          1 MOL1         0.0724
      15    H8      17.786105   19.429583   23.084585 H          1 MOL1         0.0724
      16    H9      17.137899   17.934412   22.380064 H          1 MOL1         0.0724
@<TRIPOS>BOND
    1     1     2    1
    2     1     3    2
    3     1     4    1
    4     4     5    1
    5     4     6    1
    6     4     7    1
    7     7     8    1
    8     7     9    1
    9     7    10    1
   10    10    11    1
   11    10    12    1
   12    10    13    1
   13    13    14    1
   14    13    15    1
   15    13    16    1
@<TRIPOS>SUBSTRUCTURE
       1 MOL1            1 RESIDUE      1      MOL     
@<SCITEGIC>MOL_PROPERTY
VConf Rank
SciTegic.value.IntegerValue
513

@<SCITEGIC>MOL_PROPERTY
Conf_Id
SciTegic.value.IntegerValue
36

@<SCITEGIC>MOL_PROPERTY
Delta U+W
SciTegic.value.DoubleValue
-0.427

@<SCITEGIC>MOL_PROPERTY
U+W
SciTegic.value.DoubleValue
-57.331

@<SCITEGIC>MOL_PROPERTY
Grad RMS
SciTegic.value.DoubleValue
0.000000

@<SCITEGIC>MOL_PROPERTY
U
SciTegic.value.DoubleValue
7.263

@<SCITEGIC>MOL_PROPERTY
W
SciTegic.value.DoubleValue
-64.594

@<SCITEGIC>MOL_PROPERTY
W(PB)
SciTegic.value.DoubleValue
-66.513

@<SCITEGIC>MOL_PROPERTY
W(SA)
SciTegic.value.DoubleValue
1.920

@<SCITEGIC>MOL_PROPERTY
Valence
SciTegic.value.DoubleValue
6.734

@<SCITEGIC>MOL_PROPERTY
Coulomb
SciTegic.value.DoubleValue
-0.068

@<SCITEGIC>MOL_PROPERTY
VdW
SciTegic.value.DoubleValue
0.598

@<SCITEGIC>MOL_PROPERTY
VdW6
SciTegic.value.DoubleValue
-4.819

@<SCITEGIC>MOL_PROPERTY
VdW12
SciTegic.value.DoubleValue
5.417

@<SCITEGIC>MOL_PROPERTY
Bond
SciTegic.value.DoubleValue
0.107

@<SCITEGIC>MOL_PROPERTY
Angle
SciTegic.value.DoubleValue
2.469

@<SCITEGIC>MOL_PROPERTY
Pdih
SciTegic.value.DoubleValue
4.157

@<SCITEGIC>MOL_PROPERTY
Idih
SciTegic.value.DoubleValue
0.001

@<SCITEGIC>MOL_PROPERTY
Tether
SciTegic.value.DoubleValue
0.000

@<TRIPOS>MOLECULE
guest-s18_confgen4.mol2 : confsearch ligand conformer 514
          16          15           1
SMALL
USER_CHARGES
 
@<TRIPOS>ATOM
       1    C1      18.390009   20.369158   23.636792 C.2        1 MOL1         0.6075
       2    O1      17.878043   19.591468   24.417206 O.co2      1 MOL1        -0.6830
       3    O2      17.954257   21.481047   23.413592 O.co2      1 MOL1        -0.6830
       4    C2      19.635296   19.918320   22.881425 C.3        1 MOL1        -0.2050
       5    H1      20.199958   19.246766   23.538152 H          1 MOL1         0.0710
       6    H2      20.262044   20.799949   22.701190 H          1 MOL1         0.0710
       7    C3      19.302897   19.215776   21.539435 C.3        1 MOL1        -0.1947
       8    H3      18.711137   18.311078   21.736033 H          1 MOL1         0.0712
       9    H4      18.664514   19.880719   20.941315 H          1 MOL1         0.0712
      10    C4      20.555094   18.850548   20.709365 C.3        1 MOL1        -0.1921
      11    H5      21.140891   19.756908   20.502642 H          1 MOL1         0.0712
      12    H6      20.231210   18.460863   19.734402 H          1 MOL1         0.0712
      13    C5      21.452617   17.797077   21.393165 C.3        1 MOL1        -0.2936
      14    H7      21.892372   18.185937   22.320088 H          1 MOL1         0.0724
      15    H8      22.278039   17.507725   20.729870 H          1 MOL1         0.0724
      16    H9      20.880910   16.891800   21.635807 H          1 MOL1         0.0724
@<TRIPOS>BOND
    1     1     2    1
    2     1     3    2
    3     1     4    1
    4     4     5    1
    5     4     6    1
    6     4     7    1
    7     7     8    1
    8     7     9    1
    9     7    10    1
   10    10    11    1
   11    10    12    1
   12    10    13    1
   13    13    14    1
   14    13    15    1
   15    13    16    1
@<TRIPOS>SUBSTRUCTURE
       1 MOL1            1 RESIDUE      1      MOL     
@<SCITEGIC>MOL_PROPERTY
VConf Rank
SciTegic.value.IntegerValue
514

@<SCITEGIC>MOL_PROPERTY
Conf_Id
SciTegic.value.IntegerValue
17

@<SCITEGIC>MOL_PROPERTY
Delta U+W
SciTegic.value.DoubleValue
-0.432

@<SCITEGIC>MOL_PROPERTY
U+W
SciTegic.value.DoubleValue
-57.336

@<SCITEGIC>MOL_PROPERTY
Grad RMS
SciTegic.value.DoubleValue
0.000000

@<SCITEGIC>MOL_PROPERTY
U
SciTegic.value.DoubleValue
7.263

@<SCITEGIC>MOL_PROPERTY
W
SciTegic.value.DoubleValue
-64.599

@<SCITEGIC>MOL_PROPERTY
W(PB)
SciTegic.value.DoubleValue
-66.503

@<SCITEGIC>MOL_PROPERTY
W(SA)
SciTegic.value.DoubleValue
1.904

@<SCITEGIC>MOL_PROPERTY
Valence
SciTegic.value.DoubleValue
6.734

@<SCITEGIC>MOL_PROPERTY
Coulomb
SciTegic.value.DoubleValue
-0.068

@<SCITEGIC>MOL_PROPERTY
VdW
SciTegic.value.DoubleValue
0.598

@<SCITEGIC>MOL_PROPERTY
VdW6
SciTegic.value.DoubleValue
-4.819

@<SCITEGIC>MOL_PROPERTY
VdW12
SciTegic.value.DoubleValue
5.417

@<SCITEGIC>MOL_PROPERTY
Bond
SciTegic.value.DoubleValue
0.107

@<SCITEGIC>MOL_PROPERTY
Angle
SciTegic.value.DoubleValue
2.469

@<SCITEGIC>MOL_PROPERTY
Pdih
SciTegic.value.DoubleValue
4.157

@<SCITEGIC>MOL_PROPERTY
Idih
SciTegic.value.DoubleValue
0.001

@<SCITEGIC>MOL_PROPERTY
Tether
SciTegic.value.DoubleValue
0.000

@<TRIPOS>MOLECULE
guest-s18_confgen4.mol2 : confsearch ligand conformer 515
          16          15           1
SMALL
USER_CHARGES
 
@<TRIPOS>ATOM
       1    C1      20.461770   21.280104   21.140919 C.2        1 MOL1         0.6075
       2    O1      21.532736   21.779683   21.423395 O.co2      1 MOL1        -0.6830
       3    O2      20.025156   21.224251   20.008439 O.co2      1 MOL1        -0.6830
       4    C2      19.610107   20.714480   22.274159 C.3        1 MOL1        -0.2050
       5    H1      18.573613   20.630258   21.925343 H          1 MOL1         0.0710
       6    H2      19.612435   21.451629   23.085848 H          1 MOL1         0.0710
       7    C3      20.104981   19.348005   22.815343 C.3        1 MOL1        -0.1947
       8    H3      21.152541   19.440388   23.134257 H          1 MOL1         0.0712
       9    H4      19.523827   19.087492   23.710302 H          1 MOL1         0.0712
      10    C4      19.972989   18.214350   21.775349 C.3        1 MOL1        -0.1921
      11    H5      20.567410   18.454794   20.882840 H          1 MOL1         0.0712
      12    H6      18.927290   18.131417   21.448221 H          1 MOL1         0.0712
      13    C5      20.439647   16.861982   22.349523 C.3        1 MOL1        -0.2936
      14    H7      21.492815   16.908358   22.656337 H          1 MOL1         0.0724
      15    H8      20.340182   16.067961   21.598021 H          1 MOL1         0.0724
      16    H9      19.839601   16.578130   23.224045 H          1 MOL1         0.0724
@<TRIPOS>BOND
    1     1     2    1
    2     1     3    2
    3     1     4    1
    4     4     5    1
    5     4     6    1
    6     4     7    1
    7     7     8    1
    8     7     9    1
    9     7    10    1
   10    10    11    1
   11    10    12    1
   12    10    13    1
   13    13    14    1
   14    13    15    1
   15    13    16    1
@<TRIPOS>SUBSTRUCTURE
       1 MOL1            1 RESIDUE      1      MOL     
@<SCITEGIC>MOL_PROPERTY
VConf Rank
SciTegic.value.IntegerValue
515

@<SCITEGIC>MOL_PROPERTY
Conf_Id
SciTegic.value.IntegerValue
19

@<SCITEGIC>MOL_PROPERTY
Delta U+W
SciTegic.value.DoubleValue
0.048

@<SCITEGIC>MOL_PROPERTY
U+W
SciTegic.value.DoubleValue
-56.856

@<SCITEGIC>MOL_PROPERTY
Grad RMS
SciTegic.value.DoubleValue
0.000000

@<SCITEGIC>MOL_PROPERTY
U
SciTegic.value.DoubleValue
8.276

@<SCITEGIC>MOL_PROPERTY
W
SciTegic.value.DoubleValue
-65.132

@<SCITEGIC>MOL_PROPERTY
W(PB)
SciTegic.value.DoubleValue
-67.031

@<SCITEGIC>MOL_PROPERTY
W(SA)
SciTegic.value.DoubleValue
1.899

@<SCITEGIC>MOL_PROPERTY
Valence
SciTegic.value.DoubleValue
6.513

@<SCITEGIC>MOL_PROPERTY
Coulomb
SciTegic.value.DoubleValue
1.428

@<SCITEGIC>MOL_PROPERTY
VdW
SciTegic.value.DoubleValue
0.335

@<SCITEGIC>MOL_PROPERTY
VdW6
SciTegic.value.DoubleValue
-5.021

@<SCITEGIC>MOL_PROPERTY
VdW12
SciTegic.value.DoubleValue
5.356

@<SCITEGIC>MOL_PROPERTY
Bond
SciTegic.value.DoubleValue
0.092

@<SCITEGIC>MOL_PROPERTY
Angle
SciTegic.value.DoubleValue
2.417

@<SCITEGIC>MOL_PROPERTY
Pdih
SciTegic.value.DoubleValue
4.003

@<SCITEGIC>MOL_PROPERTY
Idih
SciTegic.value.DoubleValue
0.001

@<SCITEGIC>MOL_PROPERTY
Tether
SciTegic.value.DoubleValue
0.000

@<TRIPOS>MOLECULE
guest-s18_confgen4.mol2 : confsearch ligand conformer 516
          16          15           1
SMALL
USER_CHARGES
 
@<TRIPOS>ATOM
       1    C1      18.832803   17.898915   20.373395 C.2        1 MOL1         0.6075
       2    O1      19.258910   16.764819   20.280660 O.co2      1 MOL1        -0.6830
       3    O2      18.706124   18.647849   19.425073 O.co2      1 MOL1        -0.6830
       4    C2      18.412750   18.399468   21.752706 C.3        1 MOL1        -0.2050
       5    H1      17.815943   17.607982   22.221328 H          1 MOL1         0.0710
       6    H2      17.749171   19.263439   21.625025 H          1 MOL1         0.0710
       7    C3      19.599912   18.769242   22.679507 C.3        1 MOL1        -0.1947
       8    H3      19.213721   18.982606   23.685435 H          1 MOL1         0.0712
       9    H4      20.270518   17.903926   22.775104 H          1 MOL1         0.0712
      10    C4      20.393212   19.991777   22.169340 C.3        1 MOL1        -0.1921
      11    H5      19.718965   20.852792   22.062463 H          1 MOL1         0.0712
      12    H6      20.802030   19.782009   21.171046 H          1 MOL1         0.0712
      13    C5      21.545582   20.358206   23.125439 C.3        1 MOL1        -0.2936
      14    H7      21.163638   20.606976   24.124262 H          1 MOL1         0.0724
      15    H8      22.099322   21.227725   22.748047 H          1 MOL1         0.0724
      16    H9      22.252198   19.523944   23.226190 H          1 MOL1         0.0724
@<TRIPOS>BOND
    1     1     2    1
    2     1     3    2
    3     1     4    1
    4     4     5    1
    5     4     6    1
    6     4     7    1
    7     7     8    1
    8     7     9    1
    9     7    10    1
   10    10    11    1
   11    10    12    1
   12    10    13    1
   13    13    14    1
   14    13    15    1
   15    13    16    1
@<TRIPOS>SUBSTRUCTURE
       1 MOL1            1 RESIDUE      1      MOL     
@<SCITEGIC>MOL_PROPERTY
VConf Rank
SciTegic.value.IntegerValue
516

@<SCITEGIC>MOL_PROPERTY
Conf_Id
SciTegic.value.IntegerValue
20

@<SCITEGIC>MOL_PROPERTY
Delta U+W
SciTegic.value.DoubleValue
-0.010

@<SCITEGIC>MOL_PROPERTY
U+W
SciTegic.value.DoubleValue
-56.914

@<SCITEGIC>MOL_PROPERTY
Grad RMS
SciTegic.value.DoubleValue
0.000000

@<SCITEGIC>MOL_PROPERTY
U
SciTegic.value.DoubleValue
8.277

@<SCITEGIC>MOL_PROPERTY
W
SciTegic.value.DoubleValue
-65.191

@<SCITEGIC>MOL_PROPERTY
W(PB)
SciTegic.value.DoubleValue
-67.081

@<SCITEGIC>MOL_PROPERTY
W(SA)
SciTegic.value.DoubleValue
1.890

@<SCITEGIC>MOL_PROPERTY
Valence
SciTegic.value.DoubleValue
6.513

@<SCITEGIC>MOL_PROPERTY
Coulomb
SciTegic.value.DoubleValue
1.429

@<SCITEGIC>MOL_PROPERTY
VdW
SciTegic.value.DoubleValue
0.335

@<SCITEGIC>MOL_PROPERTY
VdW6
SciTegic.value.DoubleValue
-5.021

@<SCITEGIC>MOL_PROPERTY
VdW12
SciTegic.value.DoubleValue
5.356

@<SCITEGIC>MOL_PROPERTY
Bond
SciTegic.value.DoubleValue
0.092

@<SCITEGIC>MOL_PROPERTY
Angle
SciTegic.value.DoubleValue
2.417

@<SCITEGIC>MOL_PROPERTY
Pdih
SciTegic.value.DoubleValue
4.002

@<SCITEGIC>MOL_PROPERTY
Idih
SciTegic.value.DoubleValue
0.001

@<SCITEGIC>MOL_PROPERTY
Tether
SciTegic.value.DoubleValue
0.000

@<TRIPOS>MOLECULE
guest-s18_confgen4.mol2 : confsearch ligand conformer 517
          16          15           1
SMALL
USER_CHARGES
 
@<TRIPOS>ATOM
       1    C1      19.752941   19.578670   24.277877 C.2        1 MOL1         0.6075
       2    O1      18.979689   19.015768   25.027550 O.co2      1 MOL1        -0.6830
       3    O2      19.928159   20.780997   24.274953 O.co2      1 MOL1        -0.6830
       4    C2      20.571015   18.724104   23.313400 C.3        1 MOL1        -0.2050
       5    H1      21.032736   17.921824   23.900803 H          1 MOL1         0.0710
       6    H2      21.393314   19.330464   22.916664 H          1 MOL1         0.0710
       7    C3      19.742731   18.100831   22.156614 C.3        1 MOL1        -0.1947
       8    H3      20.391396   17.442230   21.563444 H          1 MOL1         0.0712
       9    H4      18.962824   17.458003   22.587743 H          1 MOL1         0.0712
      10    C4      19.075721   19.136142   21.220015 C.3        1 MOL1        -0.1921
      11    H5      18.396649   19.779741   21.796417 H          1 MOL1         0.0712
      12    H6      18.450747   18.601301   20.491674 H          1 MOL1         0.0712
      13    C5      20.093056   20.010309   20.456271 C.3        1 MOL1        -0.2936
      14    H7      20.656889   20.655795   21.141784 H          1 MOL1         0.0724
      15    H8      19.577087   20.660333   19.737865 H          1 MOL1         0.0724
      16    H9      20.806646   19.389237   19.899384 H          1 MOL1         0.0724
@<TRIPOS>BOND
    1     1     2    1
    2     1     3    2
    3     1     4    1
    4     4     5    1
    5     4     6    1
    6     4     7    1
    7     7     8    1
    8     7     9    1
    9     7    10    1
   10    10    11    1
   11    10    12    1
   12    10    13    1
   13    13    14    1
   14    13    15    1
   15    13    16    1
@<TRIPOS>SUBSTRUCTURE
       1 MOL1            1 RESIDUE      1      MOL     
@<SCITEGIC>MOL_PROPERTY
VConf Rank
SciTegic.value.IntegerValue
517

@<SCITEGIC>MOL_PROPERTY
Conf_Id
SciTegic.value.IntegerValue
37

@<SCITEGIC>MOL_PROPERTY
Delta U+W
SciTegic.value.DoubleValue
1.063

@<SCITEGIC>MOL_PROPERTY
U+W
SciTegic.value.DoubleValue
-55.841

@<SCITEGIC>MOL_PROPERTY
Grad RMS
SciTegic.value.DoubleValue
0.000000

@<SCITEGIC>MOL_PROPERTY
U
SciTegic.value.DoubleValue
9.719

@<SCITEGIC>MOL_PROPERTY
W
SciTegic.value.DoubleValue
-65.560

@<SCITEGIC>MOL_PROPERTY
W(PB)
SciTegic.value.DoubleValue
-67.414

@<SCITEGIC>MOL_PROPERTY
W(SA)
SciTegic.value.DoubleValue
1.854

@<SCITEGIC>MOL_PROPERTY
Valence
SciTegic.value.DoubleValue
7.002

@<SCITEGIC>MOL_PROPERTY
Coulomb
SciTegic.value.DoubleValue
2.402

@<SCITEGIC>MOL_PROPERTY
VdW
SciTegic.value.DoubleValue
0.314

@<SCITEGIC>MOL_PROPERTY
VdW6
SciTegic.value.DoubleValue
-5.861

@<SCITEGIC>MOL_PROPERTY
VdW12
SciTegic.value.DoubleValue
6.175

@<SCITEGIC>MOL_PROPERTY
Bond
SciTegic.value.DoubleValue
0.134

@<SCITEGIC>MOL_PROPERTY
Angle
SciTegic.value.DoubleValue
2.733

@<SCITEGIC>MOL_PROPERTY
Pdih
SciTegic.value.DoubleValue
4.133

@<SCITEGIC>MOL_PROPERTY
Idih
SciTegic.value.DoubleValue
0.002

@<SCITEGIC>MOL_PROPERTY
Tether
SciTegic.value.DoubleValue
0.000

@<TRIPOS>MOLECULE
guest-s18_confgen4.mol2 : confsearch ligand conformer 518
          16          15           1
SMALL
USER_CHARGES
 
@<TRIPOS>ATOM
       1    C1      21.694419   19.165974   20.692573 C.2        1 MOL1         0.6075
       2    O1      22.194114   18.158227   20.232643 O.co2      1 MOL1        -0.6830
       3    O2      21.335507   20.106640   20.012403 O.co2      1 MOL1        -0.6830
       4    C2      21.542704   19.266968   22.208003 C.3        1 MOL1        -0.2050
       5    H1      21.342099   20.311428   22.472784 H          1 MOL1         0.0710
       6    H2      22.514199   19.016181   22.649799 H          1 MOL1         0.0710
       7    C3      20.453122   18.332643   22.801742 C.3        1 MOL1        -0.1947
       8    H3      20.713381   17.291845   22.564341 H          1 MOL1         0.0712
       9    H4      20.468825   18.411722   23.897128 H          1 MOL1         0.0712
      10    C4      19.020710   18.618462   22.291356 C.3        1 MOL1        -0.1921
      11    H5      18.342041   17.858203   22.701898 H          1 MOL1         0.0712
      12    H6      18.983575   18.508267   21.198618 H          1 MOL1         0.0712
      13    C5      18.500771   20.016525   22.688250 C.3        1 MOL1        -0.2936
      14    H7      18.560594   20.165629   23.774185 H          1 MOL1         0.0724
      15    H8      17.451872   20.135312   22.387318 H          1 MOL1         0.0724
      16    H9      19.078366   20.810123   22.197257 H          1 MOL1         0.0724
@<TRIPOS>BOND
    1     1     2    1
    2     1     3    2
    3     1     4    1
    4     4     5    1
    5     4     6    1
    6     4     7    1
    7     7     8    1
    8     7     9    1
    9     7    10    1
   10    10    11    1
   11    10    12    1
   12    10    13    1
   13    13    14    1
   14    13    15    1
   15    13    16    1
@<TRIPOS>SUBSTRUCTURE
       1 MOL1            1 RESIDUE      1      MOL     
@<SCITEGIC>MOL_PROPERTY
VConf Rank
SciTegic.value.IntegerValue
518

@<SCITEGIC>MOL_PROPERTY
Conf_Id
SciTegic.value.IntegerValue
39

@<SCITEGIC>MOL_PROPERTY
Delta U+W
SciTegic.value.DoubleValue
1.129

@<SCITEGIC>MOL_PROPERTY
U+W
SciTegic.value.DoubleValue
-55.775

@<SCITEGIC>MOL_PROPERTY
Grad RMS
SciTegic.value.DoubleValue
0.000000

@<SCITEGIC>MOL_PROPERTY
U
SciTegic.value.DoubleValue
9.718

@<SCITEGIC>MOL_PROPERTY
W
SciTegic.value.DoubleValue
-65.493

@<SCITEGIC>MOL_PROPERTY
W(PB)
SciTegic.value.DoubleValue
-67.361

@<SCITEGIC>MOL_PROPERTY
W(SA)
SciTegic.value.DoubleValue
1.869

@<SCITEGIC>MOL_PROPERTY
Valence
SciTegic.value.DoubleValue
7.002

@<SCITEGIC>MOL_PROPERTY
Coulomb
SciTegic.value.DoubleValue
2.402

@<SCITEGIC>MOL_PROPERTY
VdW
SciTegic.value.DoubleValue
0.314

@<SCITEGIC>MOL_PROPERTY
VdW6
SciTegic.value.DoubleValue
-5.861

@<SCITEGIC>MOL_PROPERTY
VdW12
SciTegic.value.DoubleValue
6.175

@<SCITEGIC>MOL_PROPERTY
Bond
SciTegic.value.DoubleValue
0.134

@<SCITEGIC>MOL_PROPERTY
Angle
SciTegic.value.DoubleValue
2.734

@<SCITEGIC>MOL_PROPERTY
Pdih
SciTegic.value.DoubleValue
4.133

@<SCITEGIC>MOL_PROPERTY
Idih
SciTegic.value.DoubleValue
0.002

@<SCITEGIC>MOL_PROPERTY
Tether
SciTegic.value.DoubleValue
0.000

@<TRIPOS>MOLECULE
guest-s18_confgen4.mol2 : confsearch ligand conformer 519
          16          15           1
SMALL
USER_CHARGES
 
@<TRIPOS>ATOM
       1    C1      21.159473   20.349240   23.153693 C.2        1 MOL1         0.6075
       2    O1      20.700477   20.769357   24.197554 O.co2      1 MOL1        -0.6830
       3    O2      21.650551   21.065144   22.303115 O.co2      1 MOL1        -0.6830
       4    C2      21.201927   18.836991   22.941660 C.3        1 MOL1        -0.2050
       5    H1      20.794740   18.340413   23.830810 H          1 MOL1         0.0710
       6    H2      22.261840   18.562421   22.887388 H          1 MOL1         0.0710
       7    C3      20.481835   18.324943   21.662497 C.3        1 MOL1        -0.1947
       8    H3      20.741456   18.962518   20.805972 H          1 MOL1         0.0712
       9    H4      20.876593   17.327198   21.427718 H          1 MOL1         0.0712
      10    C4      18.943885   18.205999   21.789487 C.3        1 MOL1        -0.1921
      11    H5      18.688521   17.569534   22.647935 H          1 MOL1         0.0712
      12    H6      18.560717   17.690043   20.898272 H          1 MOL1         0.0712
      13    C5      18.221592   19.563349   21.916694 C.3        1 MOL1        -0.2936
      14    H7      18.445174   20.046487   22.875645 H          1 MOL1         0.0724
      15    H8      17.133955   19.426048   21.862264 H          1 MOL1         0.0724
      16    H9      18.518554   20.245134   21.109036 H          1 MOL1         0.0724
@<TRIPOS>BOND
    1     1     2    1
    2     1     3    2
    3     1     4    1
    4     4     5    1
    5     4     6    1
    6     4     7    1
    7     7     8    1
    8     7     9    1
    9     7    10    1
   10    10    11    1
   11    10    12    1
   12    10    13    1
   13    13    14    1
   14    13    15    1
   15    13    16    1
@<TRIPOS>SUBSTRUCTURE
       1 MOL1            1 RESIDUE      1      MOL     
@<SCITEGIC>MOL_PROPERTY
VConf Rank
SciTegic.value.IntegerValue
519

@<SCITEGIC>MOL_PROPERTY
Conf_Id
SciTegic.value.IntegerValue
47

@<SCITEGIC>MOL_PROPERTY
Delta U+W
SciTegic.value.DoubleValue
2.301

@<SCITEGIC>MOL_PROPERTY
U+W
SciTegic.value.DoubleValue
-54.603

@<SCITEGIC>MOL_PROPERTY
Grad RMS
SciTegic.value.DoubleValue
0.000000

@<SCITEGIC>MOL_PROPERTY
U
SciTegic.value.DoubleValue
11.258

@<SCITEGIC>MOL_PROPERTY
W
SciTegic.value.DoubleValue
-65.861

@<SCITEGIC>MOL_PROPERTY
W(PB)
SciTegic.value.DoubleValue
-67.702

@<SCITEGIC>MOL_PROPERTY
W(SA)
SciTegic.value.DoubleValue
1.841

@<SCITEGIC>MOL_PROPERTY
Valence
SciTegic.value.DoubleValue
8.169

@<SCITEGIC>MOL_PROPERTY
Coulomb
SciTegic.value.DoubleValue
2.735

@<SCITEGIC>MOL_PROPERTY
VdW
SciTegic.value.DoubleValue
0.355

@<SCITEGIC>MOL_PROPERTY
VdW6
SciTegic.value.DoubleValue
-6.245

@<SCITEGIC>MOL_PROPERTY
VdW12
SciTegic.value.DoubleValue
6.600

@<SCITEGIC>MOL_PROPERTY
Bond
SciTegic.value.DoubleValue
0.149

@<SCITEGIC>MOL_PROPERTY
Angle
SciTegic.value.DoubleValue
3.168

@<SCITEGIC>MOL_PROPERTY
Pdih
SciTegic.value.DoubleValue
4.840

@<SCITEGIC>MOL_PROPERTY
Idih
SciTegic.value.DoubleValue
0.011

@<SCITEGIC>MOL_PROPERTY
Tether
SciTegic.value.DoubleValue
0.000

@<TRIPOS>MOLECULE
guest-s18_confgen4.mol2 : confsearch ligand conformer 520
          16          15           1
SMALL
USER_CHARGES
 
@<TRIPOS>ATOM
       1    C1      20.230535   19.162398   24.228405 C.2        1 MOL1         0.6075
       2    O1      21.181363   19.891193   24.433202 O.co2      1 MOL1        -0.6830
       3    O2      20.114971   18.058949   24.724250 O.co2      1 MOL1        -0.6830
       4    C2      19.079168   19.694528   23.377019 C.3        1 MOL1        -0.2050
       5    H1      18.683543   20.569937   23.905118 H          1 MOL1         0.0710
       6    H2      18.274576   18.949351   23.359080 H          1 MOL1         0.0710
       7    C3      19.460663   20.109099   21.928026 C.3        1 MOL1        -0.1947
       8    H3      18.683063   20.788776   21.554084 H          1 MOL1         0.0712
       9    H4      20.392483   20.691463   21.938178 H          1 MOL1         0.0712
      10    C4      19.579868   18.933186   20.928736 C.3        1 MOL1        -0.1921
      11    H5      19.691722   19.347137   19.917090 H          1 MOL1         0.0712
      12    H6      18.647129   18.352501   20.922930 H          1 MOL1         0.0712
      13    C5      20.773067   17.995826   21.207874 C.3        1 MOL1        -0.2936
      14    H7      20.889186   17.269211   20.393432 H          1 MOL1         0.0724
      15    H8      20.627848   17.429946   22.136147 H          1 MOL1         0.0724
      16    H9      21.708972   18.563514   21.292376 H          1 MOL1         0.0724
@<TRIPOS>BOND
    1     1     2    1
    2     1     3    2
    3     1     4    1
    4     4     5    1
    5     4     6    1
    6     4     7    1
    7     7     8    1
    8     7     9    1
    9     7    10    1
   10    10    11    1
   11    10    12    1
   12    10    13    1
   13    13    14    1
   14    13    15    1
   15    13    16    1
@<TRIPOS>SUBSTRUCTURE
       1 MOL1            1 RESIDUE      1      MOL     
@<SCITEGIC>MOL_PROPERTY
VConf Rank
SciTegic.value.IntegerValue
520

@<SCITEGIC>MOL_PROPERTY
Conf_Id
SciTegic.value.IntegerValue
45

@<SCITEGIC>MOL_PROPERTY
Delta U+W
SciTegic.value.DoubleValue
2.303

@<SCITEGIC>MOL_PROPERTY
U+W
SciTegic.value.DoubleValue
-54.601

@<SCITEGIC>MOL_PROPERTY
Grad RMS
SciTegic.value.DoubleValue
0.000000

@<SCITEGIC>MOL_PROPERTY
U
SciTegic.value.DoubleValue
11.258

@<SCITEGIC>MOL_PROPERTY
W
SciTegic.value.DoubleValue
-65.860

@<SCITEGIC>MOL_PROPERTY
W(PB)
SciTegic.value.DoubleValue
-67.709

@<SCITEGIC>MOL_PROPERTY
W(SA)
SciTegic.value.DoubleValue
1.849

@<SCITEGIC>MOL_PROPERTY
Valence
SciTegic.value.DoubleValue
8.169

@<SCITEGIC>MOL_PROPERTY
Coulomb
SciTegic.value.DoubleValue
2.735

@<SCITEGIC>MOL_PROPERTY
VdW
SciTegic.value.DoubleValue
0.355

@<SCITEGIC>MOL_PROPERTY
VdW6
SciTegic.value.DoubleValue
-6.245

@<SCITEGIC>MOL_PROPERTY
VdW12
SciTegic.value.DoubleValue
6.600

@<SCITEGIC>MOL_PROPERTY
Bond
SciTegic.value.DoubleValue
0.149

@<SCITEGIC>MOL_PROPERTY
Angle
SciTegic.value.DoubleValue
3.168

@<SCITEGIC>MOL_PROPERTY
Pdih
SciTegic.value.DoubleValue
4.840

@<SCITEGIC>MOL_PROPERTY
Idih
SciTegic.value.DoubleValue
0.011

@<SCITEGIC>MOL_PROPERTY
Tether
SciTegic.value.DoubleValue
0.000

@<TRIPOS>MOLECULE
guest-s18_confgen4.mol2 : confsearch ligand conformer 521
          16          15           1
SMALL
USER_CHARGES
 
@<TRIPOS>ATOM
       1    C1      17.661981   18.997457   20.465132 C.2        1 MOL1         0.6075
       2    O1      18.224253   18.997431   19.387345 O.co2      1 MOL1        -0.6830
       3    O2      16.453820   18.952062   20.581756 O.co2      1 MOL1        -0.6830
       4    C2      18.486041   19.057006   21.752483 C.3        1 MOL1        -0.2050
       5    H1      18.222939   18.176472   22.350478 H          1 MOL1         0.0710
       6    H2      18.152351   19.937499   22.314218 H          1 MOL1         0.0710
       7    C3      20.024103   19.114574   21.553993 C.3        1 MOL1        -0.1947
       8    H3      20.351748   18.232805   20.986012 H          1 MOL1         0.0712
       9    H4      20.281084   19.995651   20.949731 H          1 MOL1         0.0712
      10    C4      20.774452   19.172370   22.901174 C.3        1 MOL1        -0.1921
      11    H5      20.519682   18.290858   23.505763 H          1 MOL1         0.0712
      12    H6      20.448982   20.054758   23.469471 H          1 MOL1         0.0712
      13    C5      22.301345   19.229377   22.697480 C.3        1 MOL1        -0.2936
      14    H7      22.658991   18.342357   22.158264 H          1 MOL1         0.0724
      15    H8      22.819380   19.270035   23.664501 H          1 MOL1         0.0724
      16    H9      22.587775   20.119269   22.121705 H          1 MOL1         0.0724
@<TRIPOS>BOND
    1     1     2    1
    2     1     3    2
    3     1     4    1
    4     4     5    1
    5     4     6    1
    6     4     7    1
    7     7     8    1
    8     7     9    1
    9     7    10    1
   10    10    11    1
   11    10    12    1
   12    10    13    1
   13    13    14    1
   14    13    15    1
   15    13    16    1
@<TRIPOS>SUBSTRUCTURE
       1 MOL1            1 RESIDUE      1      MOL     
@<SCITEGIC>MOL_PROPERTY
VConf Rank
SciTegic.value.IntegerValue
521

@<SCITEGIC>MOL_PROPERTY
Conf_Id
SciTegic.value.IntegerValue
0

@<SCITEGIC>MOL_PROPERTY
Delta U+W
SciTegic.value.DoubleValue
0.000

@<SCITEGIC>MOL_PROPERTY
U+W
SciTegic.value.DoubleValue
-56.904

@<SCITEGIC>MOL_PROPERTY
Grad RMS
SciTegic.value.DoubleValue
0.000000

@<SCITEGIC>MOL_PROPERTY
U
SciTegic.value.DoubleValue
7.329

@<SCITEGIC>MOL_PROPERTY
W
SciTegic.value.DoubleValue
-64.233

@<SCITEGIC>MOL_PROPERTY
W(PB)
SciTegic.value.DoubleValue
-66.148

@<SCITEGIC>MOL_PROPERTY
W(SA)
SciTegic.value.DoubleValue
1.915

@<SCITEGIC>MOL_PROPERTY
Valence
SciTegic.value.DoubleValue
6.755

@<SCITEGIC>MOL_PROPERTY
Coulomb
SciTegic.value.DoubleValue
-0.421

@<SCITEGIC>MOL_PROPERTY
VdW
SciTegic.value.DoubleValue
0.995

@<SCITEGIC>MOL_PROPERTY
VdW6
SciTegic.value.DoubleValue
-4.495

@<SCITEGIC>MOL_PROPERTY
VdW12
SciTegic.value.DoubleValue
5.490

@<SCITEGIC>MOL_PROPERTY
Bond
SciTegic.value.DoubleValue
0.106

@<SCITEGIC>MOL_PROPERTY
Angle
SciTegic.value.DoubleValue
2.715

@<SCITEGIC>MOL_PROPERTY
Pdih
SciTegic.value.DoubleValue
3.934

@<SCITEGIC>MOL_PROPERTY
Idih
SciTegic.value.DoubleValue
0.000

@<SCITEGIC>MOL_PROPERTY
Tether
SciTegic.value.DoubleValue
0.000

@<TRIPOS>MOLECULE
guest-s18_confgen4.mol2 : confsearch ligand conformer 522
          16          15           1
SMALL
USER_CHARGES
 
@<TRIPOS>ATOM
       1    C1      22.646117   19.886147   21.663903 C.2        1 MOL1         0.6075
       2    O1      22.808391   20.944133   21.089293 O.co2      1 MOL1        -0.6830
       3    O2      23.393486   19.467867   22.525486 O.co2      1 MOL1        -0.6830
       4    C2      21.428056   19.045956   21.296495 C.3        1 MOL1        -0.2050
       5    H1      21.693903   17.988803   21.417334 H          1 MOL1         0.0710
       6    H2      21.211450   19.205987   20.233329 H          1 MOL1         0.0710
       7    C3      20.182278   19.384228   22.151873 C.3        1 MOL1        -0.1947
       8    H3      20.418695   19.231006   23.214031 H          1 MOL1         0.0712
       9    H4      19.936254   20.448266   22.030029 H          1 MOL1         0.0712
      10    C4      18.965086   18.520777   21.760136 C.3        1 MOL1        -0.1921
      11    H5      19.210493   17.456662   21.882500 H          1 MOL1         0.0712
      12    H6      18.727949   18.674209   20.698174 H          1 MOL1         0.0712
      13    C5      17.729115   18.862851   22.615391 C.3        1 MOL1        -0.2936
      14    H7      17.442168   19.914929   22.487854 H          1 MOL1         0.0724
      15    H8      17.928284   18.688411   23.680930 H          1 MOL1         0.0724
      16    H9      16.873019   18.240361   22.324262 H          1 MOL1         0.0724
@<TRIPOS>BOND
    1     1     2    1
    2     1     3    2
    3     1     4    1
    4     4     5    1
    5     4     6    1
    6     4     7    1
    7     7     8    1
    8     7     9    1
    9     7    10    1
   10    10    11    1
   11    10    12    1
   12    10    13    1
   13    13    14    1
   14    13    15    1
   15    13    16    1
@<TRIPOS>SUBSTRUCTURE
       1 MOL1            1 RESIDUE      1      MOL     
@<SCITEGIC>MOL_PROPERTY
VConf Rank
SciTegic.value.IntegerValue
522

@<SCITEGIC>MOL_PROPERTY
Conf_Id
SciTegic.value.IntegerValue
22

@<SCITEGIC>MOL_PROPERTY
Delta U+W
SciTegic.value.DoubleValue
-1.185

@<SCITEGIC>MOL_PROPERTY
U+W
SciTegic.value.DoubleValue
-58.089

@<SCITEGIC>MOL_PROPERTY
Grad RMS
SciTegic.value.DoubleValue
0.000000

@<SCITEGIC>MOL_PROPERTY
U
SciTegic.value.DoubleValue
6.298

@<SCITEGIC>MOL_PROPERTY
W
SciTegic.value.DoubleValue
-64.387

@<SCITEGIC>MOL_PROPERTY
W(PB)
SciTegic.value.DoubleValue
-66.329

@<SCITEGIC>MOL_PROPERTY
W(SA)
SciTegic.value.DoubleValue
1.942

@<SCITEGIC>MOL_PROPERTY
Valence
SciTegic.value.DoubleValue
6.246

@<SCITEGIC>MOL_PROPERTY
Coulomb
SciTegic.value.DoubleValue
-0.408

@<SCITEGIC>MOL_PROPERTY
VdW
SciTegic.value.DoubleValue
0.460

@<SCITEGIC>MOL_PROPERTY
VdW6
SciTegic.value.DoubleValue
-4.207

@<SCITEGIC>MOL_PROPERTY
VdW12
SciTegic.value.DoubleValue
4.667

@<SCITEGIC>MOL_PROPERTY
Bond
SciTegic.value.DoubleValue
0.072

@<SCITEGIC>MOL_PROPERTY
Angle
SciTegic.value.DoubleValue
2.246

@<SCITEGIC>MOL_PROPERTY
Pdih
SciTegic.value.DoubleValue
3.928

@<SCITEGIC>MOL_PROPERTY
Idih
SciTegic.value.DoubleValue
0.001

@<SCITEGIC>MOL_PROPERTY
Tether
SciTegic.value.DoubleValue
0.000

@<TRIPOS>MOLECULE
guest-s18_confgen4.mol2 : confsearch ligand conformer 523
          16          15           1
SMALL
USER_CHARGES
 
@<TRIPOS>ATOM
       1    C1      17.910842   19.272902   20.418581 C.2        1 MOL1         0.6075
       2    O1      17.635579   20.274142   19.787912 O.co2      1 MOL1        -0.6830
       3    O2      17.107331   18.398311   20.674352 O.co2      1 MOL1        -0.6830
       4    C2      19.337074   19.115420   20.933978 C.3        1 MOL1        -0.2050
       5    H1      20.013316   19.595858   20.216732 H          1 MOL1         0.0710
       6    H2      19.574778   18.045563   20.938545 H          1 MOL1         0.0710
       7    C3      19.536454   19.723974   22.346388 C.3        1 MOL1        -0.1947
       8    H3      19.207812   20.772361   22.328852 H          1 MOL1         0.0712
       9    H4      18.885064   19.206149   23.063923 H          1 MOL1         0.0712
      10    C4      21.001279   19.670816   22.838191 C.3        1 MOL1        -0.1921
      11    H5      21.074468   20.215945   23.789393 H          1 MOL1         0.0712
      12    H6      21.651240   20.198773   22.126719 H          1 MOL1         0.0712
      13    C5      21.521201   18.232493   23.047579 C.3        1 MOL1        -0.2936
      14    H7      21.573423   17.683057   22.099331 H          1 MOL1         0.0724
      15    H8      20.870028   17.675335   23.733727 H          1 MOL1         0.0724
      16    H9      22.530828   18.248473   23.478165 H          1 MOL1         0.0724
@<TRIPOS>BOND
    1     1     2    1
    2     1     3    2
    3     1     4    1
    4     4     5    1
    5     4     6    1
    6     4     7    1
    7     7     8    1
    8     7     9    1
    9     7    10    1
   10    10    11    1
   11    10    12    1
   12    10    13    1
   13    13    14    1
   14    13    15    1
   15    13    16    1
@<TRIPOS>SUBSTRUCTURE
       1 MOL1            1 RESIDUE      1      MOL     
@<SCITEGIC>MOL_PROPERTY
VConf Rank
SciTegic.value.IntegerValue
523

@<SCITEGIC>MOL_PROPERTY
Conf_Id
SciTegic.value.IntegerValue
36

@<SCITEGIC>MOL_PROPERTY
Delta U+W
SciTegic.value.DoubleValue
-0.427

@<SCITEGIC>MOL_PROPERTY
U+W
SciTegic.value.DoubleValue
-57.331

@<SCITEGIC>MOL_PROPERTY
Grad RMS
SciTegic.value.DoubleValue
0.000000

@<SCITEGIC>MOL_PROPERTY
U
SciTegic.value.DoubleValue
7.263

@<SCITEGIC>MOL_PROPERTY
W
SciTegic.value.DoubleValue
-64.594

@<SCITEGIC>MOL_PROPERTY
W(PB)
SciTegic.value.DoubleValue
-66.513

@<SCITEGIC>MOL_PROPERTY
W(SA)
SciTegic.value.DoubleValue
1.920

@<SCITEGIC>MOL_PROPERTY
Valence
SciTegic.value.DoubleValue
6.734

@<SCITEGIC>MOL_PROPERTY
Coulomb
SciTegic.value.DoubleValue
-0.068

@<SCITEGIC>MOL_PROPERTY
VdW
SciTegic.value.DoubleValue
0.598

@<SCITEGIC>MOL_PROPERTY
VdW6
SciTegic.value.DoubleValue
-4.819

@<SCITEGIC>MOL_PROPERTY
VdW12
SciTegic.value.DoubleValue
5.417

@<SCITEGIC>MOL_PROPERTY
Bond
SciTegic.value.DoubleValue
0.107

@<SCITEGIC>MOL_PROPERTY
Angle
SciTegic.value.DoubleValue
2.469

@<SCITEGIC>MOL_PROPERTY
Pdih
SciTegic.value.DoubleValue
4.157

@<SCITEGIC>MOL_PROPERTY
Idih
SciTegic.value.DoubleValue
0.001

@<SCITEGIC>MOL_PROPERTY
Tether
SciTegic.value.DoubleValue
0.000

@<TRIPOS>MOLECULE
guest-s18_confgen4.mol2 : confsearch ligand conformer 524
          16          15           1
SMALL
USER_CHARGES
 
@<TRIPOS>ATOM
       1    C1      17.986858   19.265084   20.323966 C.2        1 MOL1         0.6075
       2    O1      18.360557   19.075995   19.183548 O.co2      1 MOL1        -0.6830
       3    O2      16.932016   19.798159   20.605276 O.co2      1 MOL1        -0.6830
       4    C2      18.899866   18.828033   21.464131 C.3        1 MOL1        -0.2050
       5    H1      19.439909   17.932721   21.135668 H          1 MOL1         0.0710
       6    H2      18.269266   18.534809   22.312028 H          1 MOL1         0.0710
       7    C3      19.894578   19.936521   21.896331 C.3        1 MOL1        -0.1947
       8    H3      20.548921   20.191639   21.051310 H          1 MOL1         0.0712
       9    H4      19.327113   20.846540   22.135660 H          1 MOL1         0.0712
      10    C4      20.752587   19.549278   23.122818 C.3        1 MOL1        -0.1921
      11    H5      20.098562   19.305459   23.971454 H          1 MOL1         0.0712
      12    H6      21.345883   20.422106   23.428561 H          1 MOL1         0.0712
      13    C5      21.708794   18.368886   22.848456 C.3        1 MOL1        -0.2936
      14    H7      21.155449   17.442710   22.648981 H          1 MOL1         0.0724
      15    H8      22.355197   18.188974   23.717249 H          1 MOL1         0.0724
      16    H9      22.353732   18.578224   21.985043 H          1 MOL1         0.0724
@<TRIPOS>BOND
    1     1     2    1
    2     1     3    2
    3     1     4    1
    4     4     5    1
    5     4     6    1
    6     4     7    1
    7     7     8    1
    8     7     9    1
    9     7    10    1
   10    10    11    1
   11    10    12    1
   12    10    13    1
   13    13    14    1
   14    13    15    1
   15    13    16    1
@<TRIPOS>SUBSTRUCTURE
       1 MOL1            1 RESIDUE      1      MOL     
@<SCITEGIC>MOL_PROPERTY
VConf Rank
SciTegic.value.IntegerValue
524

@<SCITEGIC>MOL_PROPERTY
Conf_Id
SciTegic.value.IntegerValue
17

@<SCITEGIC>MOL_PROPERTY
Delta U+W
SciTegic.value.DoubleValue
-0.432

@<SCITEGIC>MOL_PROPERTY
U+W
SciTegic.value.DoubleValue
-57.336

@<SCITEGIC>MOL_PROPERTY
Grad RMS
SciTegic.value.DoubleValue
0.000000

@<SCITEGIC>MOL_PROPERTY
U
SciTegic.value.DoubleValue
7.263

@<SCITEGIC>MOL_PROPERTY
W
SciTegic.value.DoubleValue
-64.599

@<SCITEGIC>MOL_PROPERTY
W(PB)
SciTegic.value.DoubleValue
-66.503

@<SCITEGIC>MOL_PROPERTY
W(SA)
SciTegic.value.DoubleValue
1.904

@<SCITEGIC>MOL_PROPERTY
Valence
SciTegic.value.DoubleValue
6.734

@<SCITEGIC>MOL_PROPERTY
Coulomb
SciTegic.value.DoubleValue
-0.068

@<SCITEGIC>MOL_PROPERTY
VdW
SciTegic.value.DoubleValue
0.598

@<SCITEGIC>MOL_PROPERTY
VdW6
SciTegic.value.DoubleValue
-4.819

@<SCITEGIC>MOL_PROPERTY
VdW12
SciTegic.value.DoubleValue
5.417

@<SCITEGIC>MOL_PROPERTY
Bond
SciTegic.value.DoubleValue
0.107

@<SCITEGIC>MOL_PROPERTY
Angle
SciTegic.value.DoubleValue
2.469

@<SCITEGIC>MOL_PROPERTY
Pdih
SciTegic.value.DoubleValue
4.157

@<SCITEGIC>MOL_PROPERTY
Idih
SciTegic.value.DoubleValue
0.001

@<SCITEGIC>MOL_PROPERTY
Tether
SciTegic.value.DoubleValue
0.000

@<TRIPOS>MOLECULE
guest-s18_confgen4.mol2 : confsearch ligand conformer 525
          16          15           1
SMALL
USER_CHARGES
 
@<TRIPOS>ATOM
       1    C1      17.781396   18.927596   21.955255 C.2        1 MOL1         0.6075
       2    O1      17.402158   18.326193   20.969946 O.co2      1 MOL1        -0.6830
       3    O2      17.392505   18.685084   23.080517 O.co2      1 MOL1        -0.6830
       4    C2      18.781911   20.064209   21.764013 C.3        1 MOL1        -0.2050
       5    H1      18.753185   20.709436   22.650546 H          1 MOL1         0.0710
       6    H2      18.432747   20.670179   20.919549 H          1 MOL1         0.0710
       7    C3      20.233601   19.589801   21.494628 C.3        1 MOL1        -0.1947
       8    H3      20.242493   18.922173   20.621806 H          1 MOL1         0.0712
       9    H4      20.850305   20.460339   21.233101 H          1 MOL1         0.0712
      10    C4      20.858384   18.870412   22.709662 C.3        1 MOL1        -0.1921
      11    H5      20.260596   17.985163   22.967939 H          1 MOL1         0.0712
      12    H6      20.837484   19.534693   23.584689 H          1 MOL1         0.0712
      13    C5      22.311327   18.439710   22.427177 C.3        1 MOL1        -0.2936
      14    H7      22.357293   17.749480   21.574581 H          1 MOL1         0.0724
      15    H8      22.739899   17.929655   23.299694 H          1 MOL1         0.0724
      16    H9      22.941818   19.309158   22.199237 H          1 MOL1         0.0724
@<TRIPOS>BOND
    1     1     2    1
    2     1     3    2
    3     1     4    1
    4     4     5    1
    5     4     6    1
    6     4     7    1
    7     7     8    1
    8     7     9    1
    9     7    10    1
   10    10    11    1
   11    10    12    1
   12    10    13    1
   13    13    14    1
   14    13    15    1
   15    13    16    1
@<TRIPOS>SUBSTRUCTURE
       1 MOL1            1 RESIDUE      1      MOL     
@<SCITEGIC>MOL_PROPERTY
VConf Rank
SciTegic.value.IntegerValue
525

@<SCITEGIC>MOL_PROPERTY
Conf_Id
SciTegic.value.IntegerValue
19

@<SCITEGIC>MOL_PROPERTY
Delta U+W
SciTegic.value.DoubleValue
0.048

@<SCITEGIC>MOL_PROPERTY
U+W
SciTegic.value.DoubleValue
-56.856

@<SCITEGIC>MOL_PROPERTY
Grad RMS
SciTegic.value.DoubleValue
0.000000

@<SCITEGIC>MOL_PROPERTY
U
SciTegic.value.DoubleValue
8.276

@<SCITEGIC>MOL_PROPERTY
W
SciTegic.value.DoubleValue
-65.132

@<SCITEGIC>MOL_PROPERTY
W(PB)
SciTegic.value.DoubleValue
-67.031

@<SCITEGIC>MOL_PROPERTY
W(SA)
SciTegic.value.DoubleValue
1.899

@<SCITEGIC>MOL_PROPERTY
Valence
SciTegic.value.DoubleValue
6.513

@<SCITEGIC>MOL_PROPERTY
Coulomb
SciTegic.value.DoubleValue
1.428

@<SCITEGIC>MOL_PROPERTY
VdW
SciTegic.value.DoubleValue
0.335

@<SCITEGIC>MOL_PROPERTY
VdW6
SciTegic.value.DoubleValue
-5.021

@<SCITEGIC>MOL_PROPERTY
VdW12
SciTegic.value.DoubleValue
5.356

@<SCITEGIC>MOL_PROPERTY
Bond
SciTegic.value.DoubleValue
0.092

@<SCITEGIC>MOL_PROPERTY
Angle
SciTegic.value.DoubleValue
2.417

@<SCITEGIC>MOL_PROPERTY
Pdih
SciTegic.value.DoubleValue
4.003

@<SCITEGIC>MOL_PROPERTY
Idih
SciTegic.value.DoubleValue
0.001

@<SCITEGIC>MOL_PROPERTY
Tether
SciTegic.value.DoubleValue
0.000

@<TRIPOS>MOLECULE
guest-s18_confgen4.mol2 : confsearch ligand conformer 526
          16          15           1
SMALL
USER_CHARGES
 
@<TRIPOS>ATOM
       1    C1      19.887489   21.525610   21.963413 C.2        1 MOL1         0.6075
       2    O1      19.179425   21.972114   21.082719 O.co2      1 MOL1        -0.6830
       3    O2      21.040521   21.867784   22.135732 O.co2      1 MOL1        -0.6830
       4    C2      19.286947   20.497028   22.917806 C.3        1 MOL1        -0.2050
       5    H1      18.298807   20.865463   23.217926 H          1 MOL1         0.0710
       6    H2      19.901065   20.460849   23.825901 H          1 MOL1         0.0710
       7    C3      19.146627   19.077142   22.310123 C.3        1 MOL1        -0.1947
       8    H3      18.583625   18.444227   23.009412 H          1 MOL1         0.0712
       9    H4      18.553642   19.133241   21.386627 H          1 MOL1         0.0712
      10    C4      20.512296   18.419605   22.015534 C.3        1 MOL1        -0.1921
      11    H5      21.108890   18.375451   22.937220 H          1 MOL1         0.0712
      12    H6      21.076633   19.034318   21.300430 H          1 MOL1         0.0712
      13    C5      20.344694   16.997635   21.444340 C.3        1 MOL1        -0.2936
      14    H7      19.813187   16.349335   22.153299 H          1 MOL1         0.0724
      15    H8      21.323824   16.545297   21.239856 H          1 MOL1         0.0724
      16    H9      19.777126   17.016579   20.504682 H          1 MOL1         0.0724
@<TRIPOS>BOND
    1     1     2    1
    2     1     3    2
    3     1     4    1
    4     4     5    1
    5     4     6    1
    6     4     7    1
    7     7     8    1
    8     7     9    1
    9     7    10    1
   10    10    11    1
   11    10    12    1
   12    10    13    1
   13    13    14    1
   14    13    15    1
   15    13    16    1
@<TRIPOS>SUBSTRUCTURE
       1 MOL1            1 RESIDUE      1      MOL     
@<SCITEGIC>MOL_PROPERTY
VConf Rank
SciTegic.value.IntegerValue
526

@<SCITEGIC>MOL_PROPERTY
Conf_Id
SciTegic.value.IntegerValue
20

@<SCITEGIC>MOL_PROPERTY
Delta U+W
SciTegic.value.DoubleValue
-0.010

@<SCITEGIC>MOL_PROPERTY
U+W
SciTegic.value.DoubleValue
-56.914

@<SCITEGIC>MOL_PROPERTY
Grad RMS
SciTegic.value.DoubleValue
0.000000

@<SCITEGIC>MOL_PROPERTY
U
SciTegic.value.DoubleValue
8.277

@<SCITEGIC>MOL_PROPERTY
W
SciTegic.value.DoubleValue
-65.191

@<SCITEGIC>MOL_PROPERTY
W(PB)
SciTegic.value.DoubleValue
-67.081

@<SCITEGIC>MOL_PROPERTY
W(SA)
SciTegic.value.DoubleValue
1.890

@<SCITEGIC>MOL_PROPERTY
Valence
SciTegic.value.DoubleValue
6.513

@<SCITEGIC>MOL_PROPERTY
Coulomb
SciTegic.value.DoubleValue
1.429

@<SCITEGIC>MOL_PROPERTY
VdW
SciTegic.value.DoubleValue
0.335

@<SCITEGIC>MOL_PROPERTY
VdW6
SciTegic.value.DoubleValue
-5.021

@<SCITEGIC>MOL_PROPERTY
VdW12
SciTegic.value.DoubleValue
5.356

@<SCITEGIC>MOL_PROPERTY
Bond
SciTegic.value.DoubleValue
0.092

@<SCITEGIC>MOL_PROPERTY
Angle
SciTegic.value.DoubleValue
2.417

@<SCITEGIC>MOL_PROPERTY
Pdih
SciTegic.value.DoubleValue
4.002

@<SCITEGIC>MOL_PROPERTY
Idih
SciTegic.value.DoubleValue
0.001

@<SCITEGIC>MOL_PROPERTY
Tether
SciTegic.value.DoubleValue
0.000

@<TRIPOS>MOLECULE
guest-s18_confgen4.mol2 : confsearch ligand conformer 527
          16          15           1
SMALL
USER_CHARGES
 
@<TRIPOS>ATOM
       1    C1      19.920021   18.760503   20.062214 C.2        1 MOL1         0.6075
       2    O1      20.824066   18.151177   19.525363 O.co2      1 MOL1        -0.6830
       3    O2      19.459660   19.797399   19.627226 O.co2      1 MOL1        -0.6830
       4    C2      19.309594   18.171960   21.331364 C.3        1 MOL1        -0.2050
       5    H1      19.069480   17.123173   21.120955 H          1 MOL1         0.0710
       6    H2      18.355942   18.674666   21.529055 H          1 MOL1         0.0710
       7    C3      20.235865   18.245944   22.576044 C.3        1 MOL1        -0.1947
       8    H3      19.751377   17.731077   23.416612 H          1 MOL1         0.0712
       9    H4      21.158023   17.687671   22.363180 H          1 MOL1         0.0712
      10    C4      20.610488   19.683765   23.007688 C.3        1 MOL1        -0.1921
      11    H5      21.127694   20.198635   22.186102 H          1 MOL1         0.0712
      12    H6      21.328450   19.626870   23.837399 H          1 MOL1         0.0712
      13    C5      19.394159   20.520438   23.458207 C.3        1 MOL1        -0.2936
      14    H7      18.707767   20.706873   22.622387 H          1 MOL1         0.0724
      15    H8      19.720520   21.495294   23.842921 H          1 MOL1         0.0724
      16    H9      18.838495   20.010303   24.255743 H          1 MOL1         0.0724
@<TRIPOS>BOND
    1     1     2    1
    2     1     3    2
    3     1     4    1
    4     4     5    1
    5     4     6    1
    6     4     7    1
    7     7     8    1
    8     7     9    1
    9     7    10    1
   10    10    11    1
   11    10    12    1
   12    10    13    1
   13    13    14    1
   14    13    15    1
   15    13    16    1
@<TRIPOS>SUBSTRUCTURE
       1 MOL1            1 RESIDUE      1      MOL     
@<SCITEGIC>MOL_PROPERTY
VConf Rank
SciTegic.value.IntegerValue
527

@<SCITEGIC>MOL_PROPERTY
Conf_Id
SciTegic.value.IntegerValue
37

@<SCITEGIC>MOL_PROPERTY
Delta U+W
SciTegic.value.DoubleValue
1.063

@<SCITEGIC>MOL_PROPERTY
U+W
SciTegic.value.DoubleValue
-55.841

@<SCITEGIC>MOL_PROPERTY
Grad RMS
SciTegic.value.DoubleValue
0.000000

@<SCITEGIC>MOL_PROPERTY
U
SciTegic.value.DoubleValue
9.719

@<SCITEGIC>MOL_PROPERTY
W
SciTegic.value.DoubleValue
-65.560

@<SCITEGIC>MOL_PROPERTY
W(PB)
SciTegic.value.DoubleValue
-67.414

@<SCITEGIC>MOL_PROPERTY
W(SA)
SciTegic.value.DoubleValue
1.854

@<SCITEGIC>MOL_PROPERTY
Valence
SciTegic.value.DoubleValue
7.002

@<SCITEGIC>MOL_PROPERTY
Coulomb
SciTegic.value.DoubleValue
2.402

@<SCITEGIC>MOL_PROPERTY
VdW
SciTegic.value.DoubleValue
0.314

@<SCITEGIC>MOL_PROPERTY
VdW6
SciTegic.value.DoubleValue
-5.861

@<SCITEGIC>MOL_PROPERTY
VdW12
SciTegic.value.DoubleValue
6.175

@<SCITEGIC>MOL_PROPERTY
Bond
SciTegic.value.DoubleValue
0.134

@<SCITEGIC>MOL_PROPERTY
Angle
SciTegic.value.DoubleValue
2.733

@<SCITEGIC>MOL_PROPERTY
Pdih
SciTegic.value.DoubleValue
4.133

@<SCITEGIC>MOL_PROPERTY
Idih
SciTegic.value.DoubleValue
0.002

@<SCITEGIC>MOL_PROPERTY
Tether
SciTegic.value.DoubleValue
0.000

@<TRIPOS>MOLECULE
guest-s18_confgen4.mol2 : confsearch ligand conformer 528
          16          15           1
SMALL
USER_CHARGES
 
@<TRIPOS>ATOM
       1    C1      22.136443   19.901241   21.985413 C.2        1 MOL1         0.6075
       2    O1      22.419230   20.859733   21.293957 O.co2      1 MOL1        -0.6830
       3    O2      22.538200   19.753272   23.122513 O.co2      1 MOL1        -0.6830
       4    C2      21.258187   18.810224   21.378705 C.3        1 MOL1        -0.2050
       5    H1      21.323248   17.915406   22.008243 H          1 MOL1         0.0710
       6    H2      21.696182   18.540700   20.410512 H          1 MOL1         0.0710
       7    C3      19.776430   19.227990   21.172440 C.3        1 MOL1        -0.1947
       8    H3      19.744704   20.092532   20.495008 H          1 MOL1         0.0712
       9    H4      19.241290   18.416458   20.661154 H          1 MOL1         0.0712
      10    C4      19.027711   19.588135   22.477701 C.3        1 MOL1        -0.1921
      11    H5      18.021933   19.947118   22.219493 H          1 MOL1         0.0712
      12    H6      19.534051   20.423147   22.981658 H          1 MOL1         0.0712
      13    C5      18.896810   18.398481   23.452395 C.3        1 MOL1        -0.2936
      14    H7      18.425114   17.537116   22.961865 H          1 MOL1         0.0724
      15    H8      18.279155   18.676502   24.316147 H          1 MOL1         0.0724
      16    H9      19.877609   18.086093   23.833097 H          1 MOL1         0.0724
@<TRIPOS>BOND
    1     1     2    1
    2     1     3    2
    3     1     4    1
    4     4     5    1
    5     4     6    1
    6     4     7    1
    7     7     8    1
    8     7     9    1
    9     7    10    1
   10    10    11    1
   11    10    12    1
   12    10    13    1
   13    13    14    1
   14    13    15    1
   15    13    16    1
@<TRIPOS>SUBSTRUCTURE
       1 MOL1            1 RESIDUE      1      MOL     
@<SCITEGIC>MOL_PROPERTY
VConf Rank
SciTegic.value.IntegerValue
528

@<SCITEGIC>MOL_PROPERTY
Conf_Id
SciTegic.value.IntegerValue
39

@<SCITEGIC>MOL_PROPERTY
Delta U+W
SciTegic.value.DoubleValue
1.129

@<SCITEGIC>MOL_PROPERTY
U+W
SciTegic.value.DoubleValue
-55.775

@<SCITEGIC>MOL_PROPERTY
Grad RMS
SciTegic.value.DoubleValue
0.000000

@<SCITEGIC>MOL_PROPERTY
U
SciTegic.value.DoubleValue
9.718

@<SCITEGIC>MOL_PROPERTY
W
SciTegic.value.DoubleValue
-65.493

@<SCITEGIC>MOL_PROPERTY
W(PB)
SciTegic.value.DoubleValue
-67.361

@<SCITEGIC>MOL_PROPERTY
W(SA)
SciTegic.value.DoubleValue
1.869

@<SCITEGIC>MOL_PROPERTY
Valence
SciTegic.value.DoubleValue
7.002

@<SCITEGIC>MOL_PROPERTY
Coulomb
SciTegic.value.DoubleValue
2.402

@<SCITEGIC>MOL_PROPERTY
VdW
SciTegic.value.DoubleValue
0.314

@<SCITEGIC>MOL_PROPERTY
VdW6
SciTegic.value.DoubleValue
-5.861

@<SCITEGIC>MOL_PROPERTY
VdW12
SciTegic.value.DoubleValue
6.175

@<SCITEGIC>MOL_PROPERTY
Bond
SciTegic.value.DoubleValue
0.134

@<SCITEGIC>MOL_PROPERTY
Angle
SciTegic.value.DoubleValue
2.734

@<SCITEGIC>MOL_PROPERTY
Pdih
SciTegic.value.DoubleValue
4.133

@<SCITEGIC>MOL_PROPERTY
Idih
SciTegic.value.DoubleValue
0.002

@<SCITEGIC>MOL_PROPERTY
Tether
SciTegic.value.DoubleValue
0.000

@<TRIPOS>MOLECULE
guest-s18_confgen4.mol2 : confsearch ligand conformer 529
          16          15           1
SMALL
USER_CHARGES
 
@<TRIPOS>ATOM
       1    C1      17.994340   19.254027   22.838752 C.2        1 MOL1         0.6075
       2    O1      17.890548   19.202879   24.048476 O.co2      1 MOL1        -0.6830
       3    O2      17.301237   18.604925   22.080180 O.co2      1 MOL1        -0.6830
       4    C2      18.984821   20.252082   22.241685 C.3        1 MOL1        -0.2050
       5    H1      19.466388   20.807373   23.055763 H          1 MOL1         0.0710
       6    H2      18.388777   20.978384   21.676915 H          1 MOL1         0.0710
       7    C3      20.059051   19.639371   21.299560 C.3        1 MOL1        -0.1947
       8    H3      19.589298   18.921638   20.612734 H          1 MOL1         0.0712
       9    H4      20.456585   20.446026   20.668904 H          1 MOL1         0.0712
      10    C4      21.253962   18.975832   22.025829 C.3        1 MOL1        -0.1921
      11    H5      21.719530   19.695911   22.712824 H          1 MOL1         0.0712
      12    H6      22.018671   18.724353   21.277984 H          1 MOL1         0.0712
      13    C5      20.881325   17.691234   22.794748 C.3        1 MOL1        -0.2936
      14    H7      20.245144   17.913947   23.660007 H          1 MOL1         0.0724
      15    H8      21.784449   17.192286   23.169163 H          1 MOL1         0.0724
      16    H9      20.347162   16.984548   22.146216 H          1 MOL1         0.0724
@<TRIPOS>BOND
    1     1     2    1
    2     1     3    2
    3     1     4    1
    4     4     5    1
    5     4     6    1
    6     4     7    1
    7     7     8    1
    8     7     9    1
    9     7    10    1
   10    10    11    1
   11    10    12    1
   12    10    13    1
   13    13    14    1
   14    13    15    1
   15    13    16    1
@<TRIPOS>SUBSTRUCTURE
       1 MOL1            1 RESIDUE      1      MOL     
@<SCITEGIC>MOL_PROPERTY
VConf Rank
SciTegic.value.IntegerValue
529

@<SCITEGIC>MOL_PROPERTY
Conf_Id
SciTegic.value.IntegerValue
47

@<SCITEGIC>MOL_PROPERTY
Delta U+W
SciTegic.value.DoubleValue
2.301

@<SCITEGIC>MOL_PROPERTY
U+W
SciTegic.value.DoubleValue
-54.603

@<SCITEGIC>MOL_PROPERTY
Grad RMS
SciTegic.value.DoubleValue
0.000000

@<SCITEGIC>MOL_PROPERTY
U
SciTegic.value.DoubleValue
11.258

@<SCITEGIC>MOL_PROPERTY
W
SciTegic.value.DoubleValue
-65.861

@<SCITEGIC>MOL_PROPERTY
W(PB)
SciTegic.value.DoubleValue
-67.702

@<SCITEGIC>MOL_PROPERTY
W(SA)
SciTegic.value.DoubleValue
1.841

@<SCITEGIC>MOL_PROPERTY
Valence
SciTegic.value.DoubleValue
8.169

@<SCITEGIC>MOL_PROPERTY
Coulomb
SciTegic.value.DoubleValue
2.735

@<SCITEGIC>MOL_PROPERTY
VdW
SciTegic.value.DoubleValue
0.355

@<SCITEGIC>MOL_PROPERTY
VdW6
SciTegic.value.DoubleValue
-6.245

@<SCITEGIC>MOL_PROPERTY
VdW12
SciTegic.value.DoubleValue
6.600

@<SCITEGIC>MOL_PROPERTY
Bond
SciTegic.value.DoubleValue
0.149

@<SCITEGIC>MOL_PROPERTY
Angle
SciTegic.value.DoubleValue
3.168

@<SCITEGIC>MOL_PROPERTY
Pdih
SciTegic.value.DoubleValue
4.840

@<SCITEGIC>MOL_PROPERTY
Idih
SciTegic.value.DoubleValue
0.011

@<SCITEGIC>MOL_PROPERTY
Tether
SciTegic.value.DoubleValue
0.000

@<TRIPOS>MOLECULE
guest-s18_confgen4.mol2 : confsearch ligand conformer 530
          16          15           1
SMALL
USER_CHARGES
 
@<TRIPOS>ATOM
       1    C1      21.342030   20.240659   23.014333 C.2        1 MOL1         0.6075
       2    O1      20.846043   21.165554   23.627297 O.co2      1 MOL1        -0.6830
       3    O2      22.245030   20.377684   22.212688 O.co2      1 MOL1        -0.6830
       4    C2      20.869251   18.823322   23.332613 C.3        1 MOL1        -0.2050
       5    H1      21.104438   18.649292   24.389092 H          1 MOL1         0.0710
       6    H2      21.469614   18.109001   22.756168 H          1 MOL1         0.0710
       7    C3      19.354169   18.561007   23.103035 C.3        1 MOL1        -0.1947
       8    H3      19.071148   17.675196   23.687579 H          1 MOL1         0.0712
       9    H4      18.764015   19.393726   23.510265 H          1 MOL1         0.0712
      10    C4      18.958660   18.300112   21.629580 C.3        1 MOL1        -0.1921
      11    H5      17.910369   17.971871   21.604303 H          1 MOL1         0.0712
      12    H6      19.552084   17.468282   21.225676 H          1 MOL1         0.0712
      13    C5      19.106357   19.534593   20.716056 C.3        1 MOL1        -0.2936
      14    H7      18.682546   19.331133   19.724210 H          1 MOL1         0.0724
      15    H8      20.160330   19.803491   20.575222 H          1 MOL1         0.0724
      16    H9      18.582071   20.402096   21.137829 H          1 MOL1         0.0724
@<TRIPOS>BOND
    1     1     2    1
    2     1     3    2
    3     1     4    1
    4     4     5    1
    5     4     6    1
    6     4     7    1
    7     7     8    1
    8     7     9    1
    9     7    10    1
   10    10    11    1
   11    10    12    1
   12    10    13    1
   13    13    14    1
   14    13    15    1
   15    13    16    1
@<TRIPOS>SUBSTRUCTURE
       1 MOL1            1 RESIDUE      1      MOL     
@<SCITEGIC>MOL_PROPERTY
VConf Rank
SciTegic.value.IntegerValue
530

@<SCITEGIC>MOL_PROPERTY
Conf_Id
SciTegic.value.IntegerValue
45

@<SCITEGIC>MOL_PROPERTY
Delta U+W
SciTegic.value.DoubleValue
2.303

@<SCITEGIC>MOL_PROPERTY
U+W
SciTegic.value.DoubleValue
-54.601

@<SCITEGIC>MOL_PROPERTY
Grad RMS
SciTegic.value.DoubleValue
0.000000

@<SCITEGIC>MOL_PROPERTY
U
SciTegic.value.DoubleValue
11.258

@<SCITEGIC>MOL_PROPERTY
W
SciTegic.value.DoubleValue
-65.860

@<SCITEGIC>MOL_PROPERTY
W(PB)
SciTegic.value.DoubleValue
-67.709

@<SCITEGIC>MOL_PROPERTY
W(SA)
SciTegic.value.DoubleValue
1.849

@<SCITEGIC>MOL_PROPERTY
Valence
SciTegic.value.DoubleValue
8.169

@<SCITEGIC>MOL_PROPERTY
Coulomb
SciTegic.value.DoubleValue
2.735

@<SCITEGIC>MOL_PROPERTY
VdW
SciTegic.value.DoubleValue
0.355

@<SCITEGIC>MOL_PROPERTY
VdW6
SciTegic.value.DoubleValue
-6.245

@<SCITEGIC>MOL_PROPERTY
VdW12
SciTegic.value.DoubleValue
6.600

@<SCITEGIC>MOL_PROPERTY
Bond
SciTegic.value.DoubleValue
0.149

@<SCITEGIC>MOL_PROPERTY
Angle
SciTegic.value.DoubleValue
3.168

@<SCITEGIC>MOL_PROPERTY
Pdih
SciTegic.value.DoubleValue
4.840

@<SCITEGIC>MOL_PROPERTY
Idih
SciTegic.value.DoubleValue
0.011

@<SCITEGIC>MOL_PROPERTY
Tether
SciTegic.value.DoubleValue
0.000

@<TRIPOS>MOLECULE
guest-s18_confgen4.mol2 : confsearch ligand conformer 531
          16          15           1
SMALL
USER_CHARGES
 
@<TRIPOS>ATOM
       1    C1      19.468518   21.571170   20.774534 C.2        1 MOL1         0.6075
       2    O1      19.159543   22.105501   21.821816 O.co2      1 MOL1        -0.6830
       3    O2      19.460862   22.151479   19.707530 O.co2      1 MOL1        -0.6830
       4    C2      19.890819   20.100967   20.766810 C.3        1 MOL1        -0.2050
       5    H1      20.896123   20.051529   20.331976 H          1 MOL1         0.0710
       6    H2      19.218647   19.570994   20.081625 H          1 MOL1         0.0710
       7    C3      19.884528   19.401258   22.151987 C.3        1 MOL1        -0.1947
       8    H3      20.555431   19.939784   22.835615 H          1 MOL1         0.0712
       9    H4      18.876228   19.458742   22.584994 H          1 MOL1         0.0712
      10    C4      20.322526   17.925053   22.050809 C.3        1 MOL1        -0.1921
      11    H5      21.331504   17.866247   21.619526 H          1 MOL1         0.0712
      12    H6      19.651301   17.384906   21.368754 H          1 MOL1         0.0712
      13    C5      20.314258   17.235650   23.429502 C.3        1 MOL1        -0.2936
      14    H7      21.001651   17.737067   24.123434 H          1 MOL1         0.0724
      15    H8      20.627935   16.187462   23.339777 H          1 MOL1         0.0724
      16    H9      19.309053   17.252171   23.870818 H          1 MOL1         0.0724
@<TRIPOS>BOND
    1     1     2    1
    2     1     3    2
    3     1     4    1
    4     4     5    1
    5     4     6    1
    6     4     7    1
    7     7     8    1
    8     7     9    1
    9     7    10    1
   10    10    11    1
   11    10    12    1
   12    10    13    1
   13    13    14    1
   14    13    15    1
   15    13    16    1
@<TRIPOS>SUBSTRUCTURE
       1 MOL1            1 RESIDUE      1      MOL     
@<SCITEGIC>MOL_PROPERTY
VConf Rank
SciTegic.value.IntegerValue
531

@<SCITEGIC>MOL_PROPERTY
Conf_Id
SciTegic.value.IntegerValue
0

@<SCITEGIC>MOL_PROPERTY
Delta U+W
SciTegic.value.DoubleValue
0.000

@<SCITEGIC>MOL_PROPERTY
U+W
SciTegic.value.DoubleValue
-56.904

@<SCITEGIC>MOL_PROPERTY
Grad RMS
SciTegic.value.DoubleValue
0.000000

@<SCITEGIC>MOL_PROPERTY
U
SciTegic.value.DoubleValue
7.329

@<SCITEGIC>MOL_PROPERTY
W
SciTegic.value.DoubleValue
-64.233

@<SCITEGIC>MOL_PROPERTY
W(PB)
SciTegic.value.DoubleValue
-66.148

@<SCITEGIC>MOL_PROPERTY
W(SA)
SciTegic.value.DoubleValue
1.915

@<SCITEGIC>MOL_PROPERTY
Valence
SciTegic.value.DoubleValue
6.755

@<SCITEGIC>MOL_PROPERTY
Coulomb
SciTegic.value.DoubleValue
-0.421

@<SCITEGIC>MOL_PROPERTY
VdW
SciTegic.value.DoubleValue
0.995

@<SCITEGIC>MOL_PROPERTY
VdW6
SciTegic.value.DoubleValue
-4.495

@<SCITEGIC>MOL_PROPERTY
VdW12
SciTegic.value.DoubleValue
5.490

@<SCITEGIC>MOL_PROPERTY
Bond
SciTegic.value.DoubleValue
0.106

@<SCITEGIC>MOL_PROPERTY
Angle
SciTegic.value.DoubleValue
2.715

@<SCITEGIC>MOL_PROPERTY
Pdih
SciTegic.value.DoubleValue
3.934

@<SCITEGIC>MOL_PROPERTY
Idih
SciTegic.value.DoubleValue
0.000

@<SCITEGIC>MOL_PROPERTY
Tether
SciTegic.value.DoubleValue
0.000

@<TRIPOS>MOLECULE
guest-s18_confgen4.mol2 : confsearch ligand conformer 532
          16          15           1
SMALL
USER_CHARGES
 
@<TRIPOS>ATOM
       1    C1      18.495616   19.144881   24.198066 C.2        1 MOL1         0.6075
       2    O1      17.936200   18.094638   24.442782 O.co2      1 MOL1        -0.6830
       3    O2      18.855624   19.929554   25.052774 O.co2      1 MOL1        -0.6830
       4    C2      18.777484   19.488483   22.739618 C.3        1 MOL1        -0.2050
       5    H1      18.729300   20.578734   22.630622 H          1 MOL1         0.0710
       6    H2      17.971375   19.065857   22.127714 H          1 MOL1         0.0710
       7    C3      20.149918   18.963327   22.251052 C.3        1 MOL1        -0.1947
       8    H3      20.945292   19.385396   22.880963 H          1 MOL1         0.0712
       9    H4      20.187364   17.872452   22.378095 H          1 MOL1         0.0712
      10    C4      20.409931   19.324136   20.773631 C.3        1 MOL1        -0.1921
      11    H5      20.373244   20.414998   20.646303 H          1 MOL1         0.0712
      12    H6      19.615093   18.901692   20.143304 H          1 MOL1         0.0712
      13    C5      21.777384   18.798374   20.294310 C.3        1 MOL1        -0.2936
      14    H7      21.830328   17.705168   20.381296 H          1 MOL1         0.0724
      15    H8      22.594077   19.229634   20.888027 H          1 MOL1         0.0724
      16    H9      21.946517   19.063268   19.242466 H          1 MOL1         0.0724
@<TRIPOS>BOND
    1     1     2    1
    2     1     3    2
    3     1     4    1
    4     4     5    1
    5     4     6    1
    6     4     7    1
    7     7     8    1
    8     7     9    1
    9     7    10    1
   10    10    11    1
   11    10    12    1
   12    10    13    1
   13    13    14    1
   14    13    15    1
   15    13    16    1
@<TRIPOS>SUBSTRUCTURE
       1 MOL1            1 RESIDUE      1      MOL     
@<SCITEGIC>MOL_PROPERTY
VConf Rank
SciTegic.value.IntegerValue
532

@<SCITEGIC>MOL_PROPERTY
Conf_Id
SciTegic.value.IntegerValue
22

@<SCITEGIC>MOL_PROPERTY
Delta U+W
SciTegic.value.DoubleValue
-1.185

@<SCITEGIC>MOL_PROPERTY
U+W
SciTegic.value.DoubleValue
-58.089

@<SCITEGIC>MOL_PROPERTY
Grad RMS
SciTegic.value.DoubleValue
0.000000

@<SCITEGIC>MOL_PROPERTY
U
SciTegic.value.DoubleValue
6.298

@<SCITEGIC>MOL_PROPERTY
W
SciTegic.value.DoubleValue
-64.387

@<SCITEGIC>MOL_PROPERTY
W(PB)
SciTegic.value.DoubleValue
-66.329

@<SCITEGIC>MOL_PROPERTY
W(SA)
SciTegic.value.DoubleValue
1.942

@<SCITEGIC>MOL_PROPERTY
Valence
SciTegic.value.DoubleValue
6.246

@<SCITEGIC>MOL_PROPERTY
Coulomb
SciTegic.value.DoubleValue
-0.408

@<SCITEGIC>MOL_PROPERTY
VdW
SciTegic.value.DoubleValue
0.460

@<SCITEGIC>MOL_PROPERTY
VdW6
SciTegic.value.DoubleValue
-4.207

@<SCITEGIC>MOL_PROPERTY
VdW12
SciTegic.value.DoubleValue
4.667

@<SCITEGIC>MOL_PROPERTY
Bond
SciTegic.value.DoubleValue
0.072

@<SCITEGIC>MOL_PROPERTY
Angle
SciTegic.value.DoubleValue
2.246

@<SCITEGIC>MOL_PROPERTY
Pdih
SciTegic.value.DoubleValue
3.928

@<SCITEGIC>MOL_PROPERTY
Idih
SciTegic.value.DoubleValue
0.001

@<SCITEGIC>MOL_PROPERTY
Tether
SciTegic.value.DoubleValue
0.000

@<TRIPOS>MOLECULE
guest-s18_confgen4.mol2 : confsearch ligand conformer 533
          16          15           1
SMALL
USER_CHARGES
 
@<TRIPOS>ATOM
       1    C1      22.019591   19.474355   20.450238 C.2        1 MOL1         0.6075
       2    O1      23.111946   19.014452   20.717156 O.co2      1 MOL1        -0.6830
       3    O2      21.850401   20.401234   19.683279 O.co2      1 MOL1        -0.6830
       4    C2      20.796954   18.868270   21.130233 C.3        1 MOL1        -0.2050
       5    H1      20.991990   17.801579   21.293622 H          1 MOL1         0.0710
       6    H2      19.955288   18.941689   20.432146 H          1 MOL1         0.0710
       7    C3      20.451946   19.560310   22.474496 C.3        1 MOL1        -0.1947
       8    H3      21.342623   19.546071   23.117862 H          1 MOL1         0.0712
       9    H4      20.217027   20.618137   22.292499 H          1 MOL1         0.0712
      10    C4      19.282530   18.888246   23.230278 C.3        1 MOL1        -0.1921
      11    H5      19.175895   19.367017   24.213496 H          1 MOL1         0.0712
      12    H6      19.522256   17.833323   23.422759 H          1 MOL1         0.0712
      13    C5      17.936807   18.986332   22.480382 C.3        1 MOL1        -0.2936
      14    H7      17.960446   18.423219   21.539038 H          1 MOL1         0.0724
      15    H8      17.689983   20.031232   22.251232 H          1 MOL1         0.0724
      16    H9      17.125033   18.574106   23.093651 H          1 MOL1         0.0724
@<TRIPOS>BOND
    1     1     2    1
    2     1     3    2
    3     1     4    1
    4     4     5    1
    5     4     6    1
    6     4     7    1
    7     7     8    1
    8     7     9    1
    9     7    10    1
   10    10    11    1
   11    10    12    1
   12    10    13    1
   13    13    14    1
   14    13    15    1
   15    13    16    1
@<TRIPOS>SUBSTRUCTURE
       1 MOL1            1 RESIDUE      1      MOL     
@<SCITEGIC>MOL_PROPERTY
VConf Rank
SciTegic.value.IntegerValue
533

@<SCITEGIC>MOL_PROPERTY
Conf_Id
SciTegic.value.IntegerValue
36

@<SCITEGIC>MOL_PROPERTY
Delta U+W
SciTegic.value.DoubleValue
-0.427

@<SCITEGIC>MOL_PROPERTY
U+W
SciTegic.value.DoubleValue
-57.331

@<SCITEGIC>MOL_PROPERTY
Grad RMS
SciTegic.value.DoubleValue
0.000000

@<SCITEGIC>MOL_PROPERTY
U
SciTegic.value.DoubleValue
7.263

@<SCITEGIC>MOL_PROPERTY
W
SciTegic.value.DoubleValue
-64.594

@<SCITEGIC>MOL_PROPERTY
W(PB)
SciTegic.value.DoubleValue
-66.513

@<SCITEGIC>MOL_PROPERTY
W(SA)
SciTegic.value.DoubleValue
1.920

@<SCITEGIC>MOL_PROPERTY
Valence
SciTegic.value.DoubleValue
6.734

@<SCITEGIC>MOL_PROPERTY
Coulomb
SciTegic.value.DoubleValue
-0.068

@<SCITEGIC>MOL_PROPERTY
VdW
SciTegic.value.DoubleValue
0.598

@<SCITEGIC>MOL_PROPERTY
VdW6
SciTegic.value.DoubleValue
-4.819

@<SCITEGIC>MOL_PROPERTY
VdW12
SciTegic.value.DoubleValue
5.417

@<SCITEGIC>MOL_PROPERTY
Bond
SciTegic.value.DoubleValue
0.107

@<SCITEGIC>MOL_PROPERTY
Angle
SciTegic.value.DoubleValue
2.469

@<SCITEGIC>MOL_PROPERTY
Pdih
SciTegic.value.DoubleValue
4.157

@<SCITEGIC>MOL_PROPERTY
Idih
SciTegic.value.DoubleValue
0.001

@<SCITEGIC>MOL_PROPERTY
Tether
SciTegic.value.DoubleValue
0.000

@<TRIPOS>MOLECULE
guest-s18_confgen4.mol2 : confsearch ligand conformer 534
          16          15           1
SMALL
USER_CHARGES
 
@<TRIPOS>ATOM
       1    C1      18.535535   20.044779   20.029278 C.2        1 MOL1         0.6075
       2    O1      17.864983   19.162460   19.531454 O.co2      1 MOL1        -0.6830
       3    O2      18.787667   21.093373   19.469924 O.co2      1 MOL1        -0.6830
       4    C2      19.108611   19.815939   21.423476 C.3        1 MOL1        -0.2050
       5    H1      18.395283   19.198336   21.981013 H          1 MOL1         0.0710
       6    H2      19.165665   20.786042   21.931622 H          1 MOL1         0.0710
       7    C3      20.506100   19.144170   21.396148 C.3        1 MOL1        -0.1947
       8    H3      20.428323   18.155395   20.923301 H          1 MOL1         0.0712
       9    H4      21.172792   19.741680   20.759021 H          1 MOL1         0.0712
      10    C4      21.149347   19.004828   22.795156 C.3        1 MOL1        -0.1921
      11    H5      21.237974   19.994924   23.263382 H          1 MOL1         0.0712
      12    H6      22.173329   18.624367   22.676756 H          1 MOL1         0.0712
      13    C5      20.370897   18.055729   23.731190 C.3        1 MOL1        -0.2936
      14    H7      19.377003   18.454385   23.969999 H          1 MOL1         0.0724
      15    H8      20.911152   17.921897   24.677351 H          1 MOL1         0.0724
      16    H9      20.244626   17.066837   23.271409 H          1 MOL1         0.0724
@<TRIPOS>BOND
    1     1     2    1
    2     1     3    2
    3     1     4    1
    4     4     5    1
    5     4     6    1
    6     4     7    1
    7     7     8    1
    8     7     9    1
    9     7    10    1
   10    10    11    1
   11    10    12    1
   12    10    13    1
   13    13    14    1
   14    13    15    1
   15    13    16    1
@<TRIPOS>SUBSTRUCTURE
       1 MOL1            1 RESIDUE      1      MOL     
@<SCITEGIC>MOL_PROPERTY
VConf Rank
SciTegic.value.IntegerValue
534

@<SCITEGIC>MOL_PROPERTY
Conf_Id
SciTegic.value.IntegerValue
17

@<SCITEGIC>MOL_PROPERTY
Delta U+W
SciTegic.value.DoubleValue
-0.432

@<SCITEGIC>MOL_PROPERTY
U+W
SciTegic.value.DoubleValue
-57.336

@<SCITEGIC>MOL_PROPERTY
Grad RMS
SciTegic.value.DoubleValue
0.000000

@<SCITEGIC>MOL_PROPERTY
U
SciTegic.value.DoubleValue
7.263

@<SCITEGIC>MOL_PROPERTY
W
SciTegic.value.DoubleValue
-64.599

@<SCITEGIC>MOL_PROPERTY
W(PB)
SciTegic.value.DoubleValue
-66.503

@<SCITEGIC>MOL_PROPERTY
W(SA)
SciTegic.value.DoubleValue
1.904

@<SCITEGIC>MOL_PROPERTY
Valence
SciTegic.value.DoubleValue
6.734

@<SCITEGIC>MOL_PROPERTY
Coulomb
SciTegic.value.DoubleValue
-0.068

@<SCITEGIC>MOL_PROPERTY
VdW
SciTegic.value.DoubleValue
0.598

@<SCITEGIC>MOL_PROPERTY
VdW6
SciTegic.value.DoubleValue
-4.819

@<SCITEGIC>MOL_PROPERTY
VdW12
SciTegic.value.DoubleValue
5.417

@<SCITEGIC>MOL_PROPERTY
Bond
SciTegic.value.DoubleValue
0.107

@<SCITEGIC>MOL_PROPERTY
Angle
SciTegic.value.DoubleValue
2.469

@<SCITEGIC>MOL_PROPERTY
Pdih
SciTegic.value.DoubleValue
4.157

@<SCITEGIC>MOL_PROPERTY
Idih
SciTegic.value.DoubleValue
0.001

@<SCITEGIC>MOL_PROPERTY
Tether
SciTegic.value.DoubleValue
0.000

@<TRIPOS>MOLECULE
guest-s18_confgen4.mol2 : confsearch ligand conformer 535
          16          15           1
SMALL
USER_CHARGES
 
@<TRIPOS>ATOM
       1    C1      20.515478   21.276405   21.152584 C.2        1 MOL1         0.6075
       2    O1      21.008687   22.068247   21.931091 O.co2      1 MOL1        -0.6830
       3    O2      20.937072   21.089168   20.028545 O.co2      1 MOL1        -0.6830
       4    C2      19.285797   20.493437   21.604620 C.3        1 MOL1        -0.2050
       5    H1      18.769344   20.108561   20.716797 H          1 MOL1         0.0710
       6    H2      18.602887   21.203829   22.085465 H          1 MOL1         0.0710
       7    C3      19.600076   19.333841   22.585232 C.3        1 MOL1        -0.1947
       8    H3      20.142102   19.729581   23.455417 H          1 MOL1         0.0712
       9    H4      18.655068   18.920255   22.962678 H          1 MOL1         0.0712
      10    C4      20.422074   18.205069   21.926161 C.3        1 MOL1        -0.1921
      11    H5      21.379635   18.603344   21.562600 H          1 MOL1         0.0712
      12    H6      19.884626   17.818864   21.049023 H          1 MOL1         0.0712
      13    C5      20.691332   17.050924   22.911957 C.3        1 MOL1        -0.2936
      14    H7      21.255366   17.404225   23.785167 H          1 MOL1         0.0724
      15    H8      21.276789   16.258145   22.428367 H          1 MOL1         0.0724
      16    H9      19.750767   16.609386   23.266636 H          1 MOL1         0.0724
@<TRIPOS>BOND
    1     1     2    1
    2     1     3    2
    3     1     4    1
    4     4     5    1
    5     4     6    1
    6     4     7    1
    7     7     8    1
    8     7     9    1
    9     7    10    1
   10    10    11    1
   11    10    12    1
   12    10    13    1
   13    13    14    1
   14    13    15    1
   15    13    16    1
@<TRIPOS>SUBSTRUCTURE
       1 MOL1            1 RESIDUE      1      MOL     
@<SCITEGIC>MOL_PROPERTY
VConf Rank
SciTegic.value.IntegerValue
535

@<SCITEGIC>MOL_PROPERTY
Conf_Id
SciTegic.value.IntegerValue
19

@<SCITEGIC>MOL_PROPERTY
Delta U+W
SciTegic.value.DoubleValue
0.048

@<SCITEGIC>MOL_PROPERTY
U+W
SciTegic.value.DoubleValue
-56.856

@<SCITEGIC>MOL_PROPERTY
Grad RMS
SciTegic.value.DoubleValue
0.000000

@<SCITEGIC>MOL_PROPERTY
U
SciTegic.value.DoubleValue
8.276

@<SCITEGIC>MOL_PROPERTY
W
SciTegic.value.DoubleValue
-65.132

@<SCITEGIC>MOL_PROPERTY
W(PB)
SciTegic.value.DoubleValue
-67.031

@<SCITEGIC>MOL_PROPERTY
W(SA)
SciTegic.value.DoubleValue
1.899

@<SCITEGIC>MOL_PROPERTY
Valence
SciTegic.value.DoubleValue
6.513

@<SCITEGIC>MOL_PROPERTY
Coulomb
SciTegic.value.DoubleValue
1.428

@<SCITEGIC>MOL_PROPERTY
VdW
SciTegic.value.DoubleValue
0.335

@<SCITEGIC>MOL_PROPERTY
VdW6
SciTegic.value.DoubleValue
-5.021

@<SCITEGIC>MOL_PROPERTY
VdW12
SciTegic.value.DoubleValue
5.356

@<SCITEGIC>MOL_PROPERTY
Bond
SciTegic.value.DoubleValue
0.092

@<SCITEGIC>MOL_PROPERTY
Angle
SciTegic.value.DoubleValue
2.417

@<SCITEGIC>MOL_PROPERTY
Pdih
SciTegic.value.DoubleValue
4.003

@<SCITEGIC>MOL_PROPERTY
Idih
SciTegic.value.DoubleValue
0.001

@<SCITEGIC>MOL_PROPERTY
Tether
SciTegic.value.DoubleValue
0.000

@<TRIPOS>MOLECULE
guest-s18_confgen4.mol2 : confsearch ligand conformer 536
          16          15           1
SMALL
USER_CHARGES
 
@<TRIPOS>ATOM
       1    C1      18.422464   17.418473   22.789396 C.2        1 MOL1         0.6075
       2    O1      18.646245   17.025035   23.916991 O.co2      1 MOL1        -0.6830
       3    O2      18.289401   16.678902   21.834623 O.co2      1 MOL1        -0.6830
       4    C2      18.277898   18.921503   22.566912 C.3        1 MOL1        -0.2050
       5    H1      17.631756   19.310420   23.362826 H          1 MOL1         0.0710
       6    H2      17.749094   19.086514   21.620221 H          1 MOL1         0.0710
       7    C3      19.623093   19.693181   22.569688 C.3        1 MOL1        -0.1947
       8    H3      19.415447   20.771502   22.543882 H          1 MOL1         0.0712
       9    H4      20.154215   19.495780   23.511264 H          1 MOL1         0.0712
      10    C4      20.524337   19.319953   21.372755 C.3        1 MOL1        -0.1921
      11    H5      19.987445   19.506200   20.432310 H          1 MOL1         0.0712
      12    H6      20.755716   18.245959   21.399667 H          1 MOL1         0.0712
      13    C5      21.838939   20.125003   21.381054 C.3        1 MOL1        -0.2936
      14    H7      21.640117   21.203035   21.319975 H          1 MOL1         0.0724
      15    H8      22.467718   19.847275   20.525120 H          1 MOL1         0.0724
      16    H9      22.410914   19.932943   22.298337 H          1 MOL1         0.0724
@<TRIPOS>BOND
    1     1     2    1
    2     1     3    2
    3     1     4    1
    4     4     5    1
    5     4     6    1
    6     4     7    1
    7     7     8    1
    8     7     9    1
    9     7    10    1
   10    10    11    1
   11    10    12    1
   12    10    13    1
   13    13    14    1
   14    13    15    1
   15    13    16    1
@<TRIPOS>SUBSTRUCTURE
       1 MOL1            1 RESIDUE      1      MOL     
@<SCITEGIC>MOL_PROPERTY
VConf Rank
SciTegic.value.IntegerValue
536

@<SCITEGIC>MOL_PROPERTY
Conf_Id
SciTegic.value.IntegerValue
20

@<SCITEGIC>MOL_PROPERTY
Delta U+W
SciTegic.value.DoubleValue
-0.010

@<SCITEGIC>MOL_PROPERTY
U+W
SciTegic.value.DoubleValue
-56.914

@<SCITEGIC>MOL_PROPERTY
Grad RMS
SciTegic.value.DoubleValue
0.000000

@<SCITEGIC>MOL_PROPERTY
U
SciTegic.value.DoubleValue
8.277

@<SCITEGIC>MOL_PROPERTY
W
SciTegic.value.DoubleValue
-65.191

@<SCITEGIC>MOL_PROPERTY
W(PB)
SciTegic.value.DoubleValue
-67.081

@<SCITEGIC>MOL_PROPERTY
W(SA)
SciTegic.value.DoubleValue
1.890

@<SCITEGIC>MOL_PROPERTY
Valence
SciTegic.value.DoubleValue
6.513

@<SCITEGIC>MOL_PROPERTY
Coulomb
SciTegic.value.DoubleValue
1.429

@<SCITEGIC>MOL_PROPERTY
VdW
SciTegic.value.DoubleValue
0.335

@<SCITEGIC>MOL_PROPERTY
VdW6
SciTegic.value.DoubleValue
-5.021

@<SCITEGIC>MOL_PROPERTY
VdW12
SciTegic.value.DoubleValue
5.356

@<SCITEGIC>MOL_PROPERTY
Bond
SciTegic.value.DoubleValue
0.092

@<SCITEGIC>MOL_PROPERTY
Angle
SciTegic.value.DoubleValue
2.417

@<SCITEGIC>MOL_PROPERTY
Pdih
SciTegic.value.DoubleValue
4.002

@<SCITEGIC>MOL_PROPERTY
Idih
SciTegic.value.DoubleValue
0.001

@<SCITEGIC>MOL_PROPERTY
Tether
SciTegic.value.DoubleValue
0.000

@<TRIPOS>MOLECULE
guest-s18_confgen4.mol2 : confsearch ligand conformer 537
          16          15           1
SMALL
USER_CHARGES
 
@<TRIPOS>ATOM
       1    C1      21.183897   17.473182   22.324668 C.2        1 MOL1         0.6075
       2    O1      21.805826   17.204277   23.333470 O.co2      1 MOL1        -0.6830
       3    O2      21.677143   17.477124   21.214266 O.co2      1 MOL1        -0.6830
       4    C2      19.696616   17.789008   22.458814 C.3        1 MOL1        -0.2050
       5    H1      19.245590   16.985641   23.053000 H          1 MOL1         0.0710
       6    H2      19.234880   17.737077   21.466166 H          1 MOL1         0.0710
       7    C3      19.394916   19.155844   23.132175 C.3        1 MOL1        -0.1947
       8    H3      18.309219   19.262732   23.259486 H          1 MOL1         0.0712
       9    H4      19.824821   19.153441   24.143378 H          1 MOL1         0.0712
      10    C4      19.939882   20.381125   22.360366 C.3        1 MOL1        -0.1921
      11    H5      21.031110   20.303311   22.256613 H          1 MOL1         0.0712
      12    H6      19.749639   21.285271   22.954888 H          1 MOL1         0.0712
      13    C5      19.299053   20.557247   20.967254 C.3        1 MOL1        -0.2936
      14    H7      19.568364   19.730283   20.297860 H          1 MOL1         0.0724
      15    H8      19.646036   21.488103   20.500381 H          1 MOL1         0.0724
      16    H9      18.204608   20.602082   21.039675 H          1 MOL1         0.0724
@<TRIPOS>BOND
    1     1     2    1
    2     1     3    2
    3     1     4    1
    4     4     5    1
    5     4     6    1
    6     4     7    1
    7     7     8    1
    8     7     9    1
    9     7    10    1
   10    10    11    1
   11    10    12    1
   12    10    13    1
   13    13    14    1
   14    13    15    1
   15    13    16    1
@<TRIPOS>SUBSTRUCTURE
       1 MOL1            1 RESIDUE      1      MOL     
@<SCITEGIC>MOL_PROPERTY
VConf Rank
SciTegic.value.IntegerValue
537

@<SCITEGIC>MOL_PROPERTY
Conf_Id
SciTegic.value.IntegerValue
37

@<SCITEGIC>MOL_PROPERTY
Delta U+W
SciTegic.value.DoubleValue
1.063

@<SCITEGIC>MOL_PROPERTY
U+W
SciTegic.value.DoubleValue
-55.841

@<SCITEGIC>MOL_PROPERTY
Grad RMS
SciTegic.value.DoubleValue
0.000000

@<SCITEGIC>MOL_PROPERTY
U
SciTegic.value.DoubleValue
9.719

@<SCITEGIC>MOL_PROPERTY
W
SciTegic.value.DoubleValue
-65.560

@<SCITEGIC>MOL_PROPERTY
W(PB)
SciTegic.value.DoubleValue
-67.414

@<SCITEGIC>MOL_PROPERTY
W(SA)
SciTegic.value.DoubleValue
1.854

@<SCITEGIC>MOL_PROPERTY
Valence
SciTegic.value.DoubleValue
7.002

@<SCITEGIC>MOL_PROPERTY
Coulomb
SciTegic.value.DoubleValue
2.402

@<SCITEGIC>MOL_PROPERTY
VdW
SciTegic.value.DoubleValue
0.314

@<SCITEGIC>MOL_PROPERTY
VdW6
SciTegic.value.DoubleValue
-5.861

@<SCITEGIC>MOL_PROPERTY
VdW12
SciTegic.value.DoubleValue
6.175

@<SCITEGIC>MOL_PROPERTY
Bond
SciTegic.value.DoubleValue
0.134

@<SCITEGIC>MOL_PROPERTY
Angle
SciTegic.value.DoubleValue
2.733

@<SCITEGIC>MOL_PROPERTY
Pdih
SciTegic.value.DoubleValue
4.133

@<SCITEGIC>MOL_PROPERTY
Idih
SciTegic.value.DoubleValue
0.002

@<SCITEGIC>MOL_PROPERTY
Tether
SciTegic.value.DoubleValue
0.000

@<TRIPOS>MOLECULE
guest-s18_confgen4.mol2 : confsearch ligand conformer 538
          16          15           1
SMALL
USER_CHARGES
 
@<TRIPOS>ATOM
       1    C1      19.623649   17.076327   22.508000 C.2        1 MOL1         0.6075
       2    O1      19.002429   16.407156   21.706077 O.co2      1 MOL1        -0.6830
       3    O2      20.626855   16.686470   23.071818 O.co2      1 MOL1        -0.6830
       4    C2      19.093782   18.466547   22.848991 C.3        1 MOL1        -0.2050
       5    H1      19.589287   18.818049   23.761225 H          1 MOL1         0.0710
       6    H2      18.031017   18.358397   23.095393 H          1 MOL1         0.0710
       7    C3      19.251567   19.505490   21.705147 C.3        1 MOL1        -0.1947
       8    H3      18.699110   19.147967   20.825191 H          1 MOL1         0.0712
       9    H4      18.774427   20.447856   22.006237 H          1 MOL1         0.0712
      10    C4      20.717103   19.785297   21.295386 C.3        1 MOL1        -0.1921
      11    H5      20.718032   20.463934   20.431337 H          1 MOL1         0.0712
      12    H6      21.195841   18.855279   20.958526 H          1 MOL1         0.0712
      13    C5      21.555160   20.418209   22.426546 C.3        1 MOL1        -0.2936
      14    H7      21.079193   21.331818   22.805810 H          1 MOL1         0.0724
      15    H8      22.555103   20.684240   22.060209 H          1 MOL1         0.0724
      16    H9      21.683743   19.721113   23.264407 H          1 MOL1         0.0724
@<TRIPOS>BOND
    1     1     2    1
    2     1     3    2
    3     1     4    1
    4     4     5    1
    5     4     6    1
    6     4     7    1
    7     7     8    1
    8     7     9    1
    9     7    10    1
   10    10    11    1
   11    10    12    1
   12    10    13    1
   13    13    14    1
   14    13    15    1
   15    13    16    1
@<TRIPOS>SUBSTRUCTURE
       1 MOL1            1 RESIDUE      1      MOL     
@<SCITEGIC>MOL_PROPERTY
VConf Rank
SciTegic.value.IntegerValue
538

@<SCITEGIC>MOL_PROPERTY
Conf_Id
SciTegic.value.IntegerValue
39

@<SCITEGIC>MOL_PROPERTY
Delta U+W
SciTegic.value.DoubleValue
1.129

@<SCITEGIC>MOL_PROPERTY
U+W
SciTegic.value.DoubleValue
-55.775

@<SCITEGIC>MOL_PROPERTY
Grad RMS
SciTegic.value.DoubleValue
0.000000

@<SCITEGIC>MOL_PROPERTY
U
SciTegic.value.DoubleValue
9.718

@<SCITEGIC>MOL_PROPERTY
W
SciTegic.value.DoubleValue
-65.493

@<SCITEGIC>MOL_PROPERTY
W(PB)
SciTegic.value.DoubleValue
-67.361

@<SCITEGIC>MOL_PROPERTY
W(SA)
SciTegic.value.DoubleValue
1.869

@<SCITEGIC>MOL_PROPERTY
Valence
SciTegic.value.DoubleValue
7.002

@<SCITEGIC>MOL_PROPERTY
Coulomb
SciTegic.value.DoubleValue
2.402

@<SCITEGIC>MOL_PROPERTY
VdW
SciTegic.value.DoubleValue
0.314

@<SCITEGIC>MOL_PROPERTY
VdW6
SciTegic.value.DoubleValue
-5.861

@<SCITEGIC>MOL_PROPERTY
VdW12
SciTegic.value.DoubleValue
6.175

@<SCITEGIC>MOL_PROPERTY
Bond
SciTegic.value.DoubleValue
0.134

@<SCITEGIC>MOL_PROPERTY
Angle
SciTegic.value.DoubleValue
2.734

@<SCITEGIC>MOL_PROPERTY
Pdih
SciTegic.value.DoubleValue
4.133

@<SCITEGIC>MOL_PROPERTY
Idih
SciTegic.value.DoubleValue
0.002

@<SCITEGIC>MOL_PROPERTY
Tether
SciTegic.value.DoubleValue
0.000

@<TRIPOS>MOLECULE
guest-s18_confgen4.mol2 : confsearch ligand conformer 539
          16          15           1
SMALL
USER_CHARGES
 
@<TRIPOS>ATOM
       1    C1      21.186973   20.585893   22.504635 C.2        1 MOL1         0.6075
       2    O1      21.079847   21.088337   23.605950 O.co2      1 MOL1        -0.6830
       3    O2      21.221972   21.231708   21.475627 O.co2      1 MOL1        -0.6830
       4    C2      21.377714   19.072694   22.418002 C.3        1 MOL1        -0.2050
       5    H1      21.400696   18.657239   23.432817 H          1 MOL1         0.0710
       6    H2      22.374251   18.911029   21.990771 H          1 MOL1         0.0710
       7    C3      20.329112   18.319330   21.552058 C.3        1 MOL1        -0.1947
       8    H3      20.160942   18.861860   20.611356 H          1 MOL1         0.0712
       9    H4      20.757823   17.348481   21.269019 H          1 MOL1         0.0712
      10    C4      18.978810   18.050709   22.259227 C.3        1 MOL1        -0.1921
      11    H5      19.151423   17.509994   23.200004 H          1 MOL1         0.0712
      12    H6      18.381299   17.381978   21.624347 H          1 MOL1         0.0712
      13    C5      18.155535   19.325624   22.536890 C.3        1 MOL1        -0.2936
      14    H7      18.635807   19.953569   23.297167 H          1 MOL1         0.0724
      15    H8      17.156343   19.064081   22.908347 H          1 MOL1         0.0724
      16    H9      18.032740   19.922292   21.623523 H          1 MOL1         0.0724
@<TRIPOS>BOND
    1     1     2    1
    2     1     3    2
    3     1     4    1
    4     4     5    1
    5     4     6    1
    6     4     7    1
    7     7     8    1
    8     7     9    1
    9     7    10    1
   10    10    11    1
   11    10    12    1
   12    10    13    1
   13    13    14    1
   14    13    15    1
   15    13    16    1
@<TRIPOS>SUBSTRUCTURE
       1 MOL1            1 RESIDUE      1      MOL     
@<SCITEGIC>MOL_PROPERTY
VConf Rank
SciTegic.value.IntegerValue
539

@<SCITEGIC>MOL_PROPERTY
Conf_Id
SciTegic.value.IntegerValue
47

@<SCITEGIC>MOL_PROPERTY
Delta U+W
SciTegic.value.DoubleValue
2.301

@<SCITEGIC>MOL_PROPERTY
U+W
SciTegic.value.DoubleValue
-54.603

@<SCITEGIC>MOL_PROPERTY
Grad RMS
SciTegic.value.DoubleValue
0.000000

@<SCITEGIC>MOL_PROPERTY
U
SciTegic.value.DoubleValue
11.258

@<SCITEGIC>MOL_PROPERTY
W
SciTegic.value.DoubleValue
-65.861

@<SCITEGIC>MOL_PROPERTY
W(PB)
SciTegic.value.DoubleValue
-67.702

@<SCITEGIC>MOL_PROPERTY
W(SA)
SciTegic.value.DoubleValue
1.841

@<SCITEGIC>MOL_PROPERTY
Valence
SciTegic.value.DoubleValue
8.169

@<SCITEGIC>MOL_PROPERTY
Coulomb
SciTegic.value.DoubleValue
2.735

@<SCITEGIC>MOL_PROPERTY
VdW
SciTegic.value.DoubleValue
0.355

@<SCITEGIC>MOL_PROPERTY
VdW6
SciTegic.value.DoubleValue
-6.245

@<SCITEGIC>MOL_PROPERTY
VdW12
SciTegic.value.DoubleValue
6.600

@<SCITEGIC>MOL_PROPERTY
Bond
SciTegic.value.DoubleValue
0.149

@<SCITEGIC>MOL_PROPERTY
Angle
SciTegic.value.DoubleValue
3.168

@<SCITEGIC>MOL_PROPERTY
Pdih
SciTegic.value.DoubleValue
4.840

@<SCITEGIC>MOL_PROPERTY
Idih
SciTegic.value.DoubleValue
0.011

@<SCITEGIC>MOL_PROPERTY
Tether
SciTegic.value.DoubleValue
0.000

@<TRIPOS>MOLECULE
guest-s18_confgen4.mol2 : confsearch ligand conformer 540
          16          15           1
SMALL
USER_CHARGES
 
@<TRIPOS>ATOM
       1    C1      19.034698   17.306042   22.358392 C.2        1 MOL1         0.6075
       2    O1      19.733116   16.587261   23.045942 O.co2      1 MOL1        -0.6830
       3    O2      18.590657   16.971373   21.277817 O.co2      1 MOL1        -0.6830
       4    C2      18.618924   18.664755   22.919371 C.3        1 MOL1        -0.2050
       5    H1      18.042408   18.459957   23.829006 H          1 MOL1         0.0710
       6    H2      17.930835   19.146576   22.214133 H          1 MOL1         0.0710
       7    C3      19.789925   19.625505   23.269662 C.3        1 MOL1        -0.1947
       8    H3      19.411577   20.378148   23.974527 H          1 MOL1         0.0712
       9    H4      20.576746   19.076969   23.805912 H          1 MOL1         0.0712
      10    C4      20.395871   20.375442   22.058884 C.3        1 MOL1        -0.1921
      11    H5      21.094771   21.135149   22.435284 H          1 MOL1         0.0712
      12    H6      19.605891   20.920957   21.524490 H          1 MOL1         0.0712
      13    C5      21.152598   19.460693   21.073550 C.3        1 MOL1        -0.2936
      14    H7      21.675289   20.060282   20.317206 H          1 MOL1         0.0724
      15    H8      20.465864   18.788741   20.544514 H          1 MOL1         0.0724
      16    H9      21.898986   18.849165   21.597257 H          1 MOL1         0.0724
@<TRIPOS>BOND
    1     1     2    1
    2     1     3    2
    3     1     4    1
    4     4     5    1
    5     4     6    1
    6     4     7    1
    7     7     8    1
    8     7     9    1
    9     7    10    1
   10    10    11    1
   11    10    12    1
   12    10    13    1
   13    13    14    1
   14    13    15    1
   15    13    16    1
@<TRIPOS>SUBSTRUCTURE
       1 MOL1            1 RESIDUE      1      MOL     
@<SCITEGIC>MOL_PROPERTY
VConf Rank
SciTegic.value.IntegerValue
540

@<SCITEGIC>MOL_PROPERTY
Conf_Id
SciTegic.value.IntegerValue
45

@<SCITEGIC>MOL_PROPERTY
Delta U+W
SciTegic.value.DoubleValue
2.303

@<SCITEGIC>MOL_PROPERTY
U+W
SciTegic.value.DoubleValue
-54.601

@<SCITEGIC>MOL_PROPERTY
Grad RMS
SciTegic.value.DoubleValue
0.000000

@<SCITEGIC>MOL_PROPERTY
U
SciTegic.value.DoubleValue
11.258

@<SCITEGIC>MOL_PROPERTY
W
SciTegic.value.DoubleValue
-65.860

@<SCITEGIC>MOL_PROPERTY
W(PB)
SciTegic.value.DoubleValue
-67.709

@<SCITEGIC>MOL_PROPERTY
W(SA)
SciTegic.value.DoubleValue
1.849

@<SCITEGIC>MOL_PROPERTY
Valence
SciTegic.value.DoubleValue
8.169

@<SCITEGIC>MOL_PROPERTY
Coulomb
SciTegic.value.DoubleValue
2.735

@<SCITEGIC>MOL_PROPERTY
VdW
SciTegic.value.DoubleValue
0.355

@<SCITEGIC>MOL_PROPERTY
VdW6
SciTegic.value.DoubleValue
-6.245

@<SCITEGIC>MOL_PROPERTY
VdW12
SciTegic.value.DoubleValue
6.600

@<SCITEGIC>MOL_PROPERTY
Bond
SciTegic.value.DoubleValue
0.149

@<SCITEGIC>MOL_PROPERTY
Angle
SciTegic.value.DoubleValue
3.168

@<SCITEGIC>MOL_PROPERTY
Pdih
SciTegic.value.DoubleValue
4.840

@<SCITEGIC>MOL_PROPERTY
Idih
SciTegic.value.DoubleValue
0.011

@<SCITEGIC>MOL_PROPERTY
Tether
SciTegic.value.DoubleValue
0.000

@<TRIPOS>MOLECULE
guest-s18_confgen4.mol2 : confsearch ligand conformer 541
          16          15           1
SMALL
USER_CHARGES
 
@<TRIPOS>ATOM
       1    C1      19.300356   16.803141   23.253203 C.2        1 MOL1         0.6075
       2    O1      19.979869   17.044010   24.231988 O.co2      1 MOL1        -0.6830
       3    O2      18.627344   15.797784   23.145385 O.co2      1 MOL1        -0.6830
       4    C2      19.270480   17.791912   22.086441 C.3        1 MOL1        -0.2050
       5    H1      18.224936   18.083190   21.931020 H          1 MOL1         0.0710
       6    H2      19.588839   17.248647   21.188848 H          1 MOL1         0.0710
       7    C3      20.145805   19.060347   22.268725 C.3        1 MOL1        -0.1947
       8    H3      19.825809   19.597461   23.172374 H          1 MOL1         0.0712
       9    H4      21.191113   18.762056   22.429420 H          1 MOL1         0.0712
      10    C4      20.055946   19.999503   21.047591 C.3        1 MOL1        -0.1921
      11    H5      19.011259   20.299983   20.886835 H          1 MOL1         0.0712
      12    H6      20.377378   19.464087   20.143428 H          1 MOL1         0.0712
      13    C5      20.927286   21.257255   21.234583 C.3        1 MOL1        -0.2936
      14    H7      20.607142   21.829412   22.115273 H          1 MOL1         0.0724
      15    H8      20.852023   21.913838   20.358012 H          1 MOL1         0.0724
      16    H9      21.983341   20.987354   21.366380 H          1 MOL1         0.0724
@<TRIPOS>BOND
    1     1     2    1
    2     1     3    2
    3     1     4    1
    4     4     5    1
    5     4     6    1
    6     4     7    1
    7     7     8    1
    8     7     9    1
    9     7    10    1
   10    10    11    1
   11    10    12    1
   12    10    13    1
   13    13    14    1
   14    13    15    1
   15    13    16    1
@<TRIPOS>SUBSTRUCTURE
       1 MOL1            1 RESIDUE      1      MOL     
@<SCITEGIC>MOL_PROPERTY
VConf Rank
SciTegic.value.IntegerValue
541

@<SCITEGIC>MOL_PROPERTY
Conf_Id
SciTegic.value.IntegerValue
0

@<SCITEGIC>MOL_PROPERTY
Delta U+W
SciTegic.value.DoubleValue
0.000

@<SCITEGIC>MOL_PROPERTY
U+W
SciTegic.value.DoubleValue
-56.904

@<SCITEGIC>MOL_PROPERTY
Grad RMS
SciTegic.value.DoubleValue
0.000000

@<SCITEGIC>MOL_PROPERTY
U
SciTegic.value.DoubleValue
7.329

@<SCITEGIC>MOL_PROPERTY
W
SciTegic.value.DoubleValue
-64.233

@<SCITEGIC>MOL_PROPERTY
W(PB)
SciTegic.value.DoubleValue
-66.148

@<SCITEGIC>MOL_PROPERTY
W(SA)
SciTegic.value.DoubleValue
1.915

@<SCITEGIC>MOL_PROPERTY
Valence
SciTegic.value.DoubleValue
6.755

@<SCITEGIC>MOL_PROPERTY
Coulomb
SciTegic.value.DoubleValue
-0.421

@<SCITEGIC>MOL_PROPERTY
VdW
SciTegic.value.DoubleValue
0.995

@<SCITEGIC>MOL_PROPERTY
VdW6
SciTegic.value.DoubleValue
-4.495

@<SCITEGIC>MOL_PROPERTY
VdW12
SciTegic.value.DoubleValue
5.490

@<SCITEGIC>MOL_PROPERTY
Bond
SciTegic.value.DoubleValue
0.106

@<SCITEGIC>MOL_PROPERTY
Angle
SciTegic.value.DoubleValue
2.715

@<SCITEGIC>MOL_PROPERTY
Pdih
SciTegic.value.DoubleValue
3.934

@<SCITEGIC>MOL_PROPERTY
Idih
SciTegic.value.DoubleValue
0.000

@<SCITEGIC>MOL_PROPERTY
Tether
SciTegic.value.DoubleValue
0.000

@<TRIPOS>MOLECULE
guest-s18_confgen4.mol2 : confsearch ligand conformer 542
          16          15           1
SMALL
USER_CHARGES
 
@<TRIPOS>ATOM
       1    C1      22.700262   19.141375   22.553982 C.2        1 MOL1         0.6075
       2    O1      23.376411   19.876181   21.862082 O.co2      1 MOL1        -0.6830
       3    O2      22.957967   18.884737   23.713106 O.co2      1 MOL1        -0.6830
       4    C2      21.450017   18.521801   21.939492 C.3        1 MOL1        -0.2050
       5    H1      21.296182   17.537687   22.398518 H          1 MOL1         0.0710
       6    H2      21.641110   18.355190   20.872452 H          1 MOL1         0.0710
       7    C3      20.188406   19.400425   22.125014 C.3        1 MOL1        -0.1947
       8    H3      20.017529   19.568476   23.197445 H          1 MOL1         0.0712
       9    H4      20.362493   20.386048   21.671369 H          1 MOL1         0.0712
      10    C4      18.938732   18.751143   21.494690 C.3        1 MOL1        -0.1921
      11    H5      18.763909   17.765765   21.948568 H          1 MOL1         0.0712
      12    H6      19.108978   18.583512   20.422097 H          1 MOL1         0.0712
      13    C5      17.687156   19.631004   21.683113 C.3        1 MOL1        -0.2936
      14    H7      17.822601   20.612929   21.210940 H          1 MOL1         0.0724
      15    H8      17.474998   19.789162   22.748687 H          1 MOL1         0.0724
      16    H9      16.807994   19.155158   21.229468 H          1 MOL1         0.0724
@<TRIPOS>BOND
    1     1     2    1
    2     1     3    2
    3     1     4    1
    4     4     5    1
    5     4     6    1
    6     4     7    1
    7     7     8    1
    8     7     9    1
    9     7    10    1
   10    10    11    1
   11    10    12    1
   12    10    13    1
   13    13    14    1
   14    13    15    1
   15    13    16    1
@<TRIPOS>SUBSTRUCTURE
       1 MOL1            1 RESIDUE      1      MOL     
@<SCITEGIC>MOL_PROPERTY
VConf Rank
SciTegic.value.IntegerValue
542

@<SCITEGIC>MOL_PROPERTY
Conf_Id
SciTegic.value.IntegerValue
22

@<SCITEGIC>MOL_PROPERTY
Delta U+W
SciTegic.value.DoubleValue
-1.185

@<SCITEGIC>MOL_PROPERTY
U+W
SciTegic.value.DoubleValue
-58.089

@<SCITEGIC>MOL_PROPERTY
Grad RMS
SciTegic.value.DoubleValue
0.000000

@<SCITEGIC>MOL_PROPERTY
U
SciTegic.value.DoubleValue
6.298

@<SCITEGIC>MOL_PROPERTY
W
SciTegic.value.DoubleValue
-64.387

@<SCITEGIC>MOL_PROPERTY
W(PB)
SciTegic.value.DoubleValue
-66.329

@<SCITEGIC>MOL_PROPERTY
W(SA)
SciTegic.value.DoubleValue
1.942

@<SCITEGIC>MOL_PROPERTY
Valence
SciTegic.value.DoubleValue
6.246

@<SCITEGIC>MOL_PROPERTY
Coulomb
SciTegic.value.DoubleValue
-0.408

@<SCITEGIC>MOL_PROPERTY
VdW
SciTegic.value.DoubleValue
0.460

@<SCITEGIC>MOL_PROPERTY
VdW6
SciTegic.value.DoubleValue
-4.207

@<SCITEGIC>MOL_PROPERTY
VdW12
SciTegic.value.DoubleValue
4.667

@<SCITEGIC>MOL_PROPERTY
Bond
SciTegic.value.DoubleValue
0.072

@<SCITEGIC>MOL_PROPERTY
Angle
SciTegic.value.DoubleValue
2.246

@<SCITEGIC>MOL_PROPERTY
Pdih
SciTegic.value.DoubleValue
3.928

@<SCITEGIC>MOL_PROPERTY
Idih
SciTegic.value.DoubleValue
0.001

@<SCITEGIC>MOL_PROPERTY
Tether
SciTegic.value.DoubleValue
0.000

@<TRIPOS>MOLECULE
guest-s18_confgen4.mol2 : confsearch ligand conformer 543
          16          15           1
SMALL
USER_CHARGES
 
@<TRIPOS>ATOM
       1    C1      18.698085   20.236748   23.965023 C.2        1 MOL1         0.6075
       2    O1      19.096898   20.167538   25.110516 O.co2      1 MOL1        -0.6830
       3    O2      17.544386   20.476095   23.668969 O.co2      1 MOL1        -0.6830
       4    C2      19.695593   19.989947   22.838684 C.3        1 MOL1        -0.2050
       5    H1      20.678487   20.345640   23.170297 H          1 MOL1         0.0710
       6    H2      19.396559   20.609382   21.985457 H          1 MOL1         0.0710
       7    C3      19.778951   18.497423   22.425868 C.3        1 MOL1        -0.1947
       8    H3      19.994497   17.895342   23.319438 H          1 MOL1         0.0712
       9    H4      18.799558   18.164271   22.055589 H          1 MOL1         0.0712
      10    C4      20.863877   18.212940   21.361719 C.3        1 MOL1        -0.1921
      11    H5      20.931456   17.127102   21.207780 H          1 MOL1         0.0712
      12    H6      21.845202   18.535268   21.736534 H          1 MOL1         0.0712
      13    C5      20.578120   18.891149   20.004771 C.3        1 MOL1        -0.2936
      14    H7      20.613768   19.984599   20.087704 H          1 MOL1         0.0724
      15    H8      19.588772   18.606131   19.623714 H          1 MOL1         0.0724
      16    H9      21.326508   18.589997   19.260304 H          1 MOL1         0.0724
@<TRIPOS>BOND
    1     1     2    1
    2     1     3    2
    3     1     4    1
    4     4     5    1
    5     4     6    1
    6     4     7    1
    7     7     8    1
    8     7     9    1
    9     7    10    1
   10    10    11    1
   11    10    12    1
   12    10    13    1
   13    13    14    1
   14    13    15    1
   15    13    16    1
@<TRIPOS>SUBSTRUCTURE
       1 MOL1            1 RESIDUE      1      MOL     
@<SCITEGIC>MOL_PROPERTY
VConf Rank
SciTegic.value.IntegerValue
543

@<SCITEGIC>MOL_PROPERTY
Conf_Id
SciTegic.value.IntegerValue
36

@<SCITEGIC>MOL_PROPERTY
Delta U+W
SciTegic.value.DoubleValue
-0.427

@<SCITEGIC>MOL_PROPERTY
U+W
SciTegic.value.DoubleValue
-57.331

@<SCITEGIC>MOL_PROPERTY
Grad RMS
SciTegic.value.DoubleValue
0.000000

@<SCITEGIC>MOL_PROPERTY
U
SciTegic.value.DoubleValue
7.263

@<SCITEGIC>MOL_PROPERTY
W
SciTegic.value.DoubleValue
-64.594

@<SCITEGIC>MOL_PROPERTY
W(PB)
SciTegic.value.DoubleValue
-66.513

@<SCITEGIC>MOL_PROPERTY
W(SA)
SciTegic.value.DoubleValue
1.920

@<SCITEGIC>MOL_PROPERTY
Valence
SciTegic.value.DoubleValue
6.734

@<SCITEGIC>MOL_PROPERTY
Coulomb
SciTegic.value.DoubleValue
-0.068

@<SCITEGIC>MOL_PROPERTY
VdW
SciTegic.value.DoubleValue
0.598

@<SCITEGIC>MOL_PROPERTY
VdW6
SciTegic.value.DoubleValue
-4.819

@<SCITEGIC>MOL_PROPERTY
VdW12
SciTegic.value.DoubleValue
5.417

@<SCITEGIC>MOL_PROPERTY
Bond
SciTegic.value.DoubleValue
0.107

@<SCITEGIC>MOL_PROPERTY
Angle
SciTegic.value.DoubleValue
2.469

@<SCITEGIC>MOL_PROPERTY
Pdih
SciTegic.value.DoubleValue
4.157

@<SCITEGIC>MOL_PROPERTY
Idih
SciTegic.value.DoubleValue
0.001

@<SCITEGIC>MOL_PROPERTY
Tether
SciTegic.value.DoubleValue
0.000

@<TRIPOS>MOLECULE
guest-s18_confgen4.mol2 : confsearch ligand conformer 544
          16          15           1
SMALL
USER_CHARGES
 
@<TRIPOS>ATOM
       1    C1      20.041980   21.712061   22.282475 C.2        1 MOL1         0.6075
       2    O1      18.923522   22.178051   22.371155 O.co2      1 MOL1        -0.6830
       3    O2      21.022797   22.369796   21.997206 O.co2      1 MOL1        -0.6830
       4    C2      20.221790   20.217178   22.522403 C.3        1 MOL1        -0.2050
       5    H1      19.485858   19.908125   23.273408 H          1 MOL1         0.0710
       6    H2      21.216124   20.059256   22.957060 H          1 MOL1         0.0710
       7    C3      20.065058   19.377494   21.228046 C.3        1 MOL1        -0.1947
       8    H3      19.051393   19.510392   20.825392 H          1 MOL1         0.0712
       9    H4      20.755176   19.768559   20.467628 H          1 MOL1         0.0712
      10    C4      20.352524   17.872180   21.432494 C.3        1 MOL1        -0.1921
      11    H5      21.370424   17.738371   21.824099 H          1 MOL1         0.0712
      12    H6      20.327609   17.371856   20.454555 H          1 MOL1         0.0712
      13    C5      19.340249   17.181193   22.370986 C.3        1 MOL1        -0.2936
      14    H7      19.409451   17.572949   23.393494 H          1 MOL1         0.0724
      15    H8      19.533377   16.101494   22.415247 H          1 MOL1         0.0724
      16    H9      18.311957   17.326182   22.014834 H          1 MOL1         0.0724
@<TRIPOS>BOND
    1     1     2    1
    2     1     3    2
    3     1     4    1
    4     4     5    1
    5     4     6    1
    6     4     7    1
    7     7     8    1
    8     7     9    1
    9     7    10    1
   10    10    11    1
   11    10    12    1
   12    10    13    1
   13    13    14    1
   14    13    15    1
   15    13    16    1
@<TRIPOS>SUBSTRUCTURE
       1 MOL1            1 RESIDUE      1      MOL     
@<SCITEGIC>MOL_PROPERTY
VConf Rank
SciTegic.value.IntegerValue
544

@<SCITEGIC>MOL_PROPERTY
Conf_Id
SciTegic.value.IntegerValue
17

@<SCITEGIC>MOL_PROPERTY
Delta U+W
SciTegic.value.DoubleValue
-0.432

@<SCITEGIC>MOL_PROPERTY
U+W
SciTegic.value.DoubleValue
-57.336

@<SCITEGIC>MOL_PROPERTY
Grad RMS
SciTegic.value.DoubleValue
0.000000

@<SCITEGIC>MOL_PROPERTY
U
SciTegic.value.DoubleValue
7.263

@<SCITEGIC>MOL_PROPERTY
W
SciTegic.value.DoubleValue
-64.599

@<SCITEGIC>MOL_PROPERTY
W(PB)
SciTegic.value.DoubleValue
-66.503

@<SCITEGIC>MOL_PROPERTY
W(SA)
SciTegic.value.DoubleValue
1.904

@<SCITEGIC>MOL_PROPERTY
Valence
SciTegic.value.DoubleValue
6.734

@<SCITEGIC>MOL_PROPERTY
Coulomb
SciTegic.value.DoubleValue
-0.068

@<SCITEGIC>MOL_PROPERTY
VdW
SciTegic.value.DoubleValue
0.598

@<SCITEGIC>MOL_PROPERTY
VdW6
SciTegic.value.DoubleValue
-4.819

@<SCITEGIC>MOL_PROPERTY
VdW12
SciTegic.value.DoubleValue
5.417

@<SCITEGIC>MOL_PROPERTY
Bond
SciTegic.value.DoubleValue
0.107

@<SCITEGIC>MOL_PROPERTY
Angle
SciTegic.value.DoubleValue
2.469

@<SCITEGIC>MOL_PROPERTY
Pdih
SciTegic.value.DoubleValue
4.157

@<SCITEGIC>MOL_PROPERTY
Idih
SciTegic.value.DoubleValue
0.001

@<SCITEGIC>MOL_PROPERTY
Tether
SciTegic.value.DoubleValue
0.000

@<TRIPOS>MOLECULE
guest-s18_confgen4.mol2 : confsearch ligand conformer 545
          16          15           1
SMALL
USER_CHARGES
 
@<TRIPOS>ATOM
       1    C1      20.675222   18.665890   19.833632 C.2        1 MOL1         0.6075
       2    O1      21.750277   18.117053   19.694429 O.co2      1 MOL1        -0.6830
       3    O2      19.650420   18.277207   19.309257 O.co2      1 MOL1        -0.6830
       4    C2      20.615895   19.924828   20.694472 C.3        1 MOL1        -0.2050
       5    H1      19.702593   20.478161   20.443896 H          1 MOL1         0.0710
       6    H2      21.461080   20.560500   20.404962 H          1 MOL1         0.0710
       7    C3      20.673726   19.650868   22.219803 C.3        1 MOL1        -0.1947
       8    H3      21.578437   19.071798   22.451752 H          1 MOL1         0.0712
       9    H4      20.766284   20.608086   22.750581 H          1 MOL1         0.0712
      10    C4      19.426423   18.901412   22.736266 C.3        1 MOL1        -0.1921
      11    H5      19.334974   17.932167   22.226438 H          1 MOL1         0.0712
      12    H6      18.521777   19.475560   22.492654 H          1 MOL1         0.0712
      13    C5      19.493806   18.672019   24.259152 C.3        1 MOL1        -0.2936
      14    H7      20.374084   18.073096   24.527203 H          1 MOL1         0.0724
      15    H8      18.600984   18.137941   24.609504 H          1 MOL1         0.0724
      16    H9      19.551119   19.626696   24.798338 H          1 MOL1         0.0724
@<TRIPOS>BOND
    1     1     2    1
    2     1     3    2
    3     1     4    1
    4     4     5    1
    5     4     6    1
    6     4     7    1
    7     7     8    1
    8     7     9    1
    9     7    10    1
   10    10    11    1
   11    10    12    1
   12    10    13    1
   13    13    14    1
   14    13    15    1
   15    13    16    1
@<TRIPOS>SUBSTRUCTURE
       1 MOL1            1 RESIDUE      1      MOL     
@<SCITEGIC>MOL_PROPERTY
VConf Rank
SciTegic.value.IntegerValue
545

@<SCITEGIC>MOL_PROPERTY
Conf_Id
SciTegic.value.IntegerValue
19

@<SCITEGIC>MOL_PROPERTY
Delta U+W
SciTegic.value.DoubleValue
0.048

@<SCITEGIC>MOL_PROPERTY
U+W
SciTegic.value.DoubleValue
-56.856

@<SCITEGIC>MOL_PROPERTY
Grad RMS
SciTegic.value.DoubleValue
0.000000

@<SCITEGIC>MOL_PROPERTY
U
SciTegic.value.DoubleValue
8.276

@<SCITEGIC>MOL_PROPERTY
W
SciTegic.value.DoubleValue
-65.132

@<SCITEGIC>MOL_PROPERTY
W(PB)
SciTegic.value.DoubleValue
-67.031

@<SCITEGIC>MOL_PROPERTY
W(SA)
SciTegic.value.DoubleValue
1.899

@<SCITEGIC>MOL_PROPERTY
Valence
SciTegic.value.DoubleValue
6.513

@<SCITEGIC>MOL_PROPERTY
Coulomb
SciTegic.value.DoubleValue
1.428

@<SCITEGIC>MOL_PROPERTY
VdW
SciTegic.value.DoubleValue
0.335

@<SCITEGIC>MOL_PROPERTY
VdW6
SciTegic.value.DoubleValue
-5.021

@<SCITEGIC>MOL_PROPERTY
VdW12
SciTegic.value.DoubleValue
5.356

@<SCITEGIC>MOL_PROPERTY
Bond
SciTegic.value.DoubleValue
0.092

@<SCITEGIC>MOL_PROPERTY
Angle
SciTegic.value.DoubleValue
2.417

@<SCITEGIC>MOL_PROPERTY
Pdih
SciTegic.value.DoubleValue
4.003

@<SCITEGIC>MOL_PROPERTY
Idih
SciTegic.value.DoubleValue
0.001

@<SCITEGIC>MOL_PROPERTY
Tether
SciTegic.value.DoubleValue
0.000

@<TRIPOS>MOLECULE
guest-s18_confgen4.mol2 : confsearch ligand conformer 546
          16          15           1
SMALL
USER_CHARGES
 
@<TRIPOS>ATOM
       1    C1      22.216801   19.161649   22.362029 C.2        1 MOL1         0.6075
       2    O1      22.825859   19.343313   21.326467 O.co2      1 MOL1        -0.6830
       3    O2      22.472543   18.266533   23.142814 O.co2      1 MOL1        -0.6830
       4    C2      21.085274   20.124986   22.710062 C.3        1 MOL1        -0.2050
       5    H1      21.451157   21.141786   22.524366 H          1 MOL1         0.0710
       6    H2      20.881656   20.052765   23.785427 H          1 MOL1         0.0710
       7    C3      19.782861   19.888586   21.902053 C.3        1 MOL1        -0.1947
       8    H3      19.078923   20.704774   22.113870 H          1 MOL1         0.0712
       9    H4      20.007464   19.935512   20.827355 H          1 MOL1         0.0712
      10    C4      19.112465   18.538739   22.237720 C.3        1 MOL1        -0.1921
      11    H5      18.899755   18.488210   23.314557 H          1 MOL1         0.0712
      12    H6      19.800777   17.712765   22.010305 H          1 MOL1         0.0712
      13    C5      17.803764   18.344221   21.446635 C.3        1 MOL1        -0.2936
      14    H7      17.081642   19.137586   21.680146 H          1 MOL1         0.0724
      15    H8      17.340939   17.380510   21.695979 H          1 MOL1         0.0724
      16    H9      17.992918   18.359746   20.365233 H          1 MOL1         0.0724
@<TRIPOS>BOND
    1     1     2    1
    2     1     3    2
    3     1     4    1
    4     4     5    1
    5     4     6    1
    6     4     7    1
    7     7     8    1
    8     7     9    1
    9     7    10    1
   10    10    11    1
   11    10    12    1
   12    10    13    1
   13    13    14    1
   14    13    15    1
   15    13    16    1
@<TRIPOS>SUBSTRUCTURE
       1 MOL1            1 RESIDUE      1      MOL     
@<SCITEGIC>MOL_PROPERTY
VConf Rank
SciTegic.value.IntegerValue
546

@<SCITEGIC>MOL_PROPERTY
Conf_Id
SciTegic.value.IntegerValue
20

@<SCITEGIC>MOL_PROPERTY
Delta U+W
SciTegic.value.DoubleValue
-0.010

@<SCITEGIC>MOL_PROPERTY
U+W
SciTegic.value.DoubleValue
-56.914

@<SCITEGIC>MOL_PROPERTY
Grad RMS
SciTegic.value.DoubleValue
0.000000

@<SCITEGIC>MOL_PROPERTY
U
SciTegic.value.DoubleValue
8.277

@<SCITEGIC>MOL_PROPERTY
W
SciTegic.value.DoubleValue
-65.191

@<SCITEGIC>MOL_PROPERTY
W(PB)
SciTegic.value.DoubleValue
-67.081

@<SCITEGIC>MOL_PROPERTY
W(SA)
SciTegic.value.DoubleValue
1.890

@<SCITEGIC>MOL_PROPERTY
Valence
SciTegic.value.DoubleValue
6.513

@<SCITEGIC>MOL_PROPERTY
Coulomb
SciTegic.value.DoubleValue
1.429

@<SCITEGIC>MOL_PROPERTY
VdW
SciTegic.value.DoubleValue
0.335

@<SCITEGIC>MOL_PROPERTY
VdW6
SciTegic.value.DoubleValue
-5.021

@<SCITEGIC>MOL_PROPERTY
VdW12
SciTegic.value.DoubleValue
5.356

@<SCITEGIC>MOL_PROPERTY
Bond
SciTegic.value.DoubleValue
0.092

@<SCITEGIC>MOL_PROPERTY
Angle
SciTegic.value.DoubleValue
2.417

@<SCITEGIC>MOL_PROPERTY
Pdih
SciTegic.value.DoubleValue
4.002

@<SCITEGIC>MOL_PROPERTY
Idih
SciTegic.value.DoubleValue
0.001

@<SCITEGIC>MOL_PROPERTY
Tether
SciTegic.value.DoubleValue
0.000

@<TRIPOS>MOLECULE
guest-s18_confgen4.mol2 : confsearch ligand conformer 547
          16          15           1
SMALL
USER_CHARGES
 
@<TRIPOS>ATOM
       1    C1      21.484951   18.805551   23.536946 C.2        1 MOL1         0.6075
       2    O1      22.571809   19.338835   23.431425 O.co2      1 MOL1        -0.6830
       3    O2      21.338791   17.618252   23.749692 O.co2      1 MOL1        -0.6830
       4    C2      20.239864   19.681951   23.430059 C.3        1 MOL1        -0.2050
       5    H1      20.380875   20.531825   24.108079 H          1 MOL1         0.0710
       6    H2      19.380012   19.119904   23.812166 H          1 MOL1         0.0710
       7    C3      19.955467   20.210826   21.997549 C.3        1 MOL1        -0.1947
       8    H3      19.094667   20.892275   22.029542 H          1 MOL1         0.0712
       9    H4      20.813013   20.813189   21.667201 H          1 MOL1         0.0712
      10    C4      19.689357   19.103603   20.950060 C.3        1 MOL1        -0.1921
      11    H5      20.558547   18.434535   20.883322 H          1 MOL1         0.0712
      12    H6      19.583010   19.571655   19.961755 H          1 MOL1         0.0712
      13    C5      18.421089   18.275885   21.248089 C.3        1 MOL1        -0.2936
      14    H7      18.534513   17.692016   22.170433 H          1 MOL1         0.0724
      15    H8      18.223025   17.570011   20.431160 H          1 MOL1         0.0724
      16    H9      17.542611   18.925435   21.354983 H          1 MOL1         0.0724
@<TRIPOS>BOND
    1     1     2    1
    2     1     3    2
    3     1     4    1
    4     4     5    1
    5     4     6    1
    6     4     7    1
    7     7     8    1
    8     7     9    1
    9     7    10    1
   10    10    11    1
   11    10    12    1
   12    10    13    1
   13    13    14    1
   14    13    15    1
   15    13    16    1
@<TRIPOS>SUBSTRUCTURE
       1 MOL1            1 RESIDUE      1      MOL     
@<SCITEGIC>MOL_PROPERTY
VConf Rank
SciTegic.value.IntegerValue
547

@<SCITEGIC>MOL_PROPERTY
Conf_Id
SciTegic.value.IntegerValue
37

@<SCITEGIC>MOL_PROPERTY
Delta U+W
SciTegic.value.DoubleValue
1.063

@<SCITEGIC>MOL_PROPERTY
U+W
SciTegic.value.DoubleValue
-55.841

@<SCITEGIC>MOL_PROPERTY
Grad RMS
SciTegic.value.DoubleValue
0.000000

@<SCITEGIC>MOL_PROPERTY
U
SciTegic.value.DoubleValue
9.719

@<SCITEGIC>MOL_PROPERTY
W
SciTegic.value.DoubleValue
-65.560

@<SCITEGIC>MOL_PROPERTY
W(PB)
SciTegic.value.DoubleValue
-67.414

@<SCITEGIC>MOL_PROPERTY
W(SA)
SciTegic.value.DoubleValue
1.854

@<SCITEGIC>MOL_PROPERTY
Valence
SciTegic.value.DoubleValue
7.002

@<SCITEGIC>MOL_PROPERTY
Coulomb
SciTegic.value.DoubleValue
2.402

@<SCITEGIC>MOL_PROPERTY
VdW
SciTegic.value.DoubleValue
0.314

@<SCITEGIC>MOL_PROPERTY
VdW6
SciTegic.value.DoubleValue
-5.861

@<SCITEGIC>MOL_PROPERTY
VdW12
SciTegic.value.DoubleValue
6.175

@<SCITEGIC>MOL_PROPERTY
Bond
SciTegic.value.DoubleValue
0.134

@<SCITEGIC>MOL_PROPERTY
Angle
SciTegic.value.DoubleValue
2.733

@<SCITEGIC>MOL_PROPERTY
Pdih
SciTegic.value.DoubleValue
4.133

@<SCITEGIC>MOL_PROPERTY
Idih
SciTegic.value.DoubleValue
0.002

@<SCITEGIC>MOL_PROPERTY
Tether
SciTegic.value.DoubleValue
0.000

@<TRIPOS>MOLECULE
guest-s18_confgen4.mol2 : confsearch ligand conformer 548
          16          15           1
SMALL
USER_CHARGES
 
@<TRIPOS>ATOM
       1    C1      20.940468   18.992043   24.161081 C.2        1 MOL1         0.6075
       2    O1      21.961319   18.387270   24.423564 O.co2      1 MOL1        -0.6830
       3    O2      20.694291   20.105393   24.580781 O.co2      1 MOL1        -0.6830
       4    C2      19.898844   18.300074   23.285898 C.3        1 MOL1        -0.2050
       5    H1      18.951212   18.844345   23.369629 H          1 MOL1         0.0710
       6    H2      19.723969   17.305531   23.712727 H          1 MOL1         0.0710
       7    C3      20.315876   18.152698   21.796923 C.3        1 MOL1        -0.1947
       8    H3      21.238127   17.557526   21.746154 H          1 MOL1         0.0712
       9    H4      19.547971   17.576665   21.263183 H          1 MOL1         0.0712
      10    C4      20.546538   19.495311   21.063317 C.3        1 MOL1        -0.1921
      11    H5      20.915478   19.284466   20.050126 H          1 MOL1         0.0712
      12    H6      21.338147   20.066576   21.567905 H          1 MOL1         0.0712
      13    C5      19.271506   20.358970   20.959264 C.3        1 MOL1        -0.2936
      14    H7      18.452847   19.798202   20.489792 H          1 MOL1         0.0724
      15    H8      19.462209   21.252701   20.351204 H          1 MOL1         0.0724
      16    H9      18.937499   20.696375   21.948751 H          1 MOL1         0.0724
@<TRIPOS>BOND
    1     1     2    1
    2     1     3    2
    3     1     4    1
    4     4     5    1
    5     4     6    1
    6     4     7    1
    7     7     8    1
    8     7     9    1
    9     7    10    1
   10    10    11    1
   11    10    12    1
   12    10    13    1
   13    13    14    1
   14    13    15    1
   15    13    16    1
@<TRIPOS>SUBSTRUCTURE
       1 MOL1            1 RESIDUE      1      MOL     
@<SCITEGIC>MOL_PROPERTY
VConf Rank
SciTegic.value.IntegerValue
548

@<SCITEGIC>MOL_PROPERTY
Conf_Id
SciTegic.value.IntegerValue
39

@<SCITEGIC>MOL_PROPERTY
Delta U+W
SciTegic.value.DoubleValue
1.129

@<SCITEGIC>MOL_PROPERTY
U+W
SciTegic.value.DoubleValue
-55.775

@<SCITEGIC>MOL_PROPERTY
Grad RMS
SciTegic.value.DoubleValue
0.000000

@<SCITEGIC>MOL_PROPERTY
U
SciTegic.value.DoubleValue
9.718

@<SCITEGIC>MOL_PROPERTY
W
SciTegic.value.DoubleValue
-65.493

@<SCITEGIC>MOL_PROPERTY
W(PB)
SciTegic.value.DoubleValue
-67.361

@<SCITEGIC>MOL_PROPERTY
W(SA)
SciTegic.value.DoubleValue
1.869

@<SCITEGIC>MOL_PROPERTY
Valence
SciTegic.value.DoubleValue
7.002

@<SCITEGIC>MOL_PROPERTY
Coulomb
SciTegic.value.DoubleValue
2.402

@<SCITEGIC>MOL_PROPERTY
VdW
SciTegic.value.DoubleValue
0.314

@<SCITEGIC>MOL_PROPERTY
VdW6
SciTegic.value.DoubleValue
-5.861

@<SCITEGIC>MOL_PROPERTY
VdW12
SciTegic.value.DoubleValue
6.175

@<SCITEGIC>MOL_PROPERTY
Bond
SciTegic.value.DoubleValue
0.134

@<SCITEGIC>MOL_PROPERTY
Angle
SciTegic.value.DoubleValue
2.734

@<SCITEGIC>MOL_PROPERTY
Pdih
SciTegic.value.DoubleValue
4.133

@<SCITEGIC>MOL_PROPERTY
Idih
SciTegic.value.DoubleValue
0.002

@<SCITEGIC>MOL_PROPERTY
Tether
SciTegic.value.DoubleValue
0.000

@<TRIPOS>MOLECULE
guest-s18_confgen4.mol2 : confsearch ligand conformer 549
          16          15           1
SMALL
USER_CHARGES
 
@<TRIPOS>ATOM
       1    C1      20.713599   17.959842   23.705394 C.2        1 MOL1         0.6075
       2    O1      20.897988   18.607342   24.717108 O.co2      1 MOL1        -0.6830
       3    O2      21.559328   17.243551   23.206568 O.co2      1 MOL1        -0.6830
       4    C2      19.319294   17.978585   23.081521 C.3        1 MOL1        -0.2050
       5    H1      18.662038   18.606297   23.695501 H          1 MOL1         0.0710
       6    H2      18.933901   16.955023   23.155968 H          1 MOL1         0.0710
       7    C3      19.262265   18.432472   21.595682 C.3        1 MOL1        -0.1947
       8    H3      20.064732   17.945541   21.024294 H          1 MOL1         0.0712
       9    H4      18.319925   18.067129   21.165598 H          1 MOL1         0.0712
      10    C4      19.314359   19.964912   21.384793 C.3        1 MOL1        -0.1921
      11    H5      18.511890   20.448049   21.959122 H          1 MOL1         0.0712
      12    H6      19.107137   20.177101   20.326810 H          1 MOL1         0.0712
      13    C5      20.671267   20.599650   21.753840 C.3        1 MOL1        -0.2936
      14    H7      20.849875   20.559983   22.835286 H          1 MOL1         0.0724
      15    H8      20.695502   21.655269   21.454090 H          1 MOL1         0.0724
      16    H9      21.498191   20.084073   21.248165 H          1 MOL1         0.0724
@<TRIPOS>BOND
    1     1     2    1
    2     1     3    2
    3     1     4    1
    4     4     5    1
    5     4     6    1
    6     4     7    1
    7     7     8    1
    8     7     9    1
    9     7    10    1
   10    10    11    1
   11    10    12    1
   12    10    13    1
   13    13    14    1
   14    13    15    1
   15    13    16    1
@<TRIPOS>SUBSTRUCTURE
       1 MOL1            1 RESIDUE      1      MOL     
@<SCITEGIC>MOL_PROPERTY
VConf Rank
SciTegic.value.IntegerValue
549

@<SCITEGIC>MOL_PROPERTY
Conf_Id
SciTegic.value.IntegerValue
47

@<SCITEGIC>MOL_PROPERTY
Delta U+W
SciTegic.value.DoubleValue
2.301

@<SCITEGIC>MOL_PROPERTY
U+W
SciTegic.value.DoubleValue
-54.603

@<SCITEGIC>MOL_PROPERTY
Grad RMS
SciTegic.value.DoubleValue
0.000000

@<SCITEGIC>MOL_PROPERTY
U
SciTegic.value.DoubleValue
11.258

@<SCITEGIC>MOL_PROPERTY
W
SciTegic.value.DoubleValue
-65.861

@<SCITEGIC>MOL_PROPERTY
W(PB)
SciTegic.value.DoubleValue
-67.702

@<SCITEGIC>MOL_PROPERTY
W(SA)
SciTegic.value.DoubleValue
1.841

@<SCITEGIC>MOL_PROPERTY
Valence
SciTegic.value.DoubleValue
8.169

@<SCITEGIC>MOL_PROPERTY
Coulomb
SciTegic.value.DoubleValue
2.735

@<SCITEGIC>MOL_PROPERTY
VdW
SciTegic.value.DoubleValue
0.355

@<SCITEGIC>MOL_PROPERTY
VdW6
SciTegic.value.DoubleValue
-6.245

@<SCITEGIC>MOL_PROPERTY
VdW12
SciTegic.value.DoubleValue
6.600

@<SCITEGIC>MOL_PROPERTY
Bond
SciTegic.value.DoubleValue
0.149

@<SCITEGIC>MOL_PROPERTY
Angle
SciTegic.value.DoubleValue
3.168

@<SCITEGIC>MOL_PROPERTY
Pdih
SciTegic.value.DoubleValue
4.840

@<SCITEGIC>MOL_PROPERTY
Idih
SciTegic.value.DoubleValue
0.011

@<SCITEGIC>MOL_PROPERTY
Tether
SciTegic.value.DoubleValue
0.000

@<TRIPOS>MOLECULE
guest-s18_confgen4.mol2 : confsearch ligand conformer 550
          16          15           1
SMALL
USER_CHARGES
 
@<TRIPOS>ATOM
       1    C1      18.215988   18.407565   21.412198 C.2        1 MOL1         0.6075
       2    O1      18.209552   18.738444   20.242738 O.co2      1 MOL1        -0.6830
       3    O2      17.256464   18.532035   22.147480 O.co2      1 MOL1        -0.6830
       4    C2      19.462360   17.717604   21.963722 C.3        1 MOL1        -0.2050
       5    H1      19.585678   16.794462   21.385491 H          1 MOL1         0.0710
       6    H2      19.273209   17.414829   23.000798 H          1 MOL1         0.0710
       7    C3      20.774472   18.546891   21.876352 C.3        1 MOL1        -0.1947
       8    H3      21.620932   17.850686   21.948859 H          1 MOL1         0.0712
       9    H4      20.854236   19.018513   20.887034 H          1 MOL1         0.0712
      10    C4      20.942431   19.611220   22.987457 C.3        1 MOL1        -0.1921
      11    H5      21.960468   20.019984   22.925755 H          1 MOL1         0.0712
      12    H6      20.860219   19.136078   23.974732 H          1 MOL1         0.0712
      13    C5      19.939844   20.779705   22.888719 C.3        1 MOL1        -0.2936
      14    H7      20.194483   21.566119   23.610855 H          1 MOL1         0.0724
      15    H8      18.917621   20.448627   23.108831 H          1 MOL1         0.0724
      16    H9      19.950198   21.224255   21.884927 H          1 MOL1         0.0724
@<TRIPOS>BOND
    1     1     2    1
    2     1     3    2
    3     1     4    1
    4     4     5    1
    5     4     6    1
    6     4     7    1
    7     7     8    1
    8     7     9    1
    9     7    10    1
   10    10    11    1
   11    10    12    1
   12    10    13    1
   13    13    14    1
   14    13    15    1
   15    13    16    1
@<TRIPOS>SUBSTRUCTURE
       1 MOL1            1 RESIDUE      1      MOL     
@<SCITEGIC>MOL_PROPERTY
VConf Rank
SciTegic.value.IntegerValue
550

@<SCITEGIC>MOL_PROPERTY
Conf_Id
SciTegic.value.IntegerValue
45

@<SCITEGIC>MOL_PROPERTY
Delta U+W
SciTegic.value.DoubleValue
2.303

@<SCITEGIC>MOL_PROPERTY
U+W
SciTegic.value.DoubleValue
-54.601

@<SCITEGIC>MOL_PROPERTY
Grad RMS
SciTegic.value.DoubleValue
0.000000

@<SCITEGIC>MOL_PROPERTY
U
SciTegic.value.DoubleValue
11.258

@<SCITEGIC>MOL_PROPERTY
W
SciTegic.value.DoubleValue
-65.860

@<SCITEGIC>MOL_PROPERTY
W(PB)
SciTegic.value.DoubleValue
-67.709

@<SCITEGIC>MOL_PROPERTY
W(SA)
SciTegic.value.DoubleValue
1.849

@<SCITEGIC>MOL_PROPERTY
Valence
SciTegic.value.DoubleValue
8.169

@<SCITEGIC>MOL_PROPERTY
Coulomb
SciTegic.value.DoubleValue
2.735

@<SCITEGIC>MOL_PROPERTY
VdW
SciTegic.value.DoubleValue
0.355

@<SCITEGIC>MOL_PROPERTY
VdW6
SciTegic.value.DoubleValue
-6.245

@<SCITEGIC>MOL_PROPERTY
VdW12
SciTegic.value.DoubleValue
6.600

@<SCITEGIC>MOL_PROPERTY
Bond
SciTegic.value.DoubleValue
0.149

@<SCITEGIC>MOL_PROPERTY
Angle
SciTegic.value.DoubleValue
3.168

@<SCITEGIC>MOL_PROPERTY
Pdih
SciTegic.value.DoubleValue
4.840

@<SCITEGIC>MOL_PROPERTY
Idih
SciTegic.value.DoubleValue
0.011

@<SCITEGIC>MOL_PROPERTY
Tether
SciTegic.value.DoubleValue
0.000

@<TRIPOS>MOLECULE
guest-s18_confgen4.mol2 : confsearch ligand conformer 551
          16          15           1
SMALL
USER_CHARGES
 
@<TRIPOS>ATOM
       1    C1      20.215899   19.659803   19.231095 C.2        1 MOL1         0.6075
       2    O1      20.756840   18.603887   18.966138 O.co2      1 MOL1        -0.6830
       3    O2      19.966464   20.504322   18.394506 O.co2      1 MOL1        -0.6830
       4    C2      19.818941   19.969185   20.675602 C.3        1 MOL1        -0.2050
       5    H1      18.740158   20.164944   20.683762 H          1 MOL1         0.0710
       6    H2      20.316674   20.904224   20.958672 H          1 MOL1         0.0710
       7    C3      20.157973   18.861995   21.708817 C.3        1 MOL1        -0.1947
       8    H3      19.661018   17.926390   21.417015 H          1 MOL1         0.0712
       9    H4      21.239155   18.666446   21.692217 H          1 MOL1         0.0712
      10    C4      19.723851   19.257014   23.135967 C.3        1 MOL1        -0.1921
      11    H5      18.642429   19.451153   23.154338 H          1 MOL1         0.0712
      12    H6      20.221506   20.191654   23.429716 H          1 MOL1         0.0712
      13    C5      20.063173   18.153558   24.157429 C.3        1 MOL1        -0.2936
      14    H7      19.553000   17.214625   23.905242 H          1 MOL1         0.0724
      15    H8      19.748119   18.450195   25.166334 H          1 MOL1         0.0724
      16    H9      21.143726   17.960586   24.182656 H          1 MOL1         0.0724
@<TRIPOS>BOND
    1     1     2    1
    2     1     3    2
    3     1     4    1
    4     4     5    1
    5     4     6    1
    6     4     7    1
    7     7     8    1
    8     7     9    1
    9     7    10    1
   10    10    11    1
   11    10    12    1
   12    10    13    1
   13    13    14    1
   14    13    15    1
   15    13    16    1
@<TRIPOS>SUBSTRUCTURE
       1 MOL1            1 RESIDUE      1      MOL     
@<SCITEGIC>MOL_PROPERTY
VConf Rank
SciTegic.value.IntegerValue
551

@<SCITEGIC>MOL_PROPERTY
Conf_Id
SciTegic.value.IntegerValue
0

@<SCITEGIC>MOL_PROPERTY
Delta U+W
SciTegic.value.DoubleValue
0.000

@<SCITEGIC>MOL_PROPERTY
U+W
SciTegic.value.DoubleValue
-56.904

@<SCITEGIC>MOL_PROPERTY
Grad RMS
SciTegic.value.DoubleValue
0.000000

@<SCITEGIC>MOL_PROPERTY
U
SciTegic.value.DoubleValue
7.329

@<SCITEGIC>MOL_PROPERTY
W
SciTegic.value.DoubleValue
-64.233

@<SCITEGIC>MOL_PROPERTY
W(PB)
SciTegic.value.DoubleValue
-66.148

@<SCITEGIC>MOL_PROPERTY
W(SA)
SciTegic.value.DoubleValue
1.915

@<SCITEGIC>MOL_PROPERTY
Valence
SciTegic.value.DoubleValue
6.755

@<SCITEGIC>MOL_PROPERTY
Coulomb
SciTegic.value.DoubleValue
-0.421

@<SCITEGIC>MOL_PROPERTY
VdW
SciTegic.value.DoubleValue
0.995

@<SCITEGIC>MOL_PROPERTY
VdW6
SciTegic.value.DoubleValue
-4.495

@<SCITEGIC>MOL_PROPERTY
VdW12
SciTegic.value.DoubleValue
5.490

@<SCITEGIC>MOL_PROPERTY
Bond
SciTegic.value.DoubleValue
0.106

@<SCITEGIC>MOL_PROPERTY
Angle
SciTegic.value.DoubleValue
2.715

@<SCITEGIC>MOL_PROPERTY
Pdih
SciTegic.value.DoubleValue
3.934

@<SCITEGIC>MOL_PROPERTY
Idih
SciTegic.value.DoubleValue
0.000

@<SCITEGIC>MOL_PROPERTY
Tether
SciTegic.value.DoubleValue
0.000

@<TRIPOS>MOLECULE
guest-s18_confgen4.mol2 : confsearch ligand conformer 552
          16          15           1
SMALL
USER_CHARGES
 
@<TRIPOS>ATOM
       1    C1      19.293671   17.404245   23.932336 C.2        1 MOL1         0.6075
       2    O1      20.198453   17.045101   24.659129 O.co2      1 MOL1        -0.6830
       3    O2      18.141623   17.519444   24.300247 O.co2      1 MOL1        -0.6830
       4    C2      19.625302   17.746501   22.484074 C.3        1 MOL1        -0.2050
       5    H1      18.755793   17.492322   21.865853 H          1 MOL1         0.0710
       6    H2      20.451594   17.101357   22.161770 H          1 MOL1         0.0710
       7    C3      20.002817   19.235478   22.287879 C.3        1 MOL1        -0.1947
       8    H3      19.170874   19.868584   22.626399 H          1 MOL1         0.0712
       9    H4      20.866715   19.477626   22.922384 H          1 MOL1         0.0712
      10    C4      20.333483   19.554751   20.815029 C.3        1 MOL1        -0.1921
      11    H5      19.469565   19.313371   20.180270 H          1 MOL1         0.0712
      12    H6      21.165825   18.922281   20.476317 H          1 MOL1         0.0712
      13    C5      20.708255   21.038128   20.627306 C.3        1 MOL1        -0.2936
      14    H7      21.589613   21.299589   21.227571 H          1 MOL1         0.0724
      15    H8      19.880830   21.693569   20.929361 H          1 MOL1         0.0724
      16    H9      20.940331   21.248245   19.575098 H          1 MOL1         0.0724
@<TRIPOS>BOND
    1     1     2    1
    2     1     3    2
    3     1     4    1
    4     4     5    1
    5     4     6    1
    6     4     7    1
    7     7     8    1
    8     7     9    1
    9     7    10    1
   10    10    11    1
   11    10    12    1
   12    10    13    1
   13    13    14    1
   14    13    15    1
   15    13    16    1
@<TRIPOS>SUBSTRUCTURE
       1 MOL1            1 RESIDUE      1      MOL     
@<SCITEGIC>MOL_PROPERTY
VConf Rank
SciTegic.value.IntegerValue
552

@<SCITEGIC>MOL_PROPERTY
Conf_Id
SciTegic.value.IntegerValue
22

@<SCITEGIC>MOL_PROPERTY
Delta U+W
SciTegic.value.DoubleValue
-1.185

@<SCITEGIC>MOL_PROPERTY
U+W
SciTegic.value.DoubleValue
-58.089

@<SCITEGIC>MOL_PROPERTY
Grad RMS
SciTegic.value.DoubleValue
0.000000

@<SCITEGIC>MOL_PROPERTY
U
SciTegic.value.DoubleValue
6.298

@<SCITEGIC>MOL_PROPERTY
W
SciTegic.value.DoubleValue
-64.387

@<SCITEGIC>MOL_PROPERTY
W(PB)
SciTegic.value.DoubleValue
-66.329

@<SCITEGIC>MOL_PROPERTY
W(SA)
SciTegic.value.DoubleValue
1.942

@<SCITEGIC>MOL_PROPERTY
Valence
SciTegic.value.DoubleValue
6.246

@<SCITEGIC>MOL_PROPERTY
Coulomb
SciTegic.value.DoubleValue
-0.408

@<SCITEGIC>MOL_PROPERTY
VdW
SciTegic.value.DoubleValue
0.460

@<SCITEGIC>MOL_PROPERTY
VdW6
SciTegic.value.DoubleValue
-4.207

@<SCITEGIC>MOL_PROPERTY
VdW12
SciTegic.value.DoubleValue
4.667

@<SCITEGIC>MOL_PROPERTY
Bond
SciTegic.value.DoubleValue
0.072

@<SCITEGIC>MOL_PROPERTY
Angle
SciTegic.value.DoubleValue
2.246

@<SCITEGIC>MOL_PROPERTY
Pdih
SciTegic.value.DoubleValue
3.928

@<SCITEGIC>MOL_PROPERTY
Idih
SciTegic.value.DoubleValue
0.001

@<SCITEGIC>MOL_PROPERTY
Tether
SciTegic.value.DoubleValue
0.000

@<TRIPOS>MOLECULE
guest-s18_confgen4.mol2 : confsearch ligand conformer 553
          16          15           1
SMALL
USER_CHARGES
 
@<TRIPOS>ATOM
       1    C1      21.660634   20.110840   23.689030 C.2        1 MOL1         0.6075
       2    O1      21.818068   21.305538   23.843649 O.co2      1 MOL1        -0.6830
       3    O2      22.485939   19.278043   24.007270 O.co2      1 MOL1        -0.6830
       4    C2      20.365504   19.632566   23.042143 C.3        1 MOL1        -0.2050
       5    H1      19.565786   20.326453   23.327692 H          1 MOL1         0.0710
       6    H2      20.117500   18.655728   23.472722 H          1 MOL1         0.0710
       7    C3      20.464384   19.537935   21.497390 C.3        1 MOL1        -0.1947
       8    H3      20.798505   20.508318   21.104772 H          1 MOL1         0.0712
       9    H4      21.239258   18.808578   21.223679 H          1 MOL1         0.0712
      10    C4      19.128272   19.160364   20.817204 C.3        1 MOL1        -0.1921
      11    H5      19.256727   19.222302   19.727721 H          1 MOL1         0.0712
      12    H6      18.356174   19.896214   21.081344 H          1 MOL1         0.0712
      13    C5      18.639652   17.741943   21.180889 C.3        1 MOL1        -0.2936
      14    H7      18.388910   17.665176   22.246261 H          1 MOL1         0.0724
      15    H8      19.407388   16.991256   20.952193 H          1 MOL1         0.0724
      16    H9      17.738017   17.488317   20.608408 H          1 MOL1         0.0724
@<TRIPOS>BOND
    1     1     2    1
    2     1     3    2
    3     1     4    1
    4     4     5    1
    5     4     6    1
    6     4     7    1
    7     7     8    1
    8     7     9    1
    9     7    10    1
   10    10    11    1
   11    10    12    1
   12    10    13    1
   13    13    14    1
   14    13    15    1
   15    13    16    1
@<TRIPOS>SUBSTRUCTURE
       1 MOL1            1 RESIDUE      1      MOL     
@<SCITEGIC>MOL_PROPERTY
VConf Rank
SciTegic.value.IntegerValue
553

@<SCITEGIC>MOL_PROPERTY
Conf_Id
SciTegic.value.IntegerValue
36

@<SCITEGIC>MOL_PROPERTY
Delta U+W
SciTegic.value.DoubleValue
-0.427

@<SCITEGIC>MOL_PROPERTY
U+W
SciTegic.value.DoubleValue
-57.331

@<SCITEGIC>MOL_PROPERTY
Grad RMS
SciTegic.value.DoubleValue
0.000000

@<SCITEGIC>MOL_PROPERTY
U
SciTegic.value.DoubleValue
7.263

@<SCITEGIC>MOL_PROPERTY
W
SciTegic.value.DoubleValue
-64.594

@<SCITEGIC>MOL_PROPERTY
W(PB)
SciTegic.value.DoubleValue
-66.513

@<SCITEGIC>MOL_PROPERTY
W(SA)
SciTegic.value.DoubleValue
1.920

@<SCITEGIC>MOL_PROPERTY
Valence
SciTegic.value.DoubleValue
6.734

@<SCITEGIC>MOL_PROPERTY
Coulomb
SciTegic.value.DoubleValue
-0.068

@<SCITEGIC>MOL_PROPERTY
VdW
SciTegic.value.DoubleValue
0.598

@<SCITEGIC>MOL_PROPERTY
VdW6
SciTegic.value.DoubleValue
-4.819

@<SCITEGIC>MOL_PROPERTY
VdW12
SciTegic.value.DoubleValue
5.417

@<SCITEGIC>MOL_PROPERTY
Bond
SciTegic.value.DoubleValue
0.107

@<SCITEGIC>MOL_PROPERTY
Angle
SciTegic.value.DoubleValue
2.469

@<SCITEGIC>MOL_PROPERTY
Pdih
SciTegic.value.DoubleValue
4.157

@<SCITEGIC>MOL_PROPERTY
Idih
SciTegic.value.DoubleValue
0.001

@<SCITEGIC>MOL_PROPERTY
Tether
SciTegic.value.DoubleValue
0.000

@<TRIPOS>MOLECULE
guest-s18_confgen4.mol2 : confsearch ligand conformer 554
          16          15           1
SMALL
USER_CHARGES
 
@<TRIPOS>ATOM
       1    C1      22.536886   19.055749   21.717503 C.2        1 MOL1         0.6075
       2    O1      23.030530   18.235456   22.465430 O.co2      1 MOL1        -0.6830
       3    O2      23.166395   19.956033   21.198657 O.co2      1 MOL1        -0.6830
       4    C2      21.042474   18.962733   21.430007 C.3        1 MOL1        -0.2050
       5    H1      20.763644   17.903008   21.448793 H          1 MOL1         0.0710
       6    H2      20.868582   19.326844   20.410325 H          1 MOL1         0.0710
       7    C3      20.184848   19.769833   22.438997 C.3        1 MOL1        -0.1947
       8    H3      20.334725   19.368499   23.450816 H          1 MOL1         0.0712
       9    H4      20.546574   20.807216   22.459485 H          1 MOL1         0.0712
      10    C4      18.676870   19.776299   22.097868 C.3        1 MOL1        -0.1921
      11    H5      18.525794   20.188534   21.090585 H          1 MOL1         0.0712
      12    H6      18.160731   20.454232   22.791637 H          1 MOL1         0.0712
      13    C5      18.025962   18.379615   22.190186 C.3        1 MOL1        -0.2936
      14    H7      18.433293   17.696717   21.434200 H          1 MOL1         0.0724
      15    H8      16.942921   18.449533   22.025439 H          1 MOL1         0.0724
      16    H9      18.189060   17.934837   23.180550 H          1 MOL1         0.0724
@<TRIPOS>BOND
    1     1     2    1
    2     1     3    2
    3     1     4    1
    4     4     5    1
    5     4     6    1
    6     4     7    1
    7     7     8    1
    8     7     9    1
    9     7    10    1
   10    10    11    1
   11    10    12    1
   12    10    13    1
   13    13    14    1
   14    13    15    1
   15    13    16    1
@<TRIPOS>SUBSTRUCTURE
       1 MOL1            1 RESIDUE      1      MOL     
@<SCITEGIC>MOL_PROPERTY
VConf Rank
SciTegic.value.IntegerValue
554

@<SCITEGIC>MOL_PROPERTY
Conf_Id
SciTegic.value.IntegerValue
17

@<SCITEGIC>MOL_PROPERTY
Delta U+W
SciTegic.value.DoubleValue
-0.432

@<SCITEGIC>MOL_PROPERTY
U+W
SciTegic.value.DoubleValue
-57.336

@<SCITEGIC>MOL_PROPERTY
Grad RMS
SciTegic.value.DoubleValue
0.000000

@<SCITEGIC>MOL_PROPERTY
U
SciTegic.value.DoubleValue
7.263

@<SCITEGIC>MOL_PROPERTY
W
SciTegic.value.DoubleValue
-64.599

@<SCITEGIC>MOL_PROPERTY
W(PB)
SciTegic.value.DoubleValue
-66.503

@<SCITEGIC>MOL_PROPERTY
W(SA)
SciTegic.value.DoubleValue
1.904

@<SCITEGIC>MOL_PROPERTY
Valence
SciTegic.value.DoubleValue
6.734

@<SCITEGIC>MOL_PROPERTY
Coulomb
SciTegic.value.DoubleValue
-0.068

@<SCITEGIC>MOL_PROPERTY
VdW
SciTegic.value.DoubleValue
0.598

@<SCITEGIC>MOL_PROPERTY
VdW6
SciTegic.value.DoubleValue
-4.819

@<SCITEGIC>MOL_PROPERTY
VdW12
SciTegic.value.DoubleValue
5.417

@<SCITEGIC>MOL_PROPERTY
Bond
SciTegic.value.DoubleValue
0.107

@<SCITEGIC>MOL_PROPERTY
Angle
SciTegic.value.DoubleValue
2.469

@<SCITEGIC>MOL_PROPERTY
Pdih
SciTegic.value.DoubleValue
4.157

@<SCITEGIC>MOL_PROPERTY
Idih
SciTegic.value.DoubleValue
0.001

@<SCITEGIC>MOL_PROPERTY
Tether
SciTegic.value.DoubleValue
0.000

@<TRIPOS>MOLECULE
guest-s18_confgen4.mol2 : confsearch ligand conformer 555
          16          15           1
SMALL
USER_CHARGES
 
@<TRIPOS>ATOM
       1    C1      19.707435   16.815572   21.893582 C.2        1 MOL1         0.6075
       2    O1      19.959539   16.366130   20.793224 O.co2      1 MOL1        -0.6830
       3    O2      20.087189   16.306679   22.929477 O.co2      1 MOL1        -0.6830
       4    C2      18.847226   18.073544   21.977479 C.3        1 MOL1        -0.2050
       5    H1      18.428907   18.145401   22.988879 H          1 MOL1         0.0710
       6    H2      18.001036   17.938724   21.293360 H          1 MOL1         0.0710
       7    C3      19.600926   19.379908   21.616391 C.3        1 MOL1        -0.1947
       8    H3      20.038375   19.282499   20.613010 H          1 MOL1         0.0712
       9    H4      18.878787   20.206162   21.567617 H          1 MOL1         0.0712
      10    C4      20.705735   19.729539   22.636851 C.3        1 MOL1        -0.1921
      11    H5      21.445784   18.918209   22.679201 H          1 MOL1         0.0712
      12    H6      20.268894   19.814369   23.641515 H          1 MOL1         0.0712
      13    C5      21.415682   21.048638   22.273125 C.3        1 MOL1        -0.2936
      14    H7      21.888269   20.980263   21.284471 H          1 MOL1         0.0724
      15    H8      22.197816   21.281871   23.007282 H          1 MOL1         0.0724
      16    H9      20.705502   21.885774   22.256877 H          1 MOL1         0.0724
@<TRIPOS>BOND
    1     1     2    1
    2     1     3    2
    3     1     4    1
    4     4     5    1
    5     4     6    1
    6     4     7    1
    7     7     8    1
    8     7     9    1
    9     7    10    1
   10    10    11    1
   11    10    12    1
   12    10    13    1
   13    13    14    1
   14    13    15    1
   15    13    16    1
@<TRIPOS>SUBSTRUCTURE
       1 MOL1            1 RESIDUE      1      MOL     
@<SCITEGIC>MOL_PROPERTY
VConf Rank
SciTegic.value.IntegerValue
555

@<SCITEGIC>MOL_PROPERTY
Conf_Id
SciTegic.value.IntegerValue
19

@<SCITEGIC>MOL_PROPERTY
Delta U+W
SciTegic.value.DoubleValue
0.048

@<SCITEGIC>MOL_PROPERTY
U+W
SciTegic.value.DoubleValue
-56.856

@<SCITEGIC>MOL_PROPERTY
Grad RMS
SciTegic.value.DoubleValue
0.000000

@<SCITEGIC>MOL_PROPERTY
U
SciTegic.value.DoubleValue
8.276

@<SCITEGIC>MOL_PROPERTY
W
SciTegic.value.DoubleValue
-65.132

@<SCITEGIC>MOL_PROPERTY
W(PB)
SciTegic.value.DoubleValue
-67.031

@<SCITEGIC>MOL_PROPERTY
W(SA)
SciTegic.value.DoubleValue
1.899

@<SCITEGIC>MOL_PROPERTY
Valence
SciTegic.value.DoubleValue
6.513

@<SCITEGIC>MOL_PROPERTY
Coulomb
SciTegic.value.DoubleValue
1.428

@<SCITEGIC>MOL_PROPERTY
VdW
SciTegic.value.DoubleValue
0.335

@<SCITEGIC>MOL_PROPERTY
VdW6
SciTegic.value.DoubleValue
-5.021

@<SCITEGIC>MOL_PROPERTY
VdW12
SciTegic.value.DoubleValue
5.356

@<SCITEGIC>MOL_PROPERTY
Bond
SciTegic.value.DoubleValue
0.092

@<SCITEGIC>MOL_PROPERTY
Angle
SciTegic.value.DoubleValue
2.417

@<SCITEGIC>MOL_PROPERTY
Pdih
SciTegic.value.DoubleValue
4.003

@<SCITEGIC>MOL_PROPERTY
Idih
SciTegic.value.DoubleValue
0.001

@<SCITEGIC>MOL_PROPERTY
Tether
SciTegic.value.DoubleValue
0.000

@<TRIPOS>MOLECULE
guest-s18_confgen4.mol2 : confsearch ligand conformer 556
          16          15           1
SMALL
USER_CHARGES
 
@<TRIPOS>ATOM
       1    C1      21.682739   17.710434   22.532802 C.2        1 MOL1         0.6075
       2    O1      22.664722   17.940822   21.855326 O.co2      1 MOL1        -0.6830
       3    O2      21.209830   16.600087   22.673324 O.co2      1 MOL1        -0.6830
       4    C2      21.023381   18.876352   23.264498 C.3        1 MOL1        -0.2050
       5    H1      21.821823   19.461906   23.735511 H          1 MOL1         0.0710
       6    H2      20.403376   18.475574   24.075705 H          1 MOL1         0.0710
       7    C3      20.176449   19.798898   22.349807 C.3        1 MOL1        -0.1947
       8    H3      19.858958   20.678259   22.926419 H          1 MOL1         0.0712
       9    H4      20.802768   20.169763   21.526517 H          1 MOL1         0.0712
      10    C4      18.930282   19.087646   21.779388 C.3        1 MOL1        -0.1921
      11    H5      18.311344   18.706587   22.603456 H          1 MOL1         0.0712
      12    H6      19.237022   18.217038   21.183002 H          1 MOL1         0.0712
      13    C5      18.089089   20.035779   20.902012 C.3        1 MOL1        -0.2936
      14    H7      17.738622   20.900062   21.481324 H          1 MOL1         0.0724
      15    H8      17.208513   19.514832   20.504122 H          1 MOL1         0.0724
      16    H9      18.675882   20.407638   20.051808 H          1 MOL1         0.0724
@<TRIPOS>BOND
    1     1     2    1
    2     1     3    2
    3     1     4    1
    4     4     5    1
    5     4     6    1
    6     4     7    1
    7     7     8    1
    8     7     9    1
    9     7    10    1
   10    10    11    1
   11    10    12    1
   12    10    13    1
   13    13    14    1
   14    13    15    1
   15    13    16    1
@<TRIPOS>SUBSTRUCTURE
       1 MOL1            1 RESIDUE      1      MOL     
@<SCITEGIC>MOL_PROPERTY
VConf Rank
SciTegic.value.IntegerValue
556

@<SCITEGIC>MOL_PROPERTY
Conf_Id
SciTegic.value.IntegerValue
20

@<SCITEGIC>MOL_PROPERTY
Delta U+W
SciTegic.value.DoubleValue
-0.010

@<SCITEGIC>MOL_PROPERTY
U+W
SciTegic.value.DoubleValue
-56.914

@<SCITEGIC>MOL_PROPERTY
Grad RMS
SciTegic.value.DoubleValue
0.000000

@<SCITEGIC>MOL_PROPERTY
U
SciTegic.value.DoubleValue
8.277

@<SCITEGIC>MOL_PROPERTY
W
SciTegic.value.DoubleValue
-65.191

@<SCITEGIC>MOL_PROPERTY
W(PB)
SciTegic.value.DoubleValue
-67.081

@<SCITEGIC>MOL_PROPERTY
W(SA)
SciTegic.value.DoubleValue
1.890

@<SCITEGIC>MOL_PROPERTY
Valence
SciTegic.value.DoubleValue
6.513

@<SCITEGIC>MOL_PROPERTY
Coulomb
SciTegic.value.DoubleValue
1.429

@<SCITEGIC>MOL_PROPERTY
VdW
SciTegic.value.DoubleValue
0.335

@<SCITEGIC>MOL_PROPERTY
VdW6
SciTegic.value.DoubleValue
-5.021

@<SCITEGIC>MOL_PROPERTY
VdW12
SciTegic.value.DoubleValue
5.356

@<SCITEGIC>MOL_PROPERTY
Bond
SciTegic.value.DoubleValue
0.092

@<SCITEGIC>MOL_PROPERTY
Angle
SciTegic.value.DoubleValue
2.417

@<SCITEGIC>MOL_PROPERTY
Pdih
SciTegic.value.DoubleValue
4.002

@<SCITEGIC>MOL_PROPERTY
Idih
SciTegic.value.DoubleValue
0.001

@<SCITEGIC>MOL_PROPERTY
Tether
SciTegic.value.DoubleValue
0.000

@<TRIPOS>MOLECULE
guest-s18_confgen4.mol2 : confsearch ligand conformer 557
          16          15           1
SMALL
USER_CHARGES
 
@<TRIPOS>ATOM
       1    C1      21.019541   17.357942   22.005962 C.2        1 MOL1         0.6075
       2    O1      20.776708   16.351347   22.642032 O.co2      1 MOL1        -0.6830
       3    O2      22.136261   17.821166   21.884880 O.co2      1 MOL1        -0.6830
       4    C2      19.863633   18.056010   21.294399 C.3        1 MOL1        -0.2050
       5    H1      19.325464   17.292113   20.721062 H          1 MOL1         0.0710
       6    H2      20.274950   18.760487   20.562430 H          1 MOL1         0.0710
       7    C3      18.870827   18.775031   22.248349 C.3        1 MOL1        -0.1947
       8    H3      18.034471   19.177424   21.661015 H          1 MOL1         0.0712
       9    H4      18.437618   18.031866   22.932009 H          1 MOL1         0.0712
      10    C4      19.501041   19.914880   23.083552 C.3        1 MOL1        -0.1921
      11    H5      20.317646   19.518071   23.702661 H          1 MOL1         0.0712
      12    H6      18.744438   20.300998   23.780398 H          1 MOL1         0.0712
      13    C5      20.025985   21.082603   22.221403 C.3        1 MOL1        -0.2936
      14    H7      20.870687   20.767048   21.595790 H          1 MOL1         0.0724
      15    H8      20.375237   21.904140   22.860121 H          1 MOL1         0.0724
      16    H9      19.237093   21.474621   21.566394 H          1 MOL1         0.0724
@<TRIPOS>BOND
    1     1     2    1
    2     1     3    2
    3     1     4    1
    4     4     5    1
    5     4     6    1
    6     4     7    1
    7     7     8    1
    8     7     9    1
    9     7    10    1
   10    10    11    1
   11    10    12    1
   12    10    13    1
   13    13    14    1
   14    13    15    1
   15    13    16    1
@<TRIPOS>SUBSTRUCTURE
       1 MOL1            1 RESIDUE      1      MOL     
@<SCITEGIC>MOL_PROPERTY
VConf Rank
SciTegic.value.IntegerValue
557

@<SCITEGIC>MOL_PROPERTY
Conf_Id
SciTegic.value.IntegerValue
37

@<SCITEGIC>MOL_PROPERTY
Delta U+W
SciTegic.value.DoubleValue
1.063

@<SCITEGIC>MOL_PROPERTY
U+W
SciTegic.value.DoubleValue
-55.841

@<SCITEGIC>MOL_PROPERTY
Grad RMS
SciTegic.value.DoubleValue
0.000000

@<SCITEGIC>MOL_PROPERTY
U
SciTegic.value.DoubleValue
9.719

@<SCITEGIC>MOL_PROPERTY
W
SciTegic.value.DoubleValue
-65.560

@<SCITEGIC>MOL_PROPERTY
W(PB)
SciTegic.value.DoubleValue
-67.414

@<SCITEGIC>MOL_PROPERTY
W(SA)
SciTegic.value.DoubleValue
1.854

@<SCITEGIC>MOL_PROPERTY
Valence
SciTegic.value.DoubleValue
7.002

@<SCITEGIC>MOL_PROPERTY
Coulomb
SciTegic.value.DoubleValue
2.402

@<SCITEGIC>MOL_PROPERTY
VdW
SciTegic.value.DoubleValue
0.314

@<SCITEGIC>MOL_PROPERTY
VdW6
SciTegic.value.DoubleValue
-5.861

@<SCITEGIC>MOL_PROPERTY
VdW12
SciTegic.value.DoubleValue
6.175

@<SCITEGIC>MOL_PROPERTY
Bond
SciTegic.value.DoubleValue
0.134

@<SCITEGIC>MOL_PROPERTY
Angle
SciTegic.value.DoubleValue
2.733

@<SCITEGIC>MOL_PROPERTY
Pdih
SciTegic.value.DoubleValue
4.133

@<SCITEGIC>MOL_PROPERTY
Idih
SciTegic.value.DoubleValue
0.002

@<SCITEGIC>MOL_PROPERTY
Tether
SciTegic.value.DoubleValue
0.000

@<TRIPOS>MOLECULE
guest-s18_confgen4.mol2 : confsearch ligand conformer 558
          16          15           1
SMALL
USER_CHARGES
 
@<TRIPOS>ATOM
       1    C1      20.222703   17.486342   20.798581 C.2        1 MOL1         0.6075
       2    O1      19.750328   17.528101   19.679696 O.co2      1 MOL1        -0.6830
       3    O2      21.330794   17.051654   21.042470 O.co2      1 MOL1        -0.6830
       4    C2      19.362871   17.974359   21.961455 C.3        1 MOL1        -0.2050
       5    H1      19.807878   17.623596   22.899635 H          1 MOL1         0.0710
       6    H2      18.388582   17.479013   21.876153 H          1 MOL1         0.0710
       7    C3      19.154201   19.513168   21.996135 C.3        1 MOL1        -0.1947
       8    H3      18.658381   19.822965   21.065790 H          1 MOL1         0.0712
       9    H4      18.462960   19.764562   22.811829 H          1 MOL1         0.0712
      10    C4      20.457599   20.329913   22.163691 C.3        1 MOL1        -0.1921
      11    H5      20.215016   21.399166   22.093122 H          1 MOL1         0.0712
      12    H6      21.144540   20.113345   21.333747 H          1 MOL1         0.0712
      13    C5      21.171059   20.068803   23.507283 C.3        1 MOL1        -0.2936
      14    H7      20.494172   20.244052   24.353556 H          1 MOL1         0.0724
      15    H8      22.034045   20.737751   23.619637 H          1 MOL1         0.0724
      16    H9      21.541169   19.037359   23.567520 H          1 MOL1         0.0724
@<TRIPOS>BOND
    1     1     2    1
    2     1     3    2
    3     1     4    1
    4     4     5    1
    5     4     6    1
    6     4     7    1
    7     7     8    1
    8     7     9    1
    9     7    10    1
   10    10    11    1
   11    10    12    1
   12    10    13    1
   13    13    14    1
   14    13    15    1
   15    13    16    1
@<TRIPOS>SUBSTRUCTURE
       1 MOL1            1 RESIDUE      1      MOL     
@<SCITEGIC>MOL_PROPERTY
VConf Rank
SciTegic.value.IntegerValue
558

@<SCITEGIC>MOL_PROPERTY
Conf_Id
SciTegic.value.IntegerValue
39

@<SCITEGIC>MOL_PROPERTY
Delta U+W
SciTegic.value.DoubleValue
1.129

@<SCITEGIC>MOL_PROPERTY
U+W
SciTegic.value.DoubleValue
-55.775

@<SCITEGIC>MOL_PROPERTY
Grad RMS
SciTegic.value.DoubleValue
0.000000

@<SCITEGIC>MOL_PROPERTY
U
SciTegic.value.DoubleValue
9.718

@<SCITEGIC>MOL_PROPERTY
W
SciTegic.value.DoubleValue
-65.493

@<SCITEGIC>MOL_PROPERTY
W(PB)
SciTegic.value.DoubleValue
-67.361

@<SCITEGIC>MOL_PROPERTY
W(SA)
SciTegic.value.DoubleValue
1.869

@<SCITEGIC>MOL_PROPERTY
Valence
SciTegic.value.DoubleValue
7.002

@<SCITEGIC>MOL_PROPERTY
Coulomb
SciTegic.value.DoubleValue
2.402

@<SCITEGIC>MOL_PROPERTY
VdW
SciTegic.value.DoubleValue
0.314

@<SCITEGIC>MOL_PROPERTY
VdW6
SciTegic.value.DoubleValue
-5.861

@<SCITEGIC>MOL_PROPERTY
VdW12
SciTegic.value.DoubleValue
6.175

@<SCITEGIC>MOL_PROPERTY
Bond
SciTegic.value.DoubleValue
0.134

@<SCITEGIC>MOL_PROPERTY
Angle
SciTegic.value.DoubleValue
2.734

@<SCITEGIC>MOL_PROPERTY
Pdih
SciTegic.value.DoubleValue
4.133

@<SCITEGIC>MOL_PROPERTY
Idih
SciTegic.value.DoubleValue
0.002

@<SCITEGIC>MOL_PROPERTY
Tether
SciTegic.value.DoubleValue
0.000

@<TRIPOS>MOLECULE
guest-s18_confgen4.mol2 : confsearch ligand conformer 559
          16          15           1
SMALL
USER_CHARGES
 
@<TRIPOS>ATOM
       1    C1      19.876980   19.275433   20.283680 C.2        1 MOL1         0.6075
       2    O1      18.981863   20.014597   19.924206 O.co2      1 MOL1        -0.6830
       3    O2      20.087081   18.187614   19.784014 O.co2      1 MOL1        -0.6830
       4    C2      20.840895   19.779122   21.356444 C.3        1 MOL1        -0.2050
       5    H1      20.557610   20.800133   21.639754 H          1 MOL1         0.0710
       6    H2      21.825346   19.848282   20.879137 H          1 MOL1         0.0710
       7    C3      20.955120   18.882152   22.621110 C.3        1 MOL1        -0.1947
       8    H3      21.034959   17.826735   22.325711 H          1 MOL1         0.0712
       9    H4      21.899107   19.127243   23.126354 H          1 MOL1         0.0712
      10    C4      19.810340   19.061596   23.647191 C.3        1 MOL1        -0.1921
      11    H5      19.732563   20.118180   23.938414 H          1 MOL1         0.0712
      12    H6      20.072187   18.508635   24.559859 H          1 MOL1         0.0712
      13    C5      18.440074   18.558779   23.147358 C.3        1 MOL1        -0.2936
      14    H7      18.055419   19.188237   22.335680 H          1 MOL1         0.0724
      15    H8      17.702857   18.581816   23.960222 H          1 MOL1         0.0724
      16    H9      18.508889   17.526263   22.780607 H          1 MOL1         0.0724
@<TRIPOS>BOND
    1     1     2    1
    2     1     3    2
    3     1     4    1
    4     4     5    1
    5     4     6    1
    6     4     7    1
    7     7     8    1
    8     7     9    1
    9     7    10    1
   10    10    11    1
   11    10    12    1
   12    10    13    1
   13    13    14    1
   14    13    15    1
   15    13    16    1
@<TRIPOS>SUBSTRUCTURE
       1 MOL1            1 RESIDUE      1      MOL     
@<SCITEGIC>MOL_PROPERTY
VConf Rank
SciTegic.value.IntegerValue
559

@<SCITEGIC>MOL_PROPERTY
Conf_Id
SciTegic.value.IntegerValue
47

@<SCITEGIC>MOL_PROPERTY
Delta U+W
SciTegic.value.DoubleValue
2.301

@<SCITEGIC>MOL_PROPERTY
U+W
SciTegic.value.DoubleValue
-54.603

@<SCITEGIC>MOL_PROPERTY
Grad RMS
SciTegic.value.DoubleValue
0.000000

@<SCITEGIC>MOL_PROPERTY
U
SciTegic.value.DoubleValue
11.258

@<SCITEGIC>MOL_PROPERTY
W
SciTegic.value.DoubleValue
-65.861

@<SCITEGIC>MOL_PROPERTY
W(PB)
SciTegic.value.DoubleValue
-67.702

@<SCITEGIC>MOL_PROPERTY
W(SA)
SciTegic.value.DoubleValue
1.841

@<SCITEGIC>MOL_PROPERTY
Valence
SciTegic.value.DoubleValue
8.169

@<SCITEGIC>MOL_PROPERTY
Coulomb
SciTegic.value.DoubleValue
2.735

@<SCITEGIC>MOL_PROPERTY
VdW
SciTegic.value.DoubleValue
0.355

@<SCITEGIC>MOL_PROPERTY
VdW6
SciTegic.value.DoubleValue
-6.245

@<SCITEGIC>MOL_PROPERTY
VdW12
SciTegic.value.DoubleValue
6.600

@<SCITEGIC>MOL_PROPERTY
Bond
SciTegic.value.DoubleValue
0.149

@<SCITEGIC>MOL_PROPERTY
Angle
SciTegic.value.DoubleValue
3.168

@<SCITEGIC>MOL_PROPERTY
Pdih
SciTegic.value.DoubleValue
4.840

@<SCITEGIC>MOL_PROPERTY
Idih
SciTegic.value.DoubleValue
0.011

@<SCITEGIC>MOL_PROPERTY
Tether
SciTegic.value.DoubleValue
0.000

@<TRIPOS>MOLECULE
guest-s18_confgen4.mol2 : confsearch ligand conformer 560
          16          15           1
SMALL
USER_CHARGES
 
@<TRIPOS>ATOM
       1    C1      21.332835   17.819819   22.698282 C.2        1 MOL1         0.6075
       2    O1      22.022497   17.666294   21.709366 O.co2      1 MOL1        -0.6830
       3    O2      20.917115   16.898552   23.373014 O.co2      1 MOL1        -0.6830
       4    C2      21.048244   19.244728   23.169780 C.3        1 MOL1        -0.2050
       5    H1      22.020991   19.692382   23.404548 H          1 MOL1         0.0710
       6    H2      20.486831   19.203682   24.111114 H          1 MOL1         0.0710
       7    C3      20.310941   20.149611   22.142862 C.3        1 MOL1        -0.1947
       8    H3      20.485741   21.196255   22.426475 H          1 MOL1         0.0712
       9    H4      20.758370   20.027079   21.146703 H          1 MOL1         0.0712
      10    C4      18.780620   19.930141   22.068636 C.3        1 MOL1        -0.1921
      11    H5      18.346587   20.720068   21.440205 H          1 MOL1         0.0712
      12    H6      18.337443   20.051678   23.066661 H          1 MOL1         0.0712
      13    C5      18.374318   18.561637   21.483488 C.3        1 MOL1        -0.2936
      14    H7      17.288947   18.518501   21.325762 H          1 MOL1         0.0724
      15    H8      18.641615   17.742020   22.161559 H          1 MOL1         0.0724
      16    H9      18.865060   18.384568   20.517491 H          1 MOL1         0.0724
@<TRIPOS>BOND
    1     1     2    1
    2     1     3    2
    3     1     4    1
    4     4     5    1
    5     4     6    1
    6     4     7    1
    7     7     8    1
    8     7     9    1
    9     7    10    1
   10    10    11    1
   11    10    12    1
   12    10    13    1
   13    13    14    1
   14    13    15    1
   15    13    16    1
@<TRIPOS>SUBSTRUCTURE
       1 MOL1            1 RESIDUE      1      MOL     
@<SCITEGIC>MOL_PROPERTY
VConf Rank
SciTegic.value.IntegerValue
560

@<SCITEGIC>MOL_PROPERTY
Conf_Id
SciTegic.value.IntegerValue
45

@<SCITEGIC>MOL_PROPERTY
Delta U+W
SciTegic.value.DoubleValue
2.303

@<SCITEGIC>MOL_PROPERTY
U+W
SciTegic.value.DoubleValue
-54.601

@<SCITEGIC>MOL_PROPERTY
Grad RMS
SciTegic.value.DoubleValue
0.000000

@<SCITEGIC>MOL_PROPERTY
U
SciTegic.value.DoubleValue
11.258

@<SCITEGIC>MOL_PROPERTY
W
SciTegic.value.DoubleValue
-65.860

@<SCITEGIC>MOL_PROPERTY
W(PB)
SciTegic.value.DoubleValue
-67.709

@<SCITEGIC>MOL_PROPERTY
W(SA)
SciTegic.value.DoubleValue
1.849

@<SCITEGIC>MOL_PROPERTY
Valence
SciTegic.value.DoubleValue
8.169

@<SCITEGIC>MOL_PROPERTY
Coulomb
SciTegic.value.DoubleValue
2.735

@<SCITEGIC>MOL_PROPERTY
VdW
SciTegic.value.DoubleValue
0.355

@<SCITEGIC>MOL_PROPERTY
VdW6
SciTegic.value.DoubleValue
-6.245

@<SCITEGIC>MOL_PROPERTY
VdW12
SciTegic.value.DoubleValue
6.600

@<SCITEGIC>MOL_PROPERTY
Bond
SciTegic.value.DoubleValue
0.149

@<SCITEGIC>MOL_PROPERTY
Angle
SciTegic.value.DoubleValue
3.168

@<SCITEGIC>MOL_PROPERTY
Pdih
SciTegic.value.DoubleValue
4.840

@<SCITEGIC>MOL_PROPERTY
Idih
SciTegic.value.DoubleValue
0.011

@<SCITEGIC>MOL_PROPERTY
Tether
SciTegic.value.DoubleValue
0.000

@<TRIPOS>MOLECULE
guest-s18_confgen4.mol2 : confsearch ligand conformer 561
          16          15           1
SMALL
USER_CHARGES
 
@<TRIPOS>ATOM
       1    C1      19.507968   21.721062   22.713227 C.2        1 MOL1         0.6075
       2    O1      19.411181   21.448073   23.893856 O.co2      1 MOL1        -0.6830
       3    O2      19.385285   22.850055   22.282370 O.co2      1 MOL1        -0.6830
       4    C2      19.796830   20.613802   21.698126 C.3        1 MOL1        -0.2050
       5    H1      20.715004   20.889186   21.165884 H          1 MOL1         0.0710
       6    H2      18.984140   20.624352   20.962201 H          1 MOL1         0.0710
       7    C3      19.944704   19.188705   22.294431 C.3        1 MOL1        -0.1947
       8    H3      20.756636   19.185664   23.034854 H          1 MOL1         0.0712
       9    H4      19.023987   18.920556   22.830943 H          1 MOL1         0.0712
      10    C4      20.234077   18.137339   21.202574 C.3        1 MOL1        -0.1921
      11    H5      21.155614   18.403392   20.666398 H          1 MOL1         0.0712
      12    H6      19.421932   18.138117   20.462357 H          1 MOL1         0.0712
      13    C5      20.379884   16.724232   21.800912 C.3        1 MOL1        -0.2936
      14    H7      21.206466   16.686707   22.522592 H          1 MOL1         0.0724
      15    H8      20.585225   15.989268   21.011732 H          1 MOL1         0.0724
      16    H9      19.459996   16.419469   22.317046 H          1 MOL1         0.0724
@<TRIPOS>BOND
    1     1     2    1
    2     1     3    2
    3     1     4    1
    4     4     5    1
    5     4     6    1
    6     4     7    1
    7     7     8    1
    8     7     9    1
    9     7    10    1
   10    10    11    1
   11    10    12    1
   12    10    13    1
   13    13    14    1
   14    13    15    1
   15    13    16    1
@<TRIPOS>SUBSTRUCTURE
       1 MOL1            1 RESIDUE      1      MOL     
@<SCITEGIC>MOL_PROPERTY
VConf Rank
SciTegic.value.IntegerValue
561

@<SCITEGIC>MOL_PROPERTY
Conf_Id
SciTegic.value.IntegerValue
0

@<SCITEGIC>MOL_PROPERTY
Delta U+W
SciTegic.value.DoubleValue
0.000

@<SCITEGIC>MOL_PROPERTY
U+W
SciTegic.value.DoubleValue
-56.904

@<SCITEGIC>MOL_PROPERTY
Grad RMS
SciTegic.value.DoubleValue
0.000000

@<SCITEGIC>MOL_PROPERTY
U
SciTegic.value.DoubleValue
7.329

@<SCITEGIC>MOL_PROPERTY
W
SciTegic.value.DoubleValue
-64.233

@<SCITEGIC>MOL_PROPERTY
W(PB)
SciTegic.value.DoubleValue
-66.148

@<SCITEGIC>MOL_PROPERTY
W(SA)
SciTegic.value.DoubleValue
1.915

@<SCITEGIC>MOL_PROPERTY
Valence
SciTegic.value.DoubleValue
6.755

@<SCITEGIC>MOL_PROPERTY
Coulomb
SciTegic.value.DoubleValue
-0.421

@<SCITEGIC>MOL_PROPERTY
VdW
SciTegic.value.DoubleValue
0.995

@<SCITEGIC>MOL_PROPERTY
VdW6
SciTegic.value.DoubleValue
-4.495

@<SCITEGIC>MOL_PROPERTY
VdW12
SciTegic.value.DoubleValue
5.490

@<SCITEGIC>MOL_PROPERTY
Bond
SciTegic.value.DoubleValue
0.106

@<SCITEGIC>MOL_PROPERTY
Angle
SciTegic.value.DoubleValue
2.715

@<SCITEGIC>MOL_PROPERTY
Pdih
SciTegic.value.DoubleValue
3.934

@<SCITEGIC>MOL_PROPERTY
Idih
SciTegic.value.DoubleValue
0.000

@<SCITEGIC>MOL_PROPERTY
Tether
SciTegic.value.DoubleValue
0.000

@<TRIPOS>MOLECULE
guest-s18_confgen4.mol2 : confsearch ligand conformer 562
          16          15           1
SMALL
USER_CHARGES
 
@<TRIPOS>ATOM
       1    C1      19.093146   21.582073   22.667543 C.2        1 MOL1         0.6075
       2    O1      19.445128   21.958143   23.767781 O.co2      1 MOL1        -0.6830
       3    O2      18.867242   22.334299   21.740738 O.co2      1 MOL1        -0.6830
       4    C2      18.944319   20.083118   22.431816 C.3        1 MOL1        -0.2050
       5    H1      18.141571   19.930974   21.700176 H          1 MOL1         0.0710
       6    H2      18.618131   19.620842   23.371365 H          1 MOL1         0.0710
       7    C3      20.251902   19.418274   21.935561 C.3        1 MOL1        -0.1947
       8    H3      20.572187   19.899979   21.001255 H          1 MOL1         0.0712
       9    H4      21.048795   19.589890   22.672488 H          1 MOL1         0.0712
      10    C4      20.074066   17.903071   21.705135 C.3        1 MOL1        -0.1921
      11    H5      19.277702   17.731060   20.967737 H          1 MOL1         0.0712
      12    H6      19.754394   17.420892   22.639400 H          1 MOL1         0.0712
      13    C5      21.379219   17.248137   21.211438 C.3        1 MOL1        -0.2936
      14    H7      22.185759   17.377970   21.944996 H          1 MOL1         0.0724
      15    H8      21.705558   17.690446   20.260997 H          1 MOL1         0.0724
      16    H9      21.235626   16.171428   21.052598 H          1 MOL1         0.0724
@<TRIPOS>BOND
    1     1     2    1
    2     1     3    2
    3     1     4    1
    4     4     5    1
    5     4     6    1
    6     4     7    1
    7     7     8    1
    8     7     9    1
    9     7    10    1
   10    10    11    1
   11    10    12    1
   12    10    13    1
   13    13    14    1
   14    13    15    1
   15    13    16    1
@<TRIPOS>SUBSTRUCTURE
       1 MOL1            1 RESIDUE      1      MOL     
@<SCITEGIC>MOL_PROPERTY
VConf Rank
SciTegic.value.IntegerValue
562

@<SCITEGIC>MOL_PROPERTY
Conf_Id
SciTegic.value.IntegerValue
22

@<SCITEGIC>MOL_PROPERTY
Delta U+W
SciTegic.value.DoubleValue
-1.185

@<SCITEGIC>MOL_PROPERTY
U+W
SciTegic.value.DoubleValue
-58.089

@<SCITEGIC>MOL_PROPERTY
Grad RMS
SciTegic.value.DoubleValue
0.000000

@<SCITEGIC>MOL_PROPERTY
U
SciTegic.value.DoubleValue
6.298

@<SCITEGIC>MOL_PROPERTY
W
SciTegic.value.DoubleValue
-64.387

@<SCITEGIC>MOL_PROPERTY
W(PB)
SciTegic.value.DoubleValue
-66.329

@<SCITEGIC>MOL_PROPERTY
W(SA)
SciTegic.value.DoubleValue
1.942

@<SCITEGIC>MOL_PROPERTY
Valence
SciTegic.value.DoubleValue
6.246

@<SCITEGIC>MOL_PROPERTY
Coulomb
SciTegic.value.DoubleValue
-0.408

@<SCITEGIC>MOL_PROPERTY
VdW
SciTegic.value.DoubleValue
0.460

@<SCITEGIC>MOL_PROPERTY
VdW6
SciTegic.value.DoubleValue
-4.207

@<SCITEGIC>MOL_PROPERTY
VdW12
SciTegic.value.DoubleValue
4.667

@<SCITEGIC>MOL_PROPERTY
Bond
SciTegic.value.DoubleValue
0.072

@<SCITEGIC>MOL_PROPERTY
Angle
SciTegic.value.DoubleValue
2.246

@<SCITEGIC>MOL_PROPERTY
Pdih
SciTegic.value.DoubleValue
3.928

@<SCITEGIC>MOL_PROPERTY
Idih
SciTegic.value.DoubleValue
0.001

@<SCITEGIC>MOL_PROPERTY
Tether
SciTegic.value.DoubleValue
0.000

@<TRIPOS>MOLECULE
guest-s18_confgen4.mol2 : confsearch ligand conformer 563
          16          15           1
SMALL
USER_CHARGES
 
@<TRIPOS>ATOM
       1    C1      18.662433   18.910466   19.764302 C.2        1 MOL1         0.6075
       2    O1      19.017818   19.461423   18.741491 O.co2      1 MOL1        -0.6830
       3    O2      17.527908   18.521631   19.958257 O.co2      1 MOL1        -0.6830
       4    C2      19.691454   18.714655   20.872158 C.3        1 MOL1        -0.2050
       5    H1      20.672332   18.568994   20.403943 H          1 MOL1         0.0710
       6    H2      19.442177   17.787082   21.399971 H          1 MOL1         0.0710
       7    C3      19.743700   19.907558   21.861726 C.3        1 MOL1        -0.1947
       8    H3      19.908676   20.832356   21.291673 H          1 MOL1         0.0712
       9    H4      18.768390   20.016946   22.355803 H          1 MOL1         0.0712
      10    C4      20.856670   19.775354   22.926729 C.3        1 MOL1        -0.1921
      11    H5      20.896383   20.703693   23.513174 H          1 MOL1         0.0712
      12    H6      21.833417   19.677769   22.432945 H          1 MOL1         0.0712
      13    C5      20.640425   18.587737   23.888883 C.3        1 MOL1        -0.2936
      14    H7      20.706590   17.627674   23.361926 H          1 MOL1         0.0724
      15    H8      19.657030   18.648439   24.373133 H          1 MOL1         0.0724
      16    H9      21.405314   18.587795   24.676254 H          1 MOL1         0.0724
@<TRIPOS>BOND
    1     1     2    1
    2     1     3    2
    3     1     4    1
    4     4     5    1
    5     4     6    1
    6     4     7    1
    7     7     8    1
    8     7     9    1
    9     7    10    1
   10    10    11    1
   11    10    12    1
   12    10    13    1
   13    13    14    1
   14    13    15    1
   15    13    16    1
@<TRIPOS>SUBSTRUCTURE
       1 MOL1            1 RESIDUE      1      MOL     
@<SCITEGIC>MOL_PROPERTY
VConf Rank
SciTegic.value.IntegerValue
563

@<SCITEGIC>MOL_PROPERTY
Conf_Id
SciTegic.value.IntegerValue
36

@<SCITEGIC>MOL_PROPERTY
Delta U+W
SciTegic.value.DoubleValue
-0.427

@<SCITEGIC>MOL_PROPERTY
U+W
SciTegic.value.DoubleValue
-57.331

@<SCITEGIC>MOL_PROPERTY
Grad RMS
SciTegic.value.DoubleValue
0.000000

@<SCITEGIC>MOL_PROPERTY
U
SciTegic.value.DoubleValue
7.263

@<SCITEGIC>MOL_PROPERTY
W
SciTegic.value.DoubleValue
-64.594

@<SCITEGIC>MOL_PROPERTY
W(PB)
SciTegic.value.DoubleValue
-66.513

@<SCITEGIC>MOL_PROPERTY
W(SA)
SciTegic.value.DoubleValue
1.920

@<SCITEGIC>MOL_PROPERTY
Valence
SciTegic.value.DoubleValue
6.734

@<SCITEGIC>MOL_PROPERTY
Coulomb
SciTegic.value.DoubleValue
-0.068

@<SCITEGIC>MOL_PROPERTY
VdW
SciTegic.value.DoubleValue
0.598

@<SCITEGIC>MOL_PROPERTY
VdW6
SciTegic.value.DoubleValue
-4.819

@<SCITEGIC>MOL_PROPERTY
VdW12
SciTegic.value.DoubleValue
5.417

@<SCITEGIC>MOL_PROPERTY
Bond
SciTegic.value.DoubleValue
0.107

@<SCITEGIC>MOL_PROPERTY
Angle
SciTegic.value.DoubleValue
2.469

@<SCITEGIC>MOL_PROPERTY
Pdih
SciTegic.value.DoubleValue
4.157

@<SCITEGIC>MOL_PROPERTY
Idih
SciTegic.value.DoubleValue
0.001

@<SCITEGIC>MOL_PROPERTY
Tether
SciTegic.value.DoubleValue
0.000

@<TRIPOS>MOLECULE
guest-s18_confgen4.mol2 : confsearch ligand conformer 564
          16          15           1
SMALL
USER_CHARGES
 
@<TRIPOS>ATOM
       1    C1      18.236244   19.144913   23.916331 C.2        1 MOL1         0.6075
       2    O1      18.486728   18.280579   24.732506 O.co2      1 MOL1        -0.6830
       3    O2      17.148712   19.676632   23.813645 O.co2      1 MOL1        -0.6830
       4    C2      19.340426   19.571529   22.955418 C.3        1 MOL1        -0.2050
       5    H1      20.296128   19.485778   23.484943 H          1 MOL1         0.0710
       6    H2      19.194136   20.632071   22.717896 H          1 MOL1         0.0710
       7    C3      19.361814   18.730335   21.652756 C.3        1 MOL1        -0.1947
       8    H3      19.551512   17.676654   21.899903 H          1 MOL1         0.0712
       9    H4      18.364756   18.766839   21.192352 H          1 MOL1         0.0712
      10    C4      20.403629   19.220390   20.620828 C.3        1 MOL1        -0.1921
      11    H5      20.206952   20.270675   20.364703 H          1 MOL1         0.0712
      12    H6      20.278800   18.645648   19.692713 H          1 MOL1         0.0712
      13    C5      21.860594   19.068893   21.107892 C.3        1 MOL1        -0.2936
      14    H7      22.064299   19.715767   21.970355 H          1 MOL1         0.0724
      15    H8      22.562340   19.347192   20.310954 H          1 MOL1         0.0724
      16    H9      22.072218   18.031243   21.397286 H          1 MOL1         0.0724
@<TRIPOS>BOND
    1     1     2    1
    2     1     3    2
    3     1     4    1
    4     4     5    1
    5     4     6    1
    6     4     7    1
    7     7     8    1
    8     7     9    1
    9     7    10    1
   10    10    11    1
   11    10    12    1
   12    10    13    1
   13    13    14    1
   14    13    15    1
   15    13    16    1
@<TRIPOS>SUBSTRUCTURE
       1 MOL1            1 RESIDUE      1      MOL     
@<SCITEGIC>MOL_PROPERTY
VConf Rank
SciTegic.value.IntegerValue
564

@<SCITEGIC>MOL_PROPERTY
Conf_Id
SciTegic.value.IntegerValue
17

@<SCITEGIC>MOL_PROPERTY
Delta U+W
SciTegic.value.DoubleValue
-0.432

@<SCITEGIC>MOL_PROPERTY
U+W
SciTegic.value.DoubleValue
-57.336

@<SCITEGIC>MOL_PROPERTY
Grad RMS
SciTegic.value.DoubleValue
0.000000

@<SCITEGIC>MOL_PROPERTY
U
SciTegic.value.DoubleValue
7.263

@<SCITEGIC>MOL_PROPERTY
W
SciTegic.value.DoubleValue
-64.599

@<SCITEGIC>MOL_PROPERTY
W(PB)
SciTegic.value.DoubleValue
-66.503

@<SCITEGIC>MOL_PROPERTY
W(SA)
SciTegic.value.DoubleValue
1.904

@<SCITEGIC>MOL_PROPERTY
Valence
SciTegic.value.DoubleValue
6.734

@<SCITEGIC>MOL_PROPERTY
Coulomb
SciTegic.value.DoubleValue
-0.068

@<SCITEGIC>MOL_PROPERTY
VdW
SciTegic.value.DoubleValue
0.598

@<SCITEGIC>MOL_PROPERTY
VdW6
SciTegic.value.DoubleValue
-4.819

@<SCITEGIC>MOL_PROPERTY
VdW12
SciTegic.value.DoubleValue
5.417

@<SCITEGIC>MOL_PROPERTY
Bond
SciTegic.value.DoubleValue
0.107

@<SCITEGIC>MOL_PROPERTY
Angle
SciTegic.value.DoubleValue
2.469

@<SCITEGIC>MOL_PROPERTY
Pdih
SciTegic.value.DoubleValue
4.157

@<SCITEGIC>MOL_PROPERTY
Idih
SciTegic.value.DoubleValue
0.001

@<SCITEGIC>MOL_PROPERTY
Tether
SciTegic.value.DoubleValue
0.000

@<TRIPOS>MOLECULE
guest-s18_confgen4.mol2 : confsearch ligand conformer 565
          16          15           1
SMALL
USER_CHARGES
 
@<TRIPOS>ATOM
       1    C1      19.846441   17.717454   23.964413 C.2        1 MOL1         0.6075
       2    O1      20.608418   17.958749   24.879570 O.co2      1 MOL1        -0.6830
       3    O2      18.648010   17.578131   24.107989 O.co2      1 MOL1        -0.6830
       4    C2      20.431489   17.557434   22.563840 C.3        1 MOL1        -0.2050
       5    H1      19.708859   17.015152   21.941891 H          1 MOL1         0.0710
       6    H2      21.318292   16.918333   22.649651 H          1 MOL1         0.0710
       7    C3      20.822609   18.896039   21.885464 C.3        1 MOL1        -0.1947
       8    H3      21.524104   19.440886   22.532511 H          1 MOL1         0.0712
       9    H4      21.357731   18.679056   20.951054 H          1 MOL1         0.0712
      10    C4      19.598519   19.784863   21.575981 C.3        1 MOL1        -0.1921
      11    H5      19.066437   20.025585   22.506929 H          1 MOL1         0.0712
      12    H6      18.892272   19.234324   20.939193 H          1 MOL1         0.0712
      13    C5      20.011731   21.092645   20.872200 C.3        1 MOL1        -0.2936
      14    H7      20.694858   21.678043   21.501563 H          1 MOL1         0.0724
      15    H8      19.130888   21.712600   20.660333 H          1 MOL1         0.0724
      16    H9      20.516442   20.883988   19.919759 H          1 MOL1         0.0724
@<TRIPOS>BOND
    1     1     2    1
    2     1     3    2
    3     1     4    1
    4     4     5    1
    5     4     6    1
    6     4     7    1
    7     7     8    1
    8     7     9    1
    9     7    10    1
   10    10    11    1
   11    10    12    1
   12    10    13    1
   13    13    14    1
   14    13    15    1
   15    13    16    1
@<TRIPOS>SUBSTRUCTURE
       1 MOL1            1 RESIDUE      1      MOL     
@<SCITEGIC>MOL_PROPERTY
VConf Rank
SciTegic.value.IntegerValue
565

@<SCITEGIC>MOL_PROPERTY
Conf_Id
SciTegic.value.IntegerValue
19

@<SCITEGIC>MOL_PROPERTY
Delta U+W
SciTegic.value.DoubleValue
0.048

@<SCITEGIC>MOL_PROPERTY
U+W
SciTegic.value.DoubleValue
-56.856

@<SCITEGIC>MOL_PROPERTY
Grad RMS
SciTegic.value.DoubleValue
0.000000

@<SCITEGIC>MOL_PROPERTY
U
SciTegic.value.DoubleValue
8.276

@<SCITEGIC>MOL_PROPERTY
W
SciTegic.value.DoubleValue
-65.132

@<SCITEGIC>MOL_PROPERTY
W(PB)
SciTegic.value.DoubleValue
-67.031

@<SCITEGIC>MOL_PROPERTY
W(SA)
SciTegic.value.DoubleValue
1.899

@<SCITEGIC>MOL_PROPERTY
Valence
SciTegic.value.DoubleValue
6.513

@<SCITEGIC>MOL_PROPERTY
Coulomb
SciTegic.value.DoubleValue
1.428

@<SCITEGIC>MOL_PROPERTY
VdW
SciTegic.value.DoubleValue
0.335

@<SCITEGIC>MOL_PROPERTY
VdW6
SciTegic.value.DoubleValue
-5.021

@<SCITEGIC>MOL_PROPERTY
VdW12
SciTegic.value.DoubleValue
5.356

@<SCITEGIC>MOL_PROPERTY
Bond
SciTegic.value.DoubleValue
0.092

@<SCITEGIC>MOL_PROPERTY
Angle
SciTegic.value.DoubleValue
2.417

@<SCITEGIC>MOL_PROPERTY
Pdih
SciTegic.value.DoubleValue
4.003

@<SCITEGIC>MOL_PROPERTY
Idih
SciTegic.value.DoubleValue
0.001

@<SCITEGIC>MOL_PROPERTY
Tether
SciTegic.value.DoubleValue
0.000

@<TRIPOS>MOLECULE
guest-s18_confgen4.mol2 : confsearch ligand conformer 566
          16          15           1
SMALL
USER_CHARGES
 
@<TRIPOS>ATOM
       1    C1      19.253203   18.059762   20.085590 C.2        1 MOL1         0.6075
       2    O1      18.072362   17.779904   20.025273 O.co2      1 MOL1        -0.6830
       3    O2      20.143453   17.269400   19.842598 O.co2      1 MOL1        -0.6830
       4    C2      19.636034   19.487856   20.464382 C.3        1 MOL1        -0.2050
       5    H1      18.997503   20.163864   19.883410 H          1 MOL1         0.0710
       6    H2      20.668206   19.671394   20.141861 H          1 MOL1         0.0710
       7    C3      19.483572   19.803597   21.975046 C.3        1 MOL1        -0.1947
       8    H3      19.643987   20.878803   22.132389 H          1 MOL1         0.0712
       9    H4      18.453011   19.588131   22.289912 H          1 MOL1         0.0712
      10    C4      20.475236   19.007812   22.851128 C.3        1 MOL1        -0.1921
      11    H5      21.504595   19.214699   22.527100 H          1 MOL1         0.0712
      12    H6      20.310225   17.929579   22.717300 H          1 MOL1         0.0712
      13    C5      20.325518   19.365108   24.343199 C.3        1 MOL1        -0.2936
      14    H7      20.519083   20.432371   24.513192 H          1 MOL1         0.0724
      15    H8      21.036240   18.790642   24.951460 H          1 MOL1         0.0724
      16    H9      19.312570   19.138755   24.701180 H          1 MOL1         0.0724
@<TRIPOS>BOND
    1     1     2    1
    2     1     3    2
    3     1     4    1
    4     4     5    1
    5     4     6    1
    6     4     7    1
    7     7     8    1
    8     7     9    1
    9     7    10    1
   10    10    11    1
   11    10    12    1
   12    10    13    1
   13    13    14    1
   14    13    15    1
   15    13    16    1
@<TRIPOS>SUBSTRUCTURE
       1 MOL1            1 RESIDUE      1      MOL     
@<SCITEGIC>MOL_PROPERTY
VConf Rank
SciTegic.value.IntegerValue
566

@<SCITEGIC>MOL_PROPERTY
Conf_Id
SciTegic.value.IntegerValue
20

@<SCITEGIC>MOL_PROPERTY
Delta U+W
SciTegic.value.DoubleValue
-0.010

@<SCITEGIC>MOL_PROPERTY
U+W
SciTegic.value.DoubleValue
-56.914

@<SCITEGIC>MOL_PROPERTY
Grad RMS
SciTegic.value.DoubleValue
0.000000

@<SCITEGIC>MOL_PROPERTY
U
SciTegic.value.DoubleValue
8.277

@<SCITEGIC>MOL_PROPERTY
W
SciTegic.value.DoubleValue
-65.191

@<SCITEGIC>MOL_PROPERTY
W(PB)
SciTegic.value.DoubleValue
-67.081

@<SCITEGIC>MOL_PROPERTY
W(SA)
SciTegic.value.DoubleValue
1.890

@<SCITEGIC>MOL_PROPERTY
Valence
SciTegic.value.DoubleValue
6.513

@<SCITEGIC>MOL_PROPERTY
Coulomb
SciTegic.value.DoubleValue
1.429

@<SCITEGIC>MOL_PROPERTY
VdW
SciTegic.value.DoubleValue
0.335

@<SCITEGIC>MOL_PROPERTY
VdW6
SciTegic.value.DoubleValue
-5.021

@<SCITEGIC>MOL_PROPERTY
VdW12
SciTegic.value.DoubleValue
5.356

@<SCITEGIC>MOL_PROPERTY
Bond
SciTegic.value.DoubleValue
0.092

@<SCITEGIC>MOL_PROPERTY
Angle
SciTegic.value.DoubleValue
2.417

@<SCITEGIC>MOL_PROPERTY
Pdih
SciTegic.value.DoubleValue
4.002

@<SCITEGIC>MOL_PROPERTY
Idih
SciTegic.value.DoubleValue
0.001

@<SCITEGIC>MOL_PROPERTY
Tether
SciTegic.value.DoubleValue
0.000

@<TRIPOS>MOLECULE
guest-s18_confgen4.mol2 : confsearch ligand conformer 567
          16          15           1
SMALL
USER_CHARGES
 
@<TRIPOS>ATOM
       1    C1      18.155763   20.350288   21.634429 C.2        1 MOL1         0.6075
       2    O1      18.117726   21.047149   20.639581 O.co2      1 MOL1        -0.6830
       3    O2      17.793945   20.727605   22.731252 O.co2      1 MOL1        -0.6830
       4    C2      18.652855   18.914515   21.488820 C.3        1 MOL1        -0.2050
       5    H1      18.102354   18.462428   20.655486 H          1 MOL1         0.0710
       6    H2      18.372497   18.352241   22.386870 H          1 MOL1         0.0710
       7    C3      20.178104   18.793640   21.221088 C.3        1 MOL1        -0.1947
       8    H3      20.431351   17.738530   21.050851 H          1 MOL1         0.0712
       9    H4      20.415271   19.321838   20.287218 H          1 MOL1         0.0712
      10    C4      21.070825   19.354995   22.353308 C.3        1 MOL1        -0.1921
      11    H5      20.851355   20.420314   22.509918 H          1 MOL1         0.0712
      12    H6      22.120815   19.299341   22.034637 H          1 MOL1         0.0712
      13    C5      20.914026   18.593103   23.686491 C.3        1 MOL1        -0.2936
      14    H7      19.908108   18.725831   24.104821 H          1 MOL1         0.0724
      15    H8      21.633052   18.965162   24.427729 H          1 MOL1         0.0724
      16    H9      21.093555   17.518768   23.549962 H          1 MOL1         0.0724
@<TRIPOS>BOND
    1     1     2    1
    2     1     3    2
    3     1     4    1
    4     4     5    1
    5     4     6    1
    6     4     7    1
    7     7     8    1
    8     7     9    1
    9     7    10    1
   10    10    11    1
   11    10    12    1
   12    10    13    1
   13    13    14    1
   14    13    15    1
   15    13    16    1
@<TRIPOS>SUBSTRUCTURE
       1 MOL1            1 RESIDUE      1      MOL     
@<SCITEGIC>MOL_PROPERTY
VConf Rank
SciTegic.value.IntegerValue
567

@<SCITEGIC>MOL_PROPERTY
Conf_Id
SciTegic.value.IntegerValue
37

@<SCITEGIC>MOL_PROPERTY
Delta U+W
SciTegic.value.DoubleValue
1.063

@<SCITEGIC>MOL_PROPERTY
U+W
SciTegic.value.DoubleValue
-55.841

@<SCITEGIC>MOL_PROPERTY
Grad RMS
SciTegic.value.DoubleValue
0.000000

@<SCITEGIC>MOL_PROPERTY
U
SciTegic.value.DoubleValue
9.719

@<SCITEGIC>MOL_PROPERTY
W
SciTegic.value.DoubleValue
-65.560

@<SCITEGIC>MOL_PROPERTY
W(PB)
SciTegic.value.DoubleValue
-67.414

@<SCITEGIC>MOL_PROPERTY
W(SA)
SciTegic.value.DoubleValue
1.854

@<SCITEGIC>MOL_PROPERTY
Valence
SciTegic.value.DoubleValue
7.002

@<SCITEGIC>MOL_PROPERTY
Coulomb
SciTegic.value.DoubleValue
2.402

@<SCITEGIC>MOL_PROPERTY
VdW
SciTegic.value.DoubleValue
0.314

@<SCITEGIC>MOL_PROPERTY
VdW6
SciTegic.value.DoubleValue
-5.861

@<SCITEGIC>MOL_PROPERTY
VdW12
SciTegic.value.DoubleValue
6.175

@<SCITEGIC>MOL_PROPERTY
Bond
SciTegic.value.DoubleValue
0.134

@<SCITEGIC>MOL_PROPERTY
Angle
SciTegic.value.DoubleValue
2.733

@<SCITEGIC>MOL_PROPERTY
Pdih
SciTegic.value.DoubleValue
4.133

@<SCITEGIC>MOL_PROPERTY
Idih
SciTegic.value.DoubleValue
0.002

@<SCITEGIC>MOL_PROPERTY
Tether
SciTegic.value.DoubleValue
0.000

@<TRIPOS>MOLECULE
guest-s18_confgen4.mol2 : confsearch ligand conformer 568
          16          15           1
SMALL
USER_CHARGES
 
@<TRIPOS>ATOM
       1    C1      21.329374   19.318619   23.951684 C.2        1 MOL1         0.6075
       2    O1      20.964813   19.930143   24.936528 O.co2      1 MOL1        -0.6830
       3    O2      21.831014   18.212903   23.996951 O.co2      1 MOL1        -0.6830
       4    C2      21.179759   19.992036   22.590114 C.3        1 MOL1        -0.2050
       5    H1      21.788837   19.447656   21.859414 H          1 MOL1         0.0710
       6    H2      21.616674   20.994105   22.672848 H          1 MOL1         0.0710
       7    C3      19.711424   20.112151   22.097931 C.3        1 MOL1        -0.1947
       8    H3      19.143129   20.707996   22.825505 H          1 MOL1         0.0712
       9    H4      19.692402   20.676593   21.155904 H          1 MOL1         0.0712
      10    C4      18.994393   18.756407   21.893438 C.3        1 MOL1        -0.1921
      11    H5      17.945839   18.948842   21.627670 H          1 MOL1         0.0712
      12    H6      18.975917   18.196228   22.838666 H          1 MOL1         0.0712
      13    C5      19.636479   17.888546   20.790268 C.3        1 MOL1        -0.2936
      14    H7      19.699348   18.438839   19.842486 H          1 MOL1         0.0724
      15    H8      19.039248   16.983891   20.617715 H          1 MOL1         0.0724
      16    H9      20.647648   17.569194   21.073179 H          1 MOL1         0.0724
@<TRIPOS>BOND
    1     1     2    1
    2     1     3    2
    3     1     4    1
    4     4     5    1
    5     4     6    1
    6     4     7    1
    7     7     8    1
    8     7     9    1
    9     7    10    1
   10    10    11    1
   11    10    12    1
   12    10    13    1
   13    13    14    1
   14    13    15    1
   15    13    16    1
@<TRIPOS>SUBSTRUCTURE
       1 MOL1            1 RESIDUE      1      MOL     
@<SCITEGIC>MOL_PROPERTY
VConf Rank
SciTegic.value.IntegerValue
568

@<SCITEGIC>MOL_PROPERTY
Conf_Id
SciTegic.value.IntegerValue
39

@<SCITEGIC>MOL_PROPERTY
Delta U+W
SciTegic.value.DoubleValue
1.129

@<SCITEGIC>MOL_PROPERTY
U+W
SciTegic.value.DoubleValue
-55.775

@<SCITEGIC>MOL_PROPERTY
Grad RMS
SciTegic.value.DoubleValue
0.000000

@<SCITEGIC>MOL_PROPERTY
U
SciTegic.value.DoubleValue
9.718

@<SCITEGIC>MOL_PROPERTY
W
SciTegic.value.DoubleValue
-65.493

@<SCITEGIC>MOL_PROPERTY
W(PB)
SciTegic.value.DoubleValue
-67.361

@<SCITEGIC>MOL_PROPERTY
W(SA)
SciTegic.value.DoubleValue
1.869

@<SCITEGIC>MOL_PROPERTY
Valence
SciTegic.value.DoubleValue
7.002

@<SCITEGIC>MOL_PROPERTY
Coulomb
SciTegic.value.DoubleValue
2.402

@<SCITEGIC>MOL_PROPERTY
VdW
SciTegic.value.DoubleValue
0.314

@<SCITEGIC>MOL_PROPERTY
VdW6
SciTegic.value.DoubleValue
-5.861

@<SCITEGIC>MOL_PROPERTY
VdW12
SciTegic.value.DoubleValue
6.175

@<SCITEGIC>MOL_PROPERTY
Bond
SciTegic.value.DoubleValue
0.134

@<SCITEGIC>MOL_PROPERTY
Angle
SciTegic.value.DoubleValue
2.734

@<SCITEGIC>MOL_PROPERTY
Pdih
SciTegic.value.DoubleValue
4.133

@<SCITEGIC>MOL_PROPERTY
Idih
SciTegic.value.DoubleValue
0.002

@<SCITEGIC>MOL_PROPERTY
Tether
SciTegic.value.DoubleValue
0.000

@<TRIPOS>MOLECULE
guest-s18_confgen4.mol2 : confsearch ligand conformer 569
          16          15           1
SMALL
USER_CHARGES
 
@<TRIPOS>ATOM
       1    C1      20.564395   20.960465   22.328367 C.2        1 MOL1         0.6075
       2    O1      20.934954   21.260977   23.446042 O.co2      1 MOL1        -0.6830
       3    O2      19.824938   21.655581   21.659655 O.co2      1 MOL1        -0.6830
       4    C2      21.129481   19.688281   21.699175 C.3        1 MOL1        -0.2050
       5    H1      21.835242   19.226489   22.400338 H          1 MOL1         0.0710
       6    H2      21.715696   20.007883   20.829718 H          1 MOL1         0.0710
       7    C3      20.070206   18.647648   21.238737 C.3        1 MOL1        -0.1947
       8    H3      19.253773   19.154889   20.706116 H          1 MOL1         0.0712
       9    H4      20.544616   17.983652   20.503553 H          1 MOL1         0.0712
      10    C4      19.496590   17.763397   22.372150 C.3        1 MOL1        -0.1921
      11    H5      20.315951   17.259672   22.903319 H          1 MOL1         0.0712
      12    H6      18.888500   16.968574   21.918525 H          1 MOL1         0.0712
      13    C5      18.619940   18.533676   23.381329 C.3        1 MOL1        -0.2936
      14    H7      19.218927   19.229847   23.980961 H          1 MOL1         0.0724
      15    H8      18.130948   17.837486   24.074853 H          1 MOL1         0.0724
      16    H9      17.837129   19.106303   22.866903 H          1 MOL1         0.0724
@<TRIPOS>BOND
    1     1     2    1
    2     1     3    2
    3     1     4    1
    4     4     5    1
    5     4     6    1
    6     4     7    1
    7     7     8    1
    8     7     9    1
    9     7    10    1
   10    10    11    1
   11    10    12    1
   12    10    13    1
   13    13    14    1
   14    13    15    1
   15    13    16    1
@<TRIPOS>SUBSTRUCTURE
       1 MOL1            1 RESIDUE      1      MOL     
@<SCITEGIC>MOL_PROPERTY
VConf Rank
SciTegic.value.IntegerValue
569

@<SCITEGIC>MOL_PROPERTY
Conf_Id
SciTegic.value.IntegerValue
47

@<SCITEGIC>MOL_PROPERTY
Delta U+W
SciTegic.value.DoubleValue
2.301

@<SCITEGIC>MOL_PROPERTY
U+W
SciTegic.value.DoubleValue
-54.603

@<SCITEGIC>MOL_PROPERTY
Grad RMS
SciTegic.value.DoubleValue
0.000000

@<SCITEGIC>MOL_PROPERTY
U
SciTegic.value.DoubleValue
11.258

@<SCITEGIC>MOL_PROPERTY
W
SciTegic.value.DoubleValue
-65.861

@<SCITEGIC>MOL_PROPERTY
W(PB)
SciTegic.value.DoubleValue
-67.702

@<SCITEGIC>MOL_PROPERTY
W(SA)
SciTegic.value.DoubleValue
1.841

@<SCITEGIC>MOL_PROPERTY
Valence
SciTegic.value.DoubleValue
8.169

@<SCITEGIC>MOL_PROPERTY
Coulomb
SciTegic.value.DoubleValue
2.735

@<SCITEGIC>MOL_PROPERTY
VdW
SciTegic.value.DoubleValue
0.355

@<SCITEGIC>MOL_PROPERTY
VdW6
SciTegic.value.DoubleValue
-6.245

@<SCITEGIC>MOL_PROPERTY
VdW12
SciTegic.value.DoubleValue
6.600

@<SCITEGIC>MOL_PROPERTY
Bond
SciTegic.value.DoubleValue
0.149

@<SCITEGIC>MOL_PROPERTY
Angle
SciTegic.value.DoubleValue
3.168

@<SCITEGIC>MOL_PROPERTY
Pdih
SciTegic.value.DoubleValue
4.840

@<SCITEGIC>MOL_PROPERTY
Idih
SciTegic.value.DoubleValue
0.011

@<SCITEGIC>MOL_PROPERTY
Tether
SciTegic.value.DoubleValue
0.000

@<TRIPOS>MOLECULE
guest-s18_confgen4.mol2 : confsearch ligand conformer 570
          16          15           1
SMALL
USER_CHARGES
 
@<TRIPOS>ATOM
       1    C1      20.471502   20.889245   21.578484 C.2        1 MOL1         0.6075
       2    O1      19.639980   21.300657   20.793328 O.co2      1 MOL1        -0.6830
       3    O2      21.665487   20.895763   21.352258 O.co2      1 MOL1        -0.6830
       4    C2      20.000986   20.423543   22.955220 C.3        1 MOL1        -0.2050
       5    H1      19.535331   21.293414   23.432963 H          1 MOL1         0.0710
       6    H2      20.876577   20.163824   23.562563 H          1 MOL1         0.0710
       7    C3      18.984071   19.247615   22.947164 C.3        1 MOL1        -0.1947
       8    H3      18.458662   19.247243   23.911735 H          1 MOL1         0.0712
       9    H4      18.214159   19.423547   22.183080 H          1 MOL1         0.0712
      10    C4      19.615161   17.847750   22.753090 C.3        1 MOL1        -0.1921
      11    H5      18.838015   17.089855   22.923186 H          1 MOL1         0.0712
      12    H6      20.385476   17.676526   23.517634 H          1 MOL1         0.0712
      13    C5      20.217328   17.623942   21.350381 C.3        1 MOL1        -0.2936
      14    H7      20.521490   16.576694   21.225784 H          1 MOL1         0.0724
      15    H8      21.106742   18.246314   21.193549 H          1 MOL1         0.0724
      16    H9      19.487191   17.861085   20.565529 H          1 MOL1         0.0724
@<TRIPOS>BOND
    1     1     2    1
    2     1     3    2
    3     1     4    1
    4     4     5    1
    5     4     6    1
    6     4     7    1
    7     7     8    1
    8     7     9    1
    9     7    10    1
   10    10    11    1
   11    10    12    1
   12    10    13    1
   13    13    14    1
   14    13    15    1
   15    13    16    1
@<TRIPOS>SUBSTRUCTURE
       1 MOL1            1 RESIDUE      1      MOL     
@<SCITEGIC>MOL_PROPERTY
VConf Rank
SciTegic.value.IntegerValue
570

@<SCITEGIC>MOL_PROPERTY
Conf_Id
SciTegic.value.IntegerValue
45

@<SCITEGIC>MOL_PROPERTY
Delta U+W
SciTegic.value.DoubleValue
2.303

@<SCITEGIC>MOL_PROPERTY
U+W
SciTegic.value.DoubleValue
-54.601

@<SCITEGIC>MOL_PROPERTY
Grad RMS
SciTegic.value.DoubleValue
0.000000

@<SCITEGIC>MOL_PROPERTY
U
SciTegic.value.DoubleValue
11.258

@<SCITEGIC>MOL_PROPERTY
W
SciTegic.value.DoubleValue
-65.860

@<SCITEGIC>MOL_PROPERTY
W(PB)
SciTegic.value.DoubleValue
-67.709

@<SCITEGIC>MOL_PROPERTY
W(SA)
SciTegic.value.DoubleValue
1.849

@<SCITEGIC>MOL_PROPERTY
Valence
SciTegic.value.DoubleValue
8.169

@<SCITEGIC>MOL_PROPERTY
Coulomb
SciTegic.value.DoubleValue
2.735

@<SCITEGIC>MOL_PROPERTY
VdW
SciTegic.value.DoubleValue
0.355

@<SCITEGIC>MOL_PROPERTY
VdW6
SciTegic.value.DoubleValue
-6.245

@<SCITEGIC>MOL_PROPERTY
VdW12
SciTegic.value.DoubleValue
6.600

@<SCITEGIC>MOL_PROPERTY
Bond
SciTegic.value.DoubleValue
0.149

@<SCITEGIC>MOL_PROPERTY
Angle
SciTegic.value.DoubleValue
3.168

@<SCITEGIC>MOL_PROPERTY
Pdih
SciTegic.value.DoubleValue
4.840

@<SCITEGIC>MOL_PROPERTY
Idih
SciTegic.value.DoubleValue
0.011

@<SCITEGIC>MOL_PROPERTY
Tether
SciTegic.value.DoubleValue
0.000

@<TRIPOS>MOLECULE
guest-s18_confgen4.mol2 : confsearch ligand conformer 571
          16          15           1
SMALL
USER_CHARGES
 
@<TRIPOS>ATOM
       1    C1      21.575311   21.122517   20.869537 C.2        1 MOL1         0.6075
       2    O1      21.280379   20.876421   19.716182 O.co2      1 MOL1        -0.6830
       3    O2      22.339593   22.013336   21.181993 O.co2      1 MOL1        -0.6830
       4    C2      20.973114   20.289668   22.002504 C.3        1 MOL1        -0.2050
       5    H1      20.451879   20.980841   22.675375 H          1 MOL1         0.0710
       6    H2      21.806160   19.857366   22.569350 H          1 MOL1         0.0710
       7    C3      20.003707   19.163291   21.555433 C.3        1 MOL1        -0.1947
       8    H3      19.174219   19.601782   20.983467 H          1 MOL1         0.0712
       9    H4      20.529900   18.477147   20.877349 H          1 MOL1         0.0712
      10    C4      19.444957   18.376163   22.759379 C.3        1 MOL1        -0.1921
      11    H5      18.916942   19.060942   23.437447 H          1 MOL1         0.0712
      12    H6      20.273428   17.935629   23.331275 H          1 MOL1         0.0712
      13    C5      18.482980   17.259064   22.309010 C.3        1 MOL1        -0.2936
      14    H7      17.627423   17.674935   21.760790 H          1 MOL1         0.0724
      15    H8      18.095024   16.709562   23.176580 H          1 MOL1         0.0724
      16    H9      18.993913   16.541315   21.653836 H          1 MOL1         0.0724
@<TRIPOS>BOND
    1     1     2    1
    2     1     3    2
    3     1     4    1
    4     4     5    1
    5     4     6    1
    6     4     7    1
    7     7     8    1
    8     7     9    1
    9     7    10    1
   10    10    11    1
   11    10    12    1
   12    10    13    1
   13    13    14    1
   14    13    15    1
   15    13    16    1
@<TRIPOS>SUBSTRUCTURE
       1 MOL1            1 RESIDUE      1      MOL     
@<SCITEGIC>MOL_PROPERTY
VConf Rank
SciTegic.value.IntegerValue
571

@<SCITEGIC>MOL_PROPERTY
Conf_Id
SciTegic.value.IntegerValue
0

@<SCITEGIC>MOL_PROPERTY
Delta U+W
SciTegic.value.DoubleValue
0.000

@<SCITEGIC>MOL_PROPERTY
U+W
SciTegic.value.DoubleValue
-56.904

@<SCITEGIC>MOL_PROPERTY
Grad RMS
SciTegic.value.DoubleValue
0.000000

@<SCITEGIC>MOL_PROPERTY
U
SciTegic.value.DoubleValue
7.329

@<SCITEGIC>MOL_PROPERTY
W
SciTegic.value.DoubleValue
-64.233

@<SCITEGIC>MOL_PROPERTY
W(PB)
SciTegic.value.DoubleValue
-66.148

@<SCITEGIC>MOL_PROPERTY
W(SA)
SciTegic.value.DoubleValue
1.915

@<SCITEGIC>MOL_PROPERTY
Valence
SciTegic.value.DoubleValue
6.755

@<SCITEGIC>MOL_PROPERTY
Coulomb
SciTegic.value.DoubleValue
-0.421

@<SCITEGIC>MOL_PROPERTY
VdW
SciTegic.value.DoubleValue
0.995

@<SCITEGIC>MOL_PROPERTY
VdW6
SciTegic.value.DoubleValue
-4.495

@<SCITEGIC>MOL_PROPERTY
VdW12
SciTegic.value.DoubleValue
5.490

@<SCITEGIC>MOL_PROPERTY
Bond
SciTegic.value.DoubleValue
0.106

@<SCITEGIC>MOL_PROPERTY
Angle
SciTegic.value.DoubleValue
2.715

@<SCITEGIC>MOL_PROPERTY
Pdih
SciTegic.value.DoubleValue
3.934

@<SCITEGIC>MOL_PROPERTY
Idih
SciTegic.value.DoubleValue
0.000

@<SCITEGIC>MOL_PROPERTY
Tether
SciTegic.value.DoubleValue
0.000

@<TRIPOS>MOLECULE
guest-s18_confgen4.mol2 : confsearch ligand conformer 572
          16          15           1
SMALL
USER_CHARGES
 
@<TRIPOS>ATOM
       1    C1      20.655758   21.783076   21.865241 C.2        1 MOL1         0.6075
       2    O1      21.291541   22.185581   22.818977 O.co2      1 MOL1        -0.6830
       3    O2      20.750504   22.251637   20.748407 O.co2      1 MOL1        -0.6830
       4    C2      19.700160   20.614189   22.077649 C.3        1 MOL1        -0.2050
       5    H1      18.854596   20.735604   21.389804 H          1 MOL1         0.0710
       6    H2      19.300750   20.681067   23.096889 H          1 MOL1         0.0710
       7    C3      20.373812   19.237298   21.857597 C.3        1 MOL1        -0.1947
       8    H3      20.779343   19.190454   20.837352 H          1 MOL1         0.0712
       9    H4      21.225566   19.135937   22.544468 H          1 MOL1         0.0712
      10    C4      19.385971   18.072874   22.078619 C.3        1 MOL1        -0.1921
      11    H5      18.534387   18.173506   21.391439 H          1 MOL1         0.0712
      12    H6      18.980692   18.118997   23.098991 H          1 MOL1         0.0712
      13    C5      20.063216   16.705851   21.857968 C.3        1 MOL1        -0.2936
      14    H7      20.900269   16.565216   22.554412 H          1 MOL1         0.0724
      15    H8      20.450688   16.620138   20.834253 H          1 MOL1         0.0724
      16    H9      19.347492   15.889168   22.018957 H          1 MOL1         0.0724
@<TRIPOS>BOND
    1     1     2    1
    2     1     3    2
    3     1     4    1
    4     4     5    1
    5     4     6    1
    6     4     7    1
    7     7     8    1
    8     7     9    1
    9     7    10    1
   10    10    11    1
   11    10    12    1
   12    10    13    1
   13    13    14    1
   14    13    15    1
   15    13    16    1
@<TRIPOS>SUBSTRUCTURE
       1 MOL1            1 RESIDUE      1      MOL     
@<SCITEGIC>MOL_PROPERTY
VConf Rank
SciTegic.value.IntegerValue
572

@<SCITEGIC>MOL_PROPERTY
Conf_Id
SciTegic.value.IntegerValue
22

@<SCITEGIC>MOL_PROPERTY
Delta U+W
SciTegic.value.DoubleValue
-1.185

@<SCITEGIC>MOL_PROPERTY
U+W
SciTegic.value.DoubleValue
-58.089

@<SCITEGIC>MOL_PROPERTY
Grad RMS
SciTegic.value.DoubleValue
0.000000

@<SCITEGIC>MOL_PROPERTY
U
SciTegic.value.DoubleValue
6.298

@<SCITEGIC>MOL_PROPERTY
W
SciTegic.value.DoubleValue
-64.387

@<SCITEGIC>MOL_PROPERTY
W(PB)
SciTegic.value.DoubleValue
-66.329

@<SCITEGIC>MOL_PROPERTY
W(SA)
SciTegic.value.DoubleValue
1.942

@<SCITEGIC>MOL_PROPERTY
Valence
SciTegic.value.DoubleValue
6.246

@<SCITEGIC>MOL_PROPERTY
Coulomb
SciTegic.value.DoubleValue
-0.408

@<SCITEGIC>MOL_PROPERTY
VdW
SciTegic.value.DoubleValue
0.460

@<SCITEGIC>MOL_PROPERTY
VdW6
SciTegic.value.DoubleValue
-4.207

@<SCITEGIC>MOL_PROPERTY
VdW12
SciTegic.value.DoubleValue
4.667

@<SCITEGIC>MOL_PROPERTY
Bond
SciTegic.value.DoubleValue
0.072

@<SCITEGIC>MOL_PROPERTY
Angle
SciTegic.value.DoubleValue
2.246

@<SCITEGIC>MOL_PROPERTY
Pdih
SciTegic.value.DoubleValue
3.928

@<SCITEGIC>MOL_PROPERTY
Idih
SciTegic.value.DoubleValue
0.001

@<SCITEGIC>MOL_PROPERTY
Tether
SciTegic.value.DoubleValue
0.000

@<TRIPOS>MOLECULE
guest-s18_confgen4.mol2 : confsearch ligand conformer 573
          16          15           1
SMALL
USER_CHARGES
 
@<TRIPOS>ATOM
       1    C1      19.204567   19.674993   24.405848 C.2        1 MOL1         0.6075
       2    O1      19.520663   18.983100   25.353140 O.co2      1 MOL1        -0.6830
       3    O2      18.249215   20.425477   24.411584 O.co2      1 MOL1        -0.6830
       4    C2      20.040548   19.581070   23.134279 C.3        1 MOL1        -0.2050
       5    H1      21.077200   19.370147   23.423120 H          1 MOL1         0.0710
       6    H2      20.030840   20.566215   22.654163 H          1 MOL1         0.0710
       7    C3      19.526609   18.493015   22.156018 C.3        1 MOL1        -0.1947
       8    H3      19.466037   17.535938   22.692453 H          1 MOL1         0.0712
       9    H4      18.502921   18.737704   21.840584 H          1 MOL1         0.0712
      10    C4      20.426400   18.309173   20.912239 C.3        1 MOL1        -0.1921
      11    H5      20.056105   17.452769   20.331926 H          1 MOL1         0.0712
      12    H6      21.447436   18.052900   21.227185 H          1 MOL1         0.0712
      13    C5      20.461855   19.552177   19.997570 C.3        1 MOL1        -0.2936
      14    H7      20.931090   20.406871   20.500659 H          1 MOL1         0.0724
      15    H8      19.448537   19.844891   19.693013 H          1 MOL1         0.0724
      16    H9      21.040694   19.343134   19.088585 H          1 MOL1         0.0724
@<TRIPOS>BOND
    1     1     2    1
    2     1     3    2
    3     1     4    1
    4     4     5    1
    5     4     6    1
    6     4     7    1
    7     7     8    1
    8     7     9    1
    9     7    10    1
   10    10    11    1
   11    10    12    1
   12    10    13    1
   13    13    14    1
   14    13    15    1
   15    13    16    1
@<TRIPOS>SUBSTRUCTURE
       1 MOL1            1 RESIDUE      1      MOL     
@<SCITEGIC>MOL_PROPERTY
VConf Rank
SciTegic.value.IntegerValue
573

@<SCITEGIC>MOL_PROPERTY
Conf_Id
SciTegic.value.IntegerValue
36

@<SCITEGIC>MOL_PROPERTY
Delta U+W
SciTegic.value.DoubleValue
-0.427

@<SCITEGIC>MOL_PROPERTY
U+W
SciTegic.value.DoubleValue
-57.331

@<SCITEGIC>MOL_PROPERTY
Grad RMS
SciTegic.value.DoubleValue
0.000000

@<SCITEGIC>MOL_PROPERTY
U
SciTegic.value.DoubleValue
7.263

@<SCITEGIC>MOL_PROPERTY
W
SciTegic.value.DoubleValue
-64.594

@<SCITEGIC>MOL_PROPERTY
W(PB)
SciTegic.value.DoubleValue
-66.513

@<SCITEGIC>MOL_PROPERTY
W(SA)
SciTegic.value.DoubleValue
1.920

@<SCITEGIC>MOL_PROPERTY
Valence
SciTegic.value.DoubleValue
6.734

@<SCITEGIC>MOL_PROPERTY
Coulomb
SciTegic.value.DoubleValue
-0.068

@<SCITEGIC>MOL_PROPERTY
VdW
SciTegic.value.DoubleValue
0.598

@<SCITEGIC>MOL_PROPERTY
VdW6
SciTegic.value.DoubleValue
-4.819

@<SCITEGIC>MOL_PROPERTY
VdW12
SciTegic.value.DoubleValue
5.417

@<SCITEGIC>MOL_PROPERTY
Bond
SciTegic.value.DoubleValue
0.107

@<SCITEGIC>MOL_PROPERTY
Angle
SciTegic.value.DoubleValue
2.469

@<SCITEGIC>MOL_PROPERTY
Pdih
SciTegic.value.DoubleValue
4.157

@<SCITEGIC>MOL_PROPERTY
Idih
SciTegic.value.DoubleValue
0.001

@<SCITEGIC>MOL_PROPERTY
Tether
SciTegic.value.DoubleValue
0.000

@<TRIPOS>MOLECULE
guest-s18_confgen4.mol2 : confsearch ligand conformer 574
          16          15           1
SMALL
USER_CHARGES
 
@<TRIPOS>ATOM
       1    C1      21.692251   18.069179   23.590531 C.2        1 MOL1         0.6075
       2    O1      22.738660   18.686392   23.584751 O.co2      1 MOL1        -0.6830
       3    O2      21.589599   16.925167   23.986378 O.co2      1 MOL1        -0.6830
       4    C2      20.443988   18.760442   23.053347 C.3        1 MOL1        -0.2050
       5    H1      20.527845   19.828590   23.283878 H          1 MOL1         0.0710
       6    H2      19.577703   18.375662   23.604766 H          1 MOL1         0.0710
       7    C3      20.246218   18.545564   21.530288 C.3        1 MOL1        -0.1947
       8    H3      21.099681   18.972883   20.985944 H          1 MOL1         0.0712
       9    H4      20.253500   17.466692   21.321936 H          1 MOL1         0.0712
      10    C4      18.928283   19.146864   20.990017 C.3        1 MOL1        -0.1921
      11    H5      18.073980   18.710944   21.526228 H          1 MOL1         0.0712
      12    H6      18.814013   18.857627   19.936171 H          1 MOL1         0.0712
      13    C5      18.874673   20.686216   21.092252 C.3        1 MOL1        -0.2936
      14    H7      18.871485   21.018694   22.137828 H          1 MOL1         0.0724
      15    H8      17.961897   21.070512   20.618793 H          1 MOL1         0.0724
      16    H9      19.735512   21.143712   20.587372 H          1 MOL1         0.0724
@<TRIPOS>BOND
    1     1     2    1
    2     1     3    2
    3     1     4    1
    4     4     5    1
    5     4     6    1
    6     4     7    1
    7     7     8    1
    8     7     9    1
    9     7    10    1
   10    10    11    1
   11    10    12    1
   12    10    13    1
   13    13    14    1
   14    13    15    1
   15    13    16    1
@<TRIPOS>SUBSTRUCTURE
       1 MOL1            1 RESIDUE      1      MOL     
@<SCITEGIC>MOL_PROPERTY
VConf Rank
SciTegic.value.IntegerValue
574

@<SCITEGIC>MOL_PROPERTY
Conf_Id
SciTegic.value.IntegerValue
17

@<SCITEGIC>MOL_PROPERTY
Delta U+W
SciTegic.value.DoubleValue
-0.432

@<SCITEGIC>MOL_PROPERTY
U+W
SciTegic.value.DoubleValue
-57.336

@<SCITEGIC>MOL_PROPERTY
Grad RMS
SciTegic.value.DoubleValue
0.000000

@<SCITEGIC>MOL_PROPERTY
U
SciTegic.value.DoubleValue
7.263

@<SCITEGIC>MOL_PROPERTY
W
SciTegic.value.DoubleValue
-64.599

@<SCITEGIC>MOL_PROPERTY
W(PB)
SciTegic.value.DoubleValue
-66.503

@<SCITEGIC>MOL_PROPERTY
W(SA)
SciTegic.value.DoubleValue
1.904

@<SCITEGIC>MOL_PROPERTY
Valence
SciTegic.value.DoubleValue
6.734

@<SCITEGIC>MOL_PROPERTY
Coulomb
SciTegic.value.DoubleValue
-0.068

@<SCITEGIC>MOL_PROPERTY
VdW
SciTegic.value.DoubleValue
0.598

@<SCITEGIC>MOL_PROPERTY
VdW6
SciTegic.value.DoubleValue
-4.819

@<SCITEGIC>MOL_PROPERTY
VdW12
SciTegic.value.DoubleValue
5.417

@<SCITEGIC>MOL_PROPERTY
Bond
SciTegic.value.DoubleValue
0.107

@<SCITEGIC>MOL_PROPERTY
Angle
SciTegic.value.DoubleValue
2.469

@<SCITEGIC>MOL_PROPERTY
Pdih
SciTegic.value.DoubleValue
4.157

@<SCITEGIC>MOL_PROPERTY
Idih
SciTegic.value.DoubleValue
0.001

@<SCITEGIC>MOL_PROPERTY
Tether
SciTegic.value.DoubleValue
0.000

@<TRIPOS>MOLECULE
guest-s18_confgen4.mol2 : confsearch ligand conformer 575
          16          15           1
SMALL
USER_CHARGES
 
@<TRIPOS>ATOM
       1    C1      18.544388   17.507537   21.441600 C.2        1 MOL1         0.6075
       2    O1      18.446268   17.376106   20.237673 O.co2      1 MOL1        -0.6830
       3    O2      18.673337   16.575346   22.210141 O.co2      1 MOL1        -0.6830
       4    C2      18.477716   18.918629   22.019412 C.3        1 MOL1        -0.2050
       5    H1      18.230897   18.849469   23.085893 H          1 MOL1         0.0710
       6    H2      17.640507   19.433198   21.533066 H          1 MOL1         0.0710
       7    C3      19.775967   19.743938   21.823338 C.3        1 MOL1        -0.1947
       8    H3      20.026229   19.780499   20.753920 H          1 MOL1         0.0712
       9    H4      19.591423   20.779287   22.140440 H          1 MOL1         0.0712
      10    C4      20.968789   19.172817   22.620320 C.3        1 MOL1        -0.1921
      11    H5      21.175902   18.143205   22.296702 H          1 MOL1         0.0712
      12    H6      20.712553   19.125269   23.687774 H          1 MOL1         0.0712
      13    C5      22.236355   20.030245   22.434747 C.3        1 MOL1        -0.2936
      14    H7      22.532682   20.069021   21.378273 H          1 MOL1         0.0724
      15    H8      23.074147   19.610455   23.006584 H          1 MOL1         0.0724
      16    H9      22.069941   21.058262   22.782457 H          1 MOL1         0.0724
@<TRIPOS>BOND
    1     1     2    1
    2     1     3    2
    3     1     4    1
    4     4     5    1
    5     4     6    1
    6     4     7    1
    7     7     8    1
    8     7     9    1
    9     7    10    1
   10    10    11    1
   11    10    12    1
   12    10    13    1
   13    13    14    1
   14    13    15    1
   15    13    16    1
@<TRIPOS>SUBSTRUCTURE
       1 MOL1            1 RESIDUE      1      MOL     
@<SCITEGIC>MOL_PROPERTY
VConf Rank
SciTegic.value.IntegerValue
575

@<SCITEGIC>MOL_PROPERTY
Conf_Id
SciTegic.value.IntegerValue
19

@<SCITEGIC>MOL_PROPERTY
Delta U+W
SciTegic.value.DoubleValue
0.048

@<SCITEGIC>MOL_PROPERTY
U+W
SciTegic.value.DoubleValue
-56.856

@<SCITEGIC>MOL_PROPERTY
Grad RMS
SciTegic.value.DoubleValue
0.000000

@<SCITEGIC>MOL_PROPERTY
U
SciTegic.value.DoubleValue
8.276

@<SCITEGIC>MOL_PROPERTY
W
SciTegic.value.DoubleValue
-65.132

@<SCITEGIC>MOL_PROPERTY
W(PB)
SciTegic.value.DoubleValue
-67.031

@<SCITEGIC>MOL_PROPERTY
W(SA)
SciTegic.value.DoubleValue
1.899

@<SCITEGIC>MOL_PROPERTY
Valence
SciTegic.value.DoubleValue
6.513

@<SCITEGIC>MOL_PROPERTY
Coulomb
SciTegic.value.DoubleValue
1.428

@<SCITEGIC>MOL_PROPERTY
VdW
SciTegic.value.DoubleValue
0.335

@<SCITEGIC>MOL_PROPERTY
VdW6
SciTegic.value.DoubleValue
-5.021

@<SCITEGIC>MOL_PROPERTY
VdW12
SciTegic.value.DoubleValue
5.356

@<SCITEGIC>MOL_PROPERTY
Bond
SciTegic.value.DoubleValue
0.092

@<SCITEGIC>MOL_PROPERTY
Angle
SciTegic.value.DoubleValue
2.417

@<SCITEGIC>MOL_PROPERTY
Pdih
SciTegic.value.DoubleValue
4.003

@<SCITEGIC>MOL_PROPERTY
Idih
SciTegic.value.DoubleValue
0.001

@<SCITEGIC>MOL_PROPERTY
Tether
SciTegic.value.DoubleValue
0.000

@<TRIPOS>MOLECULE
guest-s18_confgen4.mol2 : confsearch ligand conformer 576
          16          15           1
SMALL
USER_CHARGES
 
@<TRIPOS>ATOM
       1    C1      18.406951   20.961066   22.582663 C.2        1 MOL1         0.6075
       2    O1      17.317577   20.607419   22.988299 O.co2      1 MOL1        -0.6830
       3    O2      18.560289   21.779343   21.697693 O.co2      1 MOL1        -0.6830
       4    C2      19.648309   20.361260   23.237462 C.3        1 MOL1        -0.2050
       5    H1      19.492754   20.388752   24.322489 H          1 MOL1         0.0710
       6    H2      20.505972   21.010685   23.023580 H          1 MOL1         0.0710
       7    C3      19.955586   18.906723   22.795933 C.3        1 MOL1        -0.1947
       8    H3      20.772922   18.511666   23.414358 H          1 MOL1         0.0712
       9    H4      19.078092   18.274234   22.989801 H          1 MOL1         0.0712
      10    C4      20.351701   18.809261   21.306710 C.3        1 MOL1        -0.1921
      11    H5      21.221544   19.451715   21.111761 H          1 MOL1         0.0712
      12    H6      19.532490   19.183168   20.676781 H          1 MOL1         0.0712
      13    C5      20.684205   17.359177   20.902916 C.3        1 MOL1        -0.2936
      14    H7      21.523917   16.969456   21.493183 H          1 MOL1         0.0724
      15    H8      20.962571   17.307408   19.842280 H          1 MOL1         0.0724
      16    H9      19.819917   16.700344   21.059111 H          1 MOL1         0.0724
@<TRIPOS>BOND
    1     1     2    1
    2     1     3    2
    3     1     4    1
    4     4     5    1
    5     4     6    1
    6     4     7    1
    7     7     8    1
    8     7     9    1
    9     7    10    1
   10    10    11    1
   11    10    12    1
   12    10    13    1
   13    13    14    1
   14    13    15    1
   15    13    16    1
@<TRIPOS>SUBSTRUCTURE
       1 MOL1            1 RESIDUE      1      MOL     
@<SCITEGIC>MOL_PROPERTY
VConf Rank
SciTegic.value.IntegerValue
576

@<SCITEGIC>MOL_PROPERTY
Conf_Id
SciTegic.value.IntegerValue
20

@<SCITEGIC>MOL_PROPERTY
Delta U+W
SciTegic.value.DoubleValue
-0.010

@<SCITEGIC>MOL_PROPERTY
U+W
SciTegic.value.DoubleValue
-56.914

@<SCITEGIC>MOL_PROPERTY
Grad RMS
SciTegic.value.DoubleValue
0.000000

@<SCITEGIC>MOL_PROPERTY
U
SciTegic.value.DoubleValue
8.277

@<SCITEGIC>MOL_PROPERTY
W
SciTegic.value.DoubleValue
-65.191

@<SCITEGIC>MOL_PROPERTY
W(PB)
SciTegic.value.DoubleValue
-67.081

@<SCITEGIC>MOL_PROPERTY
W(SA)
SciTegic.value.DoubleValue
1.890

@<SCITEGIC>MOL_PROPERTY
Valence
SciTegic.value.DoubleValue
6.513

@<SCITEGIC>MOL_PROPERTY
Coulomb
SciTegic.value.DoubleValue
1.429

@<SCITEGIC>MOL_PROPERTY
VdW
SciTegic.value.DoubleValue
0.335

@<SCITEGIC>MOL_PROPERTY
VdW6
SciTegic.value.DoubleValue
-5.021

@<SCITEGIC>MOL_PROPERTY
VdW12
SciTegic.value.DoubleValue
5.356

@<SCITEGIC>MOL_PROPERTY
Bond
SciTegic.value.DoubleValue
0.092

@<SCITEGIC>MOL_PROPERTY
Angle
SciTegic.value.DoubleValue
2.417

@<SCITEGIC>MOL_PROPERTY
Pdih
SciTegic.value.DoubleValue
4.002

@<SCITEGIC>MOL_PROPERTY
Idih
SciTegic.value.DoubleValue
0.001

@<SCITEGIC>MOL_PROPERTY
Tether
SciTegic.value.DoubleValue
0.000

@<TRIPOS>MOLECULE
guest-s18_confgen4.mol2 : confsearch ligand conformer 577
          16          15           1
SMALL
USER_CHARGES
 
@<TRIPOS>ATOM
       1    C1      21.169093   20.823837   21.785645 C.2        1 MOL1         0.6075
       2    O1      21.048407   21.553718   20.821542 O.co2      1 MOL1        -0.6830
       3    O2      22.232389   20.358521   22.145068 O.co2      1 MOL1        -0.6830
       4    C2      19.922738   20.503925   22.606620 C.3        1 MOL1        -0.2050
       5    H1      19.429774   21.456269   22.834453 H          1 MOL1         0.0710
       6    H2      20.233915   20.078284   23.567477 H          1 MOL1         0.0710
       7    C3      18.914542   19.563045   21.891804 C.3        1 MOL1        -0.1947
       8    H3      18.018659   19.453034   22.517633 H          1 MOL1         0.0712
       9    H4      18.582835   20.043383   20.960890 H          1 MOL1         0.0712
      10    C4      19.477255   18.160998   21.557728 C.3        1 MOL1        -0.1921
      11    H5      20.354470   18.255888   20.902680 H          1 MOL1         0.0712
      12    H6      18.722173   17.605580   20.984586 H          1 MOL1         0.0712
      13    C5      19.853429   17.341720   22.810612 C.3        1 MOL1        -0.2936
      14    H7      20.693088   17.800071   23.348548 H          1 MOL1         0.0724
      15    H8      20.156293   16.325346   22.527563 H          1 MOL1         0.0724
      16    H9      19.002540   17.262130   23.499611 H          1 MOL1         0.0724
@<TRIPOS>BOND
    1     1     2    1
    2     1     3    2
    3     1     4    1
    4     4     5    1
    5     4     6    1
    6     4     7    1
    7     7     8    1
    8     7     9    1
    9     7    10    1
   10    10    11    1
   11    10    12    1
   12    10    13    1
   13    13    14    1
   14    13    15    1
   15    13    16    1
@<TRIPOS>SUBSTRUCTURE
       1 MOL1            1 RESIDUE      1      MOL     
@<SCITEGIC>MOL_PROPERTY
VConf Rank
SciTegic.value.IntegerValue
577

@<SCITEGIC>MOL_PROPERTY
Conf_Id
SciTegic.value.IntegerValue
37

@<SCITEGIC>MOL_PROPERTY
Delta U+W
SciTegic.value.DoubleValue
1.063

@<SCITEGIC>MOL_PROPERTY
U+W
SciTegic.value.DoubleValue
-55.841

@<SCITEGIC>MOL_PROPERTY
Grad RMS
SciTegic.value.DoubleValue
0.000000

@<SCITEGIC>MOL_PROPERTY
U
SciTegic.value.DoubleValue
9.719

@<SCITEGIC>MOL_PROPERTY
W
SciTegic.value.DoubleValue
-65.560

@<SCITEGIC>MOL_PROPERTY
W(PB)
SciTegic.value.DoubleValue
-67.414

@<SCITEGIC>MOL_PROPERTY
W(SA)
SciTegic.value.DoubleValue
1.854

@<SCITEGIC>MOL_PROPERTY
Valence
SciTegic.value.DoubleValue
7.002

@<SCITEGIC>MOL_PROPERTY
Coulomb
SciTegic.value.DoubleValue
2.402

@<SCITEGIC>MOL_PROPERTY
VdW
SciTegic.value.DoubleValue
0.314

@<SCITEGIC>MOL_PROPERTY
VdW6
SciTegic.value.DoubleValue
-5.861

@<SCITEGIC>MOL_PROPERTY
VdW12
SciTegic.value.DoubleValue
6.175

@<SCITEGIC>MOL_PROPERTY
Bond
SciTegic.value.DoubleValue
0.134

@<SCITEGIC>MOL_PROPERTY
Angle
SciTegic.value.DoubleValue
2.733

@<SCITEGIC>MOL_PROPERTY
Pdih
SciTegic.value.DoubleValue
4.133

@<SCITEGIC>MOL_PROPERTY
Idih
SciTegic.value.DoubleValue
0.002

@<SCITEGIC>MOL_PROPERTY
Tether
SciTegic.value.DoubleValue
0.000

@<TRIPOS>MOLECULE
guest-s18_confgen4.mol2 : confsearch ligand conformer 578
          16          15           1
SMALL
USER_CHARGES
 
@<TRIPOS>ATOM
       1    C1      22.120371   18.982281   21.359865 C.2        1 MOL1         0.6075
       2    O1      22.491689   19.612571   20.389482 O.co2      1 MOL1        -0.6830
       3    O2      22.771180   18.878176   22.380606 O.co2      1 MOL1        -0.6830
       4    C2      20.780834   18.255355   21.276406 C.3        1 MOL1        -0.2050
       5    H1      20.721812   17.530960   22.096782 H          1 MOL1         0.0710
       6    H2      20.784058   17.672610   20.347817 H          1 MOL1         0.0710
       7    C3      19.544958   19.196196   21.286788 C.3        1 MOL1        -0.1947
       8    H3      19.608686   19.871814   20.422592 H          1 MOL1         0.0712
       9    H4      18.635385   18.597529   21.143104 H          1 MOL1         0.0712
      10    C4      19.398864   20.043028   22.573459 C.3        1 MOL1        -0.1921
      11    H5      18.550090   20.729500   22.449087 H          1 MOL1         0.0712
      12    H6      20.288691   20.673226   22.710045 H          1 MOL1         0.0712
      13    C5      19.168907   19.191210   23.839938 C.3        1 MOL1        -0.2936
      14    H7      18.304882   18.525560   23.715698 H          1 MOL1         0.0724
      15    H8      18.977272   19.836765   24.706769 H          1 MOL1         0.0724
      16    H9      20.048620   18.577368   24.071862 H          1 MOL1         0.0724
@<TRIPOS>BOND
    1     1     2    1
    2     1     3    2
    3     1     4    1
    4     4     5    1
    5     4     6    1
    6     4     7    1
    7     7     8    1
    8     7     9    1
    9     7    10    1
   10    10    11    1
   11    10    12    1
   12    10    13    1
   13    13    14    1
   14    13    15    1
   15    13    16    1
@<TRIPOS>SUBSTRUCTURE
       1 MOL1            1 RESIDUE      1      MOL     
@<SCITEGIC>MOL_PROPERTY
VConf Rank
SciTegic.value.IntegerValue
578

@<SCITEGIC>MOL_PROPERTY
Conf_Id
SciTegic.value.IntegerValue
39

@<SCITEGIC>MOL_PROPERTY
Delta U+W
SciTegic.value.DoubleValue
1.129

@<SCITEGIC>MOL_PROPERTY
U+W
SciTegic.value.DoubleValue
-55.775

@<SCITEGIC>MOL_PROPERTY
Grad RMS
SciTegic.value.DoubleValue
0.000000

@<SCITEGIC>MOL_PROPERTY
U
SciTegic.value.DoubleValue
9.718

@<SCITEGIC>MOL_PROPERTY
W
SciTegic.value.DoubleValue
-65.493

@<SCITEGIC>MOL_PROPERTY
W(PB)
SciTegic.value.DoubleValue
-67.361

@<SCITEGIC>MOL_PROPERTY
W(SA)
SciTegic.value.DoubleValue
1.869

@<SCITEGIC>MOL_PROPERTY
Valence
SciTegic.value.DoubleValue
7.002

@<SCITEGIC>MOL_PROPERTY
Coulomb
SciTegic.value.DoubleValue
2.402

@<SCITEGIC>MOL_PROPERTY
VdW
SciTegic.value.DoubleValue
0.314

@<SCITEGIC>MOL_PROPERTY
VdW6
SciTegic.value.DoubleValue
-5.861

@<SCITEGIC>MOL_PROPERTY
VdW12
SciTegic.value.DoubleValue
6.175

@<SCITEGIC>MOL_PROPERTY
Bond
SciTegic.value.DoubleValue
0.134

@<SCITEGIC>MOL_PROPERTY
Angle
SciTegic.value.DoubleValue
2.734

@<SCITEGIC>MOL_PROPERTY
Pdih
SciTegic.value.DoubleValue
4.133

@<SCITEGIC>MOL_PROPERTY
Idih
SciTegic.value.DoubleValue
0.002

@<SCITEGIC>MOL_PROPERTY
Tether
SciTegic.value.DoubleValue
0.000

@<TRIPOS>MOLECULE
guest-s18_confgen4.mol2 : confsearch ligand conformer 579
          16          15           1
SMALL
USER_CHARGES
 
@<TRIPOS>ATOM
       1    C1      20.444708   18.414162   24.069289 C.2        1 MOL1         0.6075
       2    O1      19.556792   17.764857   24.585842 O.co2      1 MOL1        -0.6830
       3    O2      21.047549   19.298876   24.644635 O.co2      1 MOL1        -0.6830
       4    C2      20.884736   18.037271   22.655788 C.3        1 MOL1        -0.2050
       5    H1      20.296755   17.175670   22.316819 H          1 MOL1         0.0710
       6    H2      21.923216   17.695510   22.736468 H          1 MOL1         0.0710
       7    C3      20.810812   19.184226   21.608881 C.3        1 MOL1        -0.1947
       8    H3      21.223016   20.108752   22.036525 H          1 MOL1         0.0712
       9    H4      21.467984   18.919804   20.769443 H          1 MOL1         0.0712
      10    C4      19.397115   19.447721   21.036523 C.3        1 MOL1        -0.1921
      11    H5      18.987823   18.520729   20.611792 H          1 MOL1         0.0712
      12    H6      19.487048   20.156139   20.201449 H          1 MOL1         0.0712
      13    C5      18.405713   20.028998   22.065856 C.3        1 MOL1        -0.2936
      14    H7      18.153493   19.291889   22.837902 H          1 MOL1         0.0724
      15    H8      17.470163   20.324164   21.573523 H          1 MOL1         0.0724
      16    H9      18.824365   20.916051   22.559006 H          1 MOL1         0.0724
@<TRIPOS>BOND
    1     1     2    1
    2     1     3    2
    3     1     4    1
    4     4     5    1
    5     4     6    1
    6     4     7    1
    7     7     8    1
    8     7     9    1
    9     7    10    1
   10    10    11    1
   11    10    12    1
   12    10    13    1
   13    13    14    1
   14    13    15    1
   15    13    16    1
@<TRIPOS>SUBSTRUCTURE
       1 MOL1            1 RESIDUE      1      MOL     
@<SCITEGIC>MOL_PROPERTY
VConf Rank
SciTegic.value.IntegerValue
579

@<SCITEGIC>MOL_PROPERTY
Conf_Id
SciTegic.value.IntegerValue
47

@<SCITEGIC>MOL_PROPERTY
Delta U+W
SciTegic.value.DoubleValue
2.301

@<SCITEGIC>MOL_PROPERTY
U+W
SciTegic.value.DoubleValue
-54.603

@<SCITEGIC>MOL_PROPERTY
Grad RMS
SciTegic.value.DoubleValue
0.000000

@<SCITEGIC>MOL_PROPERTY
U
SciTegic.value.DoubleValue
11.258

@<SCITEGIC>MOL_PROPERTY
W
SciTegic.value.DoubleValue
-65.861

@<SCITEGIC>MOL_PROPERTY
W(PB)
SciTegic.value.DoubleValue
-67.702

@<SCITEGIC>MOL_PROPERTY
W(SA)
SciTegic.value.DoubleValue
1.841

@<SCITEGIC>MOL_PROPERTY
Valence
SciTegic.value.DoubleValue
8.169

@<SCITEGIC>MOL_PROPERTY
Coulomb
SciTegic.value.DoubleValue
2.735

@<SCITEGIC>MOL_PROPERTY
VdW
SciTegic.value.DoubleValue
0.355

@<SCITEGIC>MOL_PROPERTY
VdW6
SciTegic.value.DoubleValue
-6.245

@<SCITEGIC>MOL_PROPERTY
VdW12
SciTegic.value.DoubleValue
6.600

@<SCITEGIC>MOL_PROPERTY
Bond
SciTegic.value.DoubleValue
0.149

@<SCITEGIC>MOL_PROPERTY
Angle
SciTegic.value.DoubleValue
3.168

@<SCITEGIC>MOL_PROPERTY
Pdih
SciTegic.value.DoubleValue
4.840

@<SCITEGIC>MOL_PROPERTY
Idih
SciTegic.value.DoubleValue
0.011

@<SCITEGIC>MOL_PROPERTY
Tether
SciTegic.value.DoubleValue
0.000

@<TRIPOS>MOLECULE
guest-s18_confgen4.mol2 : confsearch ligand conformer 580
          16          15           1
SMALL
USER_CHARGES
 
@<TRIPOS>ATOM
       1    C1      21.715547   19.153398   21.493056 C.2        1 MOL1         0.6075
       2    O1      21.673078   19.718719   20.417991 O.co2      1 MOL1        -0.6830
       3    O2      22.290725   18.097788   21.671032 O.co2      1 MOL1        -0.6830
       4    C2      21.091967   19.847654   22.702529 C.3        1 MOL1        -0.2050
       5    H1      21.636688   20.790072   22.832437 H          1 MOL1         0.0710
       6    H2      21.287372   19.246660   23.598967 H          1 MOL1         0.0710
       7    C3      19.572830   20.155324   22.581908 C.3        1 MOL1        -0.1947
       8    H3      19.328480   20.945110   23.305084 H          1 MOL1         0.0712
       9    H4      19.353215   20.574445   21.590118 H          1 MOL1         0.0712
      10    C4      18.644002   18.950555   22.867167 C.3        1 MOL1        -0.1921
      11    H5      17.608000   19.313817   22.912282 H          1 MOL1         0.0712
      12    H6      18.867948   18.533355   23.858643 H          1 MOL1         0.0712
      13    C5      18.724888   17.835111   21.804376 C.3        1 MOL1        -0.2936
      14    H7      17.949833   17.078505   21.982161 H          1 MOL1         0.0724
      15    H8      19.695690   17.325495   21.833261 H          1 MOL1         0.0724
      16    H9      18.577893   18.241007   20.794935 H          1 MOL1         0.0724
@<TRIPOS>BOND
    1     1     2    1
    2     1     3    2
    3     1     4    1
    4     4     5    1
    5     4     6    1
    6     4     7    1
    7     7     8    1
    8     7     9    1
    9     7    10    1
   10    10    11    1
   11    10    12    1
   12    10    13    1
   13    13    14    1
   14    13    15    1
   15    13    16    1
@<TRIPOS>SUBSTRUCTURE
       1 MOL1            1 RESIDUE      1      MOL     
@<SCITEGIC>MOL_PROPERTY
VConf Rank
SciTegic.value.IntegerValue
580

@<SCITEGIC>MOL_PROPERTY
Conf_Id
SciTegic.value.IntegerValue
45

@<SCITEGIC>MOL_PROPERTY
Delta U+W
SciTegic.value.DoubleValue
2.303

@<SCITEGIC>MOL_PROPERTY
U+W
SciTegic.value.DoubleValue
-54.601

@<SCITEGIC>MOL_PROPERTY
Grad RMS
SciTegic.value.DoubleValue
0.000000

@<SCITEGIC>MOL_PROPERTY
U
SciTegic.value.DoubleValue
11.258

@<SCITEGIC>MOL_PROPERTY
W
SciTegic.value.DoubleValue
-65.860

@<SCITEGIC>MOL_PROPERTY
W(PB)
SciTegic.value.DoubleValue
-67.709

@<SCITEGIC>MOL_PROPERTY
W(SA)
SciTegic.value.DoubleValue
1.849

@<SCITEGIC>MOL_PROPERTY
Valence
SciTegic.value.DoubleValue
8.169

@<SCITEGIC>MOL_PROPERTY
Coulomb
SciTegic.value.DoubleValue
2.735

@<SCITEGIC>MOL_PROPERTY
VdW
SciTegic.value.DoubleValue
0.355

@<SCITEGIC>MOL_PROPERTY
VdW6
SciTegic.value.DoubleValue
-6.245

@<SCITEGIC>MOL_PROPERTY
VdW12
SciTegic.value.DoubleValue
6.600

@<SCITEGIC>MOL_PROPERTY
Bond
SciTegic.value.DoubleValue
0.149

@<SCITEGIC>MOL_PROPERTY
Angle
SciTegic.value.DoubleValue
3.168

@<SCITEGIC>MOL_PROPERTY
Pdih
SciTegic.value.DoubleValue
4.840

@<SCITEGIC>MOL_PROPERTY
Idih
SciTegic.value.DoubleValue
0.011

@<SCITEGIC>MOL_PROPERTY
Tether
SciTegic.value.DoubleValue
0.000

@<TRIPOS>MOLECULE
guest-s18_confgen4.mol2 : confsearch ligand conformer 581
          16          15           1
SMALL
USER_CHARGES
 
@<TRIPOS>ATOM
       1    C1      18.411913   20.496913   20.138088 C.2        1 MOL1         0.6075
       2    O1      19.301439   20.655947   19.324929 O.co2      1 MOL1        -0.6830
       3    O2      17.281549   20.909310   19.972200 O.co2      1 MOL1        -0.6830
       4    C2      18.697603   19.747197   21.440471 C.3        1 MOL1        -0.2050
       5    H1      18.003105   18.900191   21.489597 H          1 MOL1         0.0710
       6    H2      18.442252   20.419667   22.267964 H          1 MOL1         0.0710
       7    C3      20.154613   19.240022   21.608523 C.3        1 MOL1        -0.1947
       8    H3      20.406482   18.571198   20.773834 H          1 MOL1         0.0712
       9    H4      20.846073   20.092239   21.553019 H          1 MOL1         0.0712
      10    C4      20.352599   18.497332   22.946608 C.3        1 MOL1        -0.1921
      11    H5      19.662869   17.643732   23.002638 H          1 MOL1         0.0712
      12    H6      20.102725   19.165676   23.782299 H          1 MOL1         0.0712
      13    C5      21.801386   17.996114   23.107656 C.3        1 MOL1        -0.2936
      14    H7      22.068129   17.300290   22.301339 H          1 MOL1         0.0724
      15    H8      21.924955   17.470694   24.063588 H          1 MOL1         0.0724
      16    H9      22.511235   18.833459   23.086754 H          1 MOL1         0.0724
@<TRIPOS>BOND
    1     1     2    1
    2     1     3    2
    3     1     4    1
    4     4     5    1
    5     4     6    1
    6     4     7    1
    7     7     8    1
    8     7     9    1
    9     7    10    1
   10    10    11    1
   11    10    12    1
   12    10    13    1
   13    13    14    1
   14    13    15    1
   15    13    16    1
@<TRIPOS>SUBSTRUCTURE
       1 MOL1            1 RESIDUE      1      MOL     
@<SCITEGIC>MOL_PROPERTY
VConf Rank
SciTegic.value.IntegerValue
581

@<SCITEGIC>MOL_PROPERTY
Conf_Id
SciTegic.value.IntegerValue
0

@<SCITEGIC>MOL_PROPERTY
Delta U+W
SciTegic.value.DoubleValue
0.000

@<SCITEGIC>MOL_PROPERTY
U+W
SciTegic.value.DoubleValue
-56.904

@<SCITEGIC>MOL_PROPERTY
Grad RMS
SciTegic.value.DoubleValue
0.000000

@<SCITEGIC>MOL_PROPERTY
U
SciTegic.value.DoubleValue
7.329

@<SCITEGIC>MOL_PROPERTY
W
SciTegic.value.DoubleValue
-64.233

@<SCITEGIC>MOL_PROPERTY
W(PB)
SciTegic.value.DoubleValue
-66.148

@<SCITEGIC>MOL_PROPERTY
W(SA)
SciTegic.value.DoubleValue
1.915

@<SCITEGIC>MOL_PROPERTY
Valence
SciTegic.value.DoubleValue
6.755

@<SCITEGIC>MOL_PROPERTY
Coulomb
SciTegic.value.DoubleValue
-0.421

@<SCITEGIC>MOL_PROPERTY
VdW
SciTegic.value.DoubleValue
0.995

@<SCITEGIC>MOL_PROPERTY
VdW6
SciTegic.value.DoubleValue
-4.495

@<SCITEGIC>MOL_PROPERTY
VdW12
SciTegic.value.DoubleValue
5.490

@<SCITEGIC>MOL_PROPERTY
Bond
SciTegic.value.DoubleValue
0.106

@<SCITEGIC>MOL_PROPERTY
Angle
SciTegic.value.DoubleValue
2.715

@<SCITEGIC>MOL_PROPERTY
Pdih
SciTegic.value.DoubleValue
3.934

@<SCITEGIC>MOL_PROPERTY
Idih
SciTegic.value.DoubleValue
0.000

@<SCITEGIC>MOL_PROPERTY
Tether
SciTegic.value.DoubleValue
0.000

@<TRIPOS>MOLECULE
guest-s18_confgen4.mol2 : confsearch ligand conformer 582
          16          15           1
SMALL
USER_CHARGES
 
@<TRIPOS>ATOM
       1    C1      22.228172   18.626250   20.386234 C.2        1 MOL1         0.6075
       2    O1      23.270074   18.503212   20.998724 O.co2      1 MOL1        -0.6830
       3    O2      21.991339   18.053679   19.341285 O.co2      1 MOL1        -0.6830
       4    C2      21.151950   19.534748   20.970151 C.3        1 MOL1        -0.2050
       5    H1      20.595306   19.982551   20.138003 H          1 MOL1         0.0710
       6    H2      21.649531   20.353081   21.504561 H          1 MOL1         0.0710
       7    C3      20.183164   18.788153   21.919946 C.3        1 MOL1        -0.1947
       8    H3      19.702299   17.964585   21.374003 H          1 MOL1         0.0712
       9    H4      20.756579   18.335069   22.740593 H          1 MOL1         0.0712
      10    C4      19.105114   19.729442   22.496438 C.3        1 MOL1        -0.1921
      11    H5      18.531020   20.182211   21.676100 H          1 MOL1         0.0712
      12    H6      19.585576   20.552818   23.043015 H          1 MOL1         0.0712
      13    C5      18.144685   18.979706   23.440670 C.3        1 MOL1        -0.2936
      14    H7      18.688745   18.542724   24.288323 H          1 MOL1         0.0724
      15    H8      17.626418   18.169364   22.911315 H          1 MOL1         0.0724
      16    H9      17.384772   19.662999   23.841661 H          1 MOL1         0.0724
@<TRIPOS>BOND
    1     1     2    1
    2     1     3    2
    3     1     4    1
    4     4     5    1
    5     4     6    1
    6     4     7    1
    7     7     8    1
    8     7     9    1
    9     7    10    1
   10    10    11    1
   11    10    12    1
   12    10    13    1
   13    13    14    1
   14    13    15    1
   15    13    16    1
@<TRIPOS>SUBSTRUCTURE
       1 MOL1            1 RESIDUE      1      MOL     
@<SCITEGIC>MOL_PROPERTY
VConf Rank
SciTegic.value.IntegerValue
582

@<SCITEGIC>MOL_PROPERTY
Conf_Id
SciTegic.value.IntegerValue
22

@<SCITEGIC>MOL_PROPERTY
Delta U+W
SciTegic.value.DoubleValue
-1.185

@<SCITEGIC>MOL_PROPERTY
U+W
SciTegic.value.DoubleValue
-58.089

@<SCITEGIC>MOL_PROPERTY
Grad RMS
SciTegic.value.DoubleValue
0.000000

@<SCITEGIC>MOL_PROPERTY
U
SciTegic.value.DoubleValue
6.298

@<SCITEGIC>MOL_PROPERTY
W
SciTegic.value.DoubleValue
-64.387

@<SCITEGIC>MOL_PROPERTY
W(PB)
SciTegic.value.DoubleValue
-66.329

@<SCITEGIC>MOL_PROPERTY
W(SA)
SciTegic.value.DoubleValue
1.942

@<SCITEGIC>MOL_PROPERTY
Valence
SciTegic.value.DoubleValue
6.246

@<SCITEGIC>MOL_PROPERTY
Coulomb
SciTegic.value.DoubleValue
-0.408

@<SCITEGIC>MOL_PROPERTY
VdW
SciTegic.value.DoubleValue
0.460

@<SCITEGIC>MOL_PROPERTY
VdW6
SciTegic.value.DoubleValue
-4.207

@<SCITEGIC>MOL_PROPERTY
VdW12
SciTegic.value.DoubleValue
4.667

@<SCITEGIC>MOL_PROPERTY
Bond
SciTegic.value.DoubleValue
0.072

@<SCITEGIC>MOL_PROPERTY
Angle
SciTegic.value.DoubleValue
2.246

@<SCITEGIC>MOL_PROPERTY
Pdih
SciTegic.value.DoubleValue
3.928

@<SCITEGIC>MOL_PROPERTY
Idih
SciTegic.value.DoubleValue
0.001

@<SCITEGIC>MOL_PROPERTY
Tether
SciTegic.value.DoubleValue
0.000

@<TRIPOS>MOLECULE
guest-s18_confgen4.mol2 : confsearch ligand conformer 583
          16          15           1
SMALL
USER_CHARGES
 
@<TRIPOS>ATOM
       1    C1      19.307988   17.242458   23.615685 C.2        1 MOL1         0.6075
       2    O1      19.544849   17.293996   24.806162 O.co2      1 MOL1        -0.6830
       3    O2      19.096405   16.206508   23.017356 O.co2      1 MOL1        -0.6830
       4    C2      19.295543   18.546870   22.826429 C.3        1 MOL1        -0.2050
       5    H1      18.938957   19.343315   23.490573 H          1 MOL1         0.0710
       6    H2      18.560784   18.442759   22.019952 H          1 MOL1         0.0710
       7    C3      20.687893   18.914558   22.250964 C.3        1 MOL1        -0.1947
       8    H3      21.417790   18.925636   23.072278 H          1 MOL1         0.0712
       9    H4      21.015528   18.130211   21.554714 H          1 MOL1         0.0712
      10    C4      20.717450   20.288038   21.541678 C.3        1 MOL1        -0.1921
      11    H5      21.754808   20.519312   21.262913 H          1 MOL1         0.0712
      12    H6      20.401106   21.074110   22.241247 H          1 MOL1         0.0712
      13    C5      19.838558   20.337231   20.273583 C.3        1 MOL1        -0.2936
      14    H7      18.775041   20.223894   20.518262 H          1 MOL1         0.0724
      15    H8      20.117666   19.541170   19.570992 H          1 MOL1         0.0724
      16    H9      19.960352   21.299505   19.759577 H          1 MOL1         0.0724
@<TRIPOS>BOND
    1     1     2    1
    2     1     3    2
    3     1     4    1
    4     4     5    1
    5     4     6    1
    6     4     7    1
    7     7     8    1
    8     7     9    1
    9     7    10    1
   10    10    11    1
   11    10    12    1
   12    10    13    1
   13    13    14    1
   14    13    15    1
   15    13    16    1
@<TRIPOS>SUBSTRUCTURE
       1 MOL1            1 RESIDUE      1      MOL     
@<SCITEGIC>MOL_PROPERTY
VConf Rank
SciTegic.value.IntegerValue
583

@<SCITEGIC>MOL_PROPERTY
Conf_Id
SciTegic.value.IntegerValue
36

@<SCITEGIC>MOL_PROPERTY
Delta U+W
SciTegic.value.DoubleValue
-0.427

@<SCITEGIC>MOL_PROPERTY
U+W
SciTegic.value.DoubleValue
-57.331

@<SCITEGIC>MOL_PROPERTY
Grad RMS
SciTegic.value.DoubleValue
0.000000

@<SCITEGIC>MOL_PROPERTY
U
SciTegic.value.DoubleValue
7.263

@<SCITEGIC>MOL_PROPERTY
W
SciTegic.value.DoubleValue
-64.594

@<SCITEGIC>MOL_PROPERTY
W(PB)
SciTegic.value.DoubleValue
-66.513

@<SCITEGIC>MOL_PROPERTY
W(SA)
SciTegic.value.DoubleValue
1.920

@<SCITEGIC>MOL_PROPERTY
Valence
SciTegic.value.DoubleValue
6.734

@<SCITEGIC>MOL_PROPERTY
Coulomb
SciTegic.value.DoubleValue
-0.068

@<SCITEGIC>MOL_PROPERTY
VdW
SciTegic.value.DoubleValue
0.598

@<SCITEGIC>MOL_PROPERTY
VdW6
SciTegic.value.DoubleValue
-4.819

@<SCITEGIC>MOL_PROPERTY
VdW12
SciTegic.value.DoubleValue
5.417

@<SCITEGIC>MOL_PROPERTY
Bond
SciTegic.value.DoubleValue
0.107

@<SCITEGIC>MOL_PROPERTY
Angle
SciTegic.value.DoubleValue
2.469

@<SCITEGIC>MOL_PROPERTY
Pdih
SciTegic.value.DoubleValue
4.157

@<SCITEGIC>MOL_PROPERTY
Idih
SciTegic.value.DoubleValue
0.001

@<SCITEGIC>MOL_PROPERTY
Tether
SciTegic.value.DoubleValue
0.000

@<TRIPOS>MOLECULE
guest-s18_confgen4.mol2 : confsearch ligand conformer 584
          16          15           1
SMALL
USER_CHARGES
 
@<TRIPOS>ATOM
       1    C1      21.143213   19.473999   24.269551 C.2        1 MOL1         0.6075
       2    O1      20.336254   19.546635   25.174812 O.co2      1 MOL1        -0.6830
       3    O2      22.288837   19.868627   24.357929 O.co2      1 MOL1        -0.6830
       4    C2      20.688274   18.873474   22.944043 C.3        1 MOL1        -0.2050
       5    H1      19.942731   18.101209   23.165153 H          1 MOL1         0.0710
       6    H2      21.548620   18.372821   22.483915 H          1 MOL1         0.0710
       7    C3      20.104399   19.932515   21.973210 C.3        1 MOL1        -0.1947
       8    H3      19.218127   20.396904   22.427274 H          1 MOL1         0.0712
       9    H4      20.842677   20.735577   21.841049 H          1 MOL1         0.0712
      10    C4      19.739915   19.359424   20.584280 C.3        1 MOL1        -0.1921
      11    H5      20.628888   18.905354   20.125012 H          1 MOL1         0.0712
      12    H6      19.440053   20.188037   19.927933 H          1 MOL1         0.0712
      13    C5      18.595445   18.324705   20.634029 C.3        1 MOL1        -0.2936
      14    H7      18.892289   17.424868   21.187164 H          1 MOL1         0.0724
      15    H8      18.315376   18.013462   19.619289 H          1 MOL1         0.0724
      16    H9      17.704191   18.747526   21.115838 H          1 MOL1         0.0724
@<TRIPOS>BOND
    1     1     2    1
    2     1     3    2
    3     1     4    1
    4     4     5    1
    5     4     6    1
    6     4     7    1
    7     7     8    1
    8     7     9    1
    9     7    10    1
   10    10    11    1
   11    10    12    1
   12    10    13    1
   13    13    14    1
   14    13    15    1
   15    13    16    1
@<TRIPOS>SUBSTRUCTURE
       1 MOL1            1 RESIDUE      1      MOL     
@<SCITEGIC>MOL_PROPERTY
VConf Rank
SciTegic.value.IntegerValue
584

@<SCITEGIC>MOL_PROPERTY
Conf_Id
SciTegic.value.IntegerValue
17

@<SCITEGIC>MOL_PROPERTY
Delta U+W
SciTegic.value.DoubleValue
-0.432

@<SCITEGIC>MOL_PROPERTY
U+W
SciTegic.value.DoubleValue
-57.336

@<SCITEGIC>MOL_PROPERTY
Grad RMS
SciTegic.value.DoubleValue
0.000000

@<SCITEGIC>MOL_PROPERTY
U
SciTegic.value.DoubleValue
7.263

@<SCITEGIC>MOL_PROPERTY
W
SciTegic.value.DoubleValue
-64.599

@<SCITEGIC>MOL_PROPERTY
W(PB)
SciTegic.value.DoubleValue
-66.503

@<SCITEGIC>MOL_PROPERTY
W(SA)
SciTegic.value.DoubleValue
1.904

@<SCITEGIC>MOL_PROPERTY
Valence
SciTegic.value.DoubleValue
6.734

@<SCITEGIC>MOL_PROPERTY
Coulomb
SciTegic.value.DoubleValue
-0.068

@<SCITEGIC>MOL_PROPERTY
VdW
SciTegic.value.DoubleValue
0.598

@<SCITEGIC>MOL_PROPERTY
VdW6
SciTegic.value.DoubleValue
-4.819

@<SCITEGIC>MOL_PROPERTY
VdW12
SciTegic.value.DoubleValue
5.417

@<SCITEGIC>MOL_PROPERTY
Bond
SciTegic.value.DoubleValue
0.107

@<SCITEGIC>MOL_PROPERTY
Angle
SciTegic.value.DoubleValue
2.469

@<SCITEGIC>MOL_PROPERTY
Pdih
SciTegic.value.DoubleValue
4.157

@<SCITEGIC>MOL_PROPERTY
Idih
SciTegic.value.DoubleValue
0.001

@<SCITEGIC>MOL_PROPERTY
Tether
SciTegic.value.DoubleValue
0.000

@<TRIPOS>MOLECULE
guest-s18_confgen4.mol2 : confsearch ligand conformer 585
          16          15           1
SMALL
USER_CHARGES
 
@<TRIPOS>ATOM
       1    C1      19.961663   18.160679   19.940220 C.2        1 MOL1         0.6075
       2    O1      21.028335   18.047496   19.369481 O.co2      1 MOL1        -0.6830
       3    O2      19.152956   17.259000   20.036287 O.co2      1 MOL1        -0.6830
       4    C2      19.610549   19.516177   20.547538 C.3        1 MOL1        -0.2050
       5    H1      18.525576   19.560555   20.702293 H          1 MOL1         0.0710
       6    H2      19.856132   20.282850   19.803136 H          1 MOL1         0.0710
       7    C3      20.353008   19.826218   21.873307 C.3        1 MOL1        -0.1947
       8    H3      21.437056   19.750069   21.710013 H          1 MOL1         0.0712
       9    H4      20.148942   20.866415   22.161239 H          1 MOL1         0.0712
      10    C4      19.930322   18.887604   23.024187 C.3        1 MOL1        -0.1921
      11    H5      20.148912   17.844679   22.755396 H          1 MOL1         0.0712
      12    H6      18.844460   18.955542   23.178019 H          1 MOL1         0.0712
      13    C5      20.657410   19.238733   24.337349 C.3        1 MOL1        -0.2936
      14    H7      21.745300   19.148673   24.219730 H          1 MOL1         0.0724
      15    H8      20.346555   18.562284   25.144134 H          1 MOL1         0.0724
      16    H9      20.429925   20.266308   24.650010 H          1 MOL1         0.0724
@<TRIPOS>BOND
    1     1     2    1
    2     1     3    2
    3     1     4    1
    4     4     5    1
    5     4     6    1
    6     4     7    1
    7     7     8    1
    8     7     9    1
    9     7    10    1
   10    10    11    1
   11    10    12    1
   12    10    13    1
   13    13    14    1
   14    13    15    1
   15    13    16    1
@<TRIPOS>SUBSTRUCTURE
       1 MOL1            1 RESIDUE      1      MOL     
@<SCITEGIC>MOL_PROPERTY
VConf Rank
SciTegic.value.IntegerValue
585

@<SCITEGIC>MOL_PROPERTY
Conf_Id
SciTegic.value.IntegerValue
19

@<SCITEGIC>MOL_PROPERTY
Delta U+W
SciTegic.value.DoubleValue
0.048

@<SCITEGIC>MOL_PROPERTY
U+W
SciTegic.value.DoubleValue
-56.856

@<SCITEGIC>MOL_PROPERTY
Grad RMS
SciTegic.value.DoubleValue
0.000000

@<SCITEGIC>MOL_PROPERTY
U
SciTegic.value.DoubleValue
8.276

@<SCITEGIC>MOL_PROPERTY
W
SciTegic.value.DoubleValue
-65.132

@<SCITEGIC>MOL_PROPERTY
W(PB)
SciTegic.value.DoubleValue
-67.031

@<SCITEGIC>MOL_PROPERTY
W(SA)
SciTegic.value.DoubleValue
1.899

@<SCITEGIC>MOL_PROPERTY
Valence
SciTegic.value.DoubleValue
6.513

@<SCITEGIC>MOL_PROPERTY
Coulomb
SciTegic.value.DoubleValue
1.428

@<SCITEGIC>MOL_PROPERTY
VdW
SciTegic.value.DoubleValue
0.335

@<SCITEGIC>MOL_PROPERTY
VdW6
SciTegic.value.DoubleValue
-5.021

@<SCITEGIC>MOL_PROPERTY
VdW12
SciTegic.value.DoubleValue
5.356

@<SCITEGIC>MOL_PROPERTY
Bond
SciTegic.value.DoubleValue
0.092

@<SCITEGIC>MOL_PROPERTY
Angle
SciTegic.value.DoubleValue
2.417

@<SCITEGIC>MOL_PROPERTY
Pdih
SciTegic.value.DoubleValue
4.003

@<SCITEGIC>MOL_PROPERTY
Idih
SciTegic.value.DoubleValue
0.001

@<SCITEGIC>MOL_PROPERTY
Tether
SciTegic.value.DoubleValue
0.000

@<TRIPOS>MOLECULE
guest-s18_confgen4.mol2 : confsearch ligand conformer 586
          16          15           1
SMALL
USER_CHARGES
 
@<TRIPOS>ATOM
       1    C1      18.653362   17.365030   21.135189 C.2        1 MOL1         0.6075
       2    O1      17.900894   16.816515   21.915744 O.co2      1 MOL1        -0.6830
       3    O2      19.432984   16.766098   20.421234 O.co2      1 MOL1        -0.6830
       4    C2      18.598033   18.886714   21.030726 C.3        1 MOL1        -0.2050
       5    H1      17.541017   19.174116   20.982214 H          1 MOL1         0.0710
       6    H2      19.052912   19.189609   20.079713 H          1 MOL1         0.0710
       7    C3      19.281345   19.626533   22.210047 C.3        1 MOL1        -0.1947
       8    H3      19.073345   20.701716   22.124751 H          1 MOL1         0.0712
       9    H4      18.835291   19.292222   23.157092 H          1 MOL1         0.0712
      10    C4      20.809087   19.405188   22.244681 C.3        1 MOL1        -0.1921
      11    H5      21.252084   19.728401   21.292491 H          1 MOL1         0.0712
      12    H6      21.029236   18.333714   22.350515 H          1 MOL1         0.0712
      13    C5      21.467060   20.177845   23.405036 C.3        1 MOL1        -0.2936
      14    H7      21.292893   21.257430   23.307169 H          1 MOL1         0.0724
      15    H8      22.551740   20.009115   23.415883 H          1 MOL1         0.0724
      16    H9      21.063515   19.851430   24.372535 H          1 MOL1         0.0724
@<TRIPOS>BOND
    1     1     2    1
    2     1     3    2
    3     1     4    1
    4     4     5    1
    5     4     6    1
    6     4     7    1
    7     7     8    1
    8     7     9    1
    9     7    10    1
   10    10    11    1
   11    10    12    1
   12    10    13    1
   13    13    14    1
   14    13    15    1
   15    13    16    1
@<TRIPOS>SUBSTRUCTURE
       1 MOL1            1 RESIDUE      1      MOL     
@<SCITEGIC>MOL_PROPERTY
VConf Rank
SciTegic.value.IntegerValue
586

@<SCITEGIC>MOL_PROPERTY
Conf_Id
SciTegic.value.IntegerValue
20

@<SCITEGIC>MOL_PROPERTY
Delta U+W
SciTegic.value.DoubleValue
-0.010

@<SCITEGIC>MOL_PROPERTY
U+W
SciTegic.value.DoubleValue
-56.914

@<SCITEGIC>MOL_PROPERTY
Grad RMS
SciTegic.value.DoubleValue
0.000000

@<SCITEGIC>MOL_PROPERTY
U
SciTegic.value.DoubleValue
8.277

@<SCITEGIC>MOL_PROPERTY
W
SciTegic.value.DoubleValue
-65.191

@<SCITEGIC>MOL_PROPERTY
W(PB)
SciTegic.value.DoubleValue
-67.081

@<SCITEGIC>MOL_PROPERTY
W(SA)
SciTegic.value.DoubleValue
1.890

@<SCITEGIC>MOL_PROPERTY
Valence
SciTegic.value.DoubleValue
6.513

@<SCITEGIC>MOL_PROPERTY
Coulomb
SciTegic.value.DoubleValue
1.429

@<SCITEGIC>MOL_PROPERTY
VdW
SciTegic.value.DoubleValue
0.335

@<SCITEGIC>MOL_PROPERTY
VdW6
SciTegic.value.DoubleValue
-5.021

@<SCITEGIC>MOL_PROPERTY
VdW12
SciTegic.value.DoubleValue
5.356

@<SCITEGIC>MOL_PROPERTY
Bond
SciTegic.value.DoubleValue
0.092

@<SCITEGIC>MOL_PROPERTY
Angle
SciTegic.value.DoubleValue
2.417

@<SCITEGIC>MOL_PROPERTY
Pdih
SciTegic.value.DoubleValue
4.002

@<SCITEGIC>MOL_PROPERTY
Idih
SciTegic.value.DoubleValue
0.001

@<SCITEGIC>MOL_PROPERTY
Tether
SciTegic.value.DoubleValue
0.000

@<TRIPOS>MOLECULE
guest-s18_confgen4.mol2 : confsearch ligand conformer 587
          16          15           1
SMALL
USER_CHARGES
 
@<TRIPOS>ATOM
       1    C1      17.926743   19.298192   21.250996 C.2        1 MOL1         0.6075
       2    O1      17.671336   20.075722   20.352665 O.co2      1 MOL1        -0.6830
       3    O2      17.209286   19.131444   22.217304 O.co2      1 MOL1        -0.6830
       4    C2      19.199795   18.463451   21.140124 C.3        1 MOL1        -0.2050
       5    H1      19.201231   18.002625   20.145379 H          1 MOL1         0.0710
       6    H2      19.145460   17.641101   21.862645 H          1 MOL1         0.0710
       7    C3      20.510708   19.274426   21.331188 C.3        1 MOL1        -0.1947
       8    H3      21.371134   18.614585   21.156120 H          1 MOL1         0.0712
       9    H4      20.558656   20.054513   20.558840 H          1 MOL1         0.0712
      10    C4      20.653065   19.938293   22.721513 C.3        1 MOL1        -0.1921
      11    H5      19.815443   20.628247   22.894580 H          1 MOL1         0.0712
      12    H6      21.564792   20.551354   22.727641 H          1 MOL1         0.0712
      13    C5      20.730808   18.918742   23.877763 C.3        1 MOL1        -0.2936
      14    H7      19.788216   18.367122   23.986034 H          1 MOL1         0.0724
      15    H8      20.926051   19.431282   24.828575 H          1 MOL1         0.0724
      16    H9      21.538877   18.194648   23.711092 H          1 MOL1         0.0724
@<TRIPOS>BOND
    1     1     2    1
    2     1     3    2
    3     1     4    1
    4     4     5    1
    5     4     6    1
    6     4     7    1
    7     7     8    1
    8     7     9    1
    9     7    10    1
   10    10    11    1
   11    10    12    1
   12    10    13    1
   13    13    14    1
   14    13    15    1
   15    13    16    1
@<TRIPOS>SUBSTRUCTURE
       1 MOL1            1 RESIDUE      1      MOL     
@<SCITEGIC>MOL_PROPERTY
VConf Rank
SciTegic.value.IntegerValue
587

@<SCITEGIC>MOL_PROPERTY
Conf_Id
SciTegic.value.IntegerValue
37

@<SCITEGIC>MOL_PROPERTY
Delta U+W
SciTegic.value.DoubleValue
1.063

@<SCITEGIC>MOL_PROPERTY
U+W
SciTegic.value.DoubleValue
-55.841

@<SCITEGIC>MOL_PROPERTY
Grad RMS
SciTegic.value.DoubleValue
0.000000

@<SCITEGIC>MOL_PROPERTY
U
SciTegic.value.DoubleValue
9.719

@<SCITEGIC>MOL_PROPERTY
W
SciTegic.value.DoubleValue
-65.560

@<SCITEGIC>MOL_PROPERTY
W(PB)
SciTegic.value.DoubleValue
-67.414

@<SCITEGIC>MOL_PROPERTY
W(SA)
SciTegic.value.DoubleValue
1.854

@<SCITEGIC>MOL_PROPERTY
Valence
SciTegic.value.DoubleValue
7.002

@<SCITEGIC>MOL_PROPERTY
Coulomb
SciTegic.value.DoubleValue
2.402

@<SCITEGIC>MOL_PROPERTY
VdW
SciTegic.value.DoubleValue
0.314

@<SCITEGIC>MOL_PROPERTY
VdW6
SciTegic.value.DoubleValue
-5.861

@<SCITEGIC>MOL_PROPERTY
VdW12
SciTegic.value.DoubleValue
6.175

@<SCITEGIC>MOL_PROPERTY
Bond
SciTegic.value.DoubleValue
0.134

@<SCITEGIC>MOL_PROPERTY
Angle
SciTegic.value.DoubleValue
2.733

@<SCITEGIC>MOL_PROPERTY
Pdih
SciTegic.value.DoubleValue
4.133

@<SCITEGIC>MOL_PROPERTY
Idih
SciTegic.value.DoubleValue
0.002

@<SCITEGIC>MOL_PROPERTY
Tether
SciTegic.value.DoubleValue
0.000

@<TRIPOS>MOLECULE
guest-s18_confgen4.mol2 : confsearch ligand conformer 588
          16          15           1
SMALL
USER_CHARGES
 
@<TRIPOS>ATOM
       1    C1      20.572635   21.207188   22.544451 C.2        1 MOL1         0.6075
       2    O1      19.811126   22.108913   22.255003 O.co2      1 MOL1        -0.6830
       3    O2      21.138627   21.126069   23.616539 O.co2      1 MOL1        -0.6830
       4    C2      20.858107   20.140214   21.490971 C.3        1 MOL1        -0.2050
       5    H1      21.746051   19.574181   21.794963 H          1 MOL1         0.0710
       6    H2      21.124854   20.661222   20.563999 H          1 MOL1         0.0710
       7    C3      19.666167   19.182926   21.216093 C.3        1 MOL1        -0.1947
       8    H3      18.811580   19.776182   20.862422 H          1 MOL1         0.0712
       9    H4      19.931290   18.504546   20.393973 H          1 MOL1         0.0712
      10    C4      19.222512   18.348669   22.441318 C.3        1 MOL1        -0.1921
      11    H5      18.328692   17.770628   22.169138 H          1 MOL1         0.0712
      12    H6      18.921078   19.016837   23.260028 H          1 MOL1         0.0712
      13    C5      20.311319   17.375824   22.941831 C.3        1 MOL1        -0.2936
      14    H7      20.655811   16.719473   22.132143 H          1 MOL1         0.0724
      15    H8      19.918551   16.742244   23.747542 H          1 MOL1         0.0724
      16    H9      21.177900   17.919032   23.339886 H          1 MOL1         0.0724
@<TRIPOS>BOND
    1     1     2    1
    2     1     3    2
    3     1     4    1
    4     4     5    1
    5     4     6    1
    6     4     7    1
    7     7     8    1
    8     7     9    1
    9     7    10    1
   10    10    11    1
   11    10    12    1
   12    10    13    1
   13    13    14    1
   14    13    15    1
   15    13    16    1
@<TRIPOS>SUBSTRUCTURE
       1 MOL1            1 RESIDUE      1      MOL     
@<SCITEGIC>MOL_PROPERTY
VConf Rank
SciTegic.value.IntegerValue
588

@<SCITEGIC>MOL_PROPERTY
Conf_Id
SciTegic.value.IntegerValue
39

@<SCITEGIC>MOL_PROPERTY
Delta U+W
SciTegic.value.DoubleValue
1.129

@<SCITEGIC>MOL_PROPERTY
U+W
SciTegic.value.DoubleValue
-55.775

@<SCITEGIC>MOL_PROPERTY
Grad RMS
SciTegic.value.DoubleValue
0.000000

@<SCITEGIC>MOL_PROPERTY
U
SciTegic.value.DoubleValue
9.718

@<SCITEGIC>MOL_PROPERTY
W
SciTegic.value.DoubleValue
-65.493

@<SCITEGIC>MOL_PROPERTY
W(PB)
SciTegic.value.DoubleValue
-67.361

@<SCITEGIC>MOL_PROPERTY
W(SA)
SciTegic.value.DoubleValue
1.869

@<SCITEGIC>MOL_PROPERTY
Valence
SciTegic.value.DoubleValue
7.002

@<SCITEGIC>MOL_PROPERTY
Coulomb
SciTegic.value.DoubleValue
2.402

@<SCITEGIC>MOL_PROPERTY
VdW
SciTegic.value.DoubleValue
0.314

@<SCITEGIC>MOL_PROPERTY
VdW6
SciTegic.value.DoubleValue
-5.861

@<SCITEGIC>MOL_PROPERTY
VdW12
SciTegic.value.DoubleValue
6.175

@<SCITEGIC>MOL_PROPERTY
Bond
SciTegic.value.DoubleValue
0.134

@<SCITEGIC>MOL_PROPERTY
Angle
SciTegic.value.DoubleValue
2.734

@<SCITEGIC>MOL_PROPERTY
Pdih
SciTegic.value.DoubleValue
4.133

@<SCITEGIC>MOL_PROPERTY
Idih
SciTegic.value.DoubleValue
0.002

@<SCITEGIC>MOL_PROPERTY
Tether
SciTegic.value.DoubleValue
0.000

@<TRIPOS>MOLECULE
guest-s18_confgen4.mol2 : confsearch ligand conformer 589
          16          15           1
SMALL
USER_CHARGES
 
@<TRIPOS>ATOM
       1    C1      21.812310   18.867492   22.793556 C.2        1 MOL1         0.6075
       2    O1      22.448189   19.875427   22.555765 O.co2      1 MOL1        -0.6830
       3    O2      22.180788   17.753854   22.475448 O.co2      1 MOL1        -0.6830
       4    C2      20.529807   19.000615   23.612775 C.3        1 MOL1        -0.2050
       5    H1      20.386414   20.054011   23.882545 H          1 MOL1         0.0710
       6    H2      20.704025   18.458371   24.549455 H          1 MOL1         0.0710
       7    C3      19.247702   18.439482   22.935783 C.3        1 MOL1        -0.1947
       8    H3      19.460063   17.459778   22.485645 H          1 MOL1         0.0712
       9    H4      18.502068   18.256407   23.721255 H          1 MOL1         0.0712
      10    C4      18.606315   19.378756   21.886046 C.3        1 MOL1        -0.1921
      11    H5      18.397401   20.357559   22.339402 H          1 MOL1         0.0712
      12    H6      17.633280   18.960173   21.594010 H          1 MOL1         0.0712
      13    C5      19.458810   19.567266   20.614039 C.3        1 MOL1        -0.2936
      14    H7      20.374270   20.132629   20.826868 H          1 MOL1         0.0724
      15    H8      18.896247   20.124546   19.853953 H          1 MOL1         0.0724
      16    H9      19.743601   18.598453   20.183196 H          1 MOL1         0.0724
@<TRIPOS>BOND
    1     1     2    1
    2     1     3    2
    3     1     4    1
    4     4     5    1
    5     4     6    1
    6     4     7    1
    7     7     8    1
    8     7     9    1
    9     7    10    1
   10    10    11    1
   11    10    12    1
   12    10    13    1
   13    13    14    1
   14    13    15    1
   15    13    16    1
@<TRIPOS>SUBSTRUCTURE
       1 MOL1            1 RESIDUE      1      MOL     
@<SCITEGIC>MOL_PROPERTY
VConf Rank
SciTegic.value.IntegerValue
589

@<SCITEGIC>MOL_PROPERTY
Conf_Id
SciTegic.value.IntegerValue
47

@<SCITEGIC>MOL_PROPERTY
Delta U+W
SciTegic.value.DoubleValue
2.301

@<SCITEGIC>MOL_PROPERTY
U+W
SciTegic.value.DoubleValue
-54.603

@<SCITEGIC>MOL_PROPERTY
Grad RMS
SciTegic.value.DoubleValue
0.000000

@<SCITEGIC>MOL_PROPERTY
U
SciTegic.value.DoubleValue
11.258

@<SCITEGIC>MOL_PROPERTY
W
SciTegic.value.DoubleValue
-65.861

@<SCITEGIC>MOL_PROPERTY
W(PB)
SciTegic.value.DoubleValue
-67.702

@<SCITEGIC>MOL_PROPERTY
W(SA)
SciTegic.value.DoubleValue
1.841

@<SCITEGIC>MOL_PROPERTY
Valence
SciTegic.value.DoubleValue
8.169

@<SCITEGIC>MOL_PROPERTY
Coulomb
SciTegic.value.DoubleValue
2.735

@<SCITEGIC>MOL_PROPERTY
VdW
SciTegic.value.DoubleValue
0.355

@<SCITEGIC>MOL_PROPERTY
VdW6
SciTegic.value.DoubleValue
-6.245

@<SCITEGIC>MOL_PROPERTY
VdW12
SciTegic.value.DoubleValue
6.600

@<SCITEGIC>MOL_PROPERTY
Bond
SciTegic.value.DoubleValue
0.149

@<SCITEGIC>MOL_PROPERTY
Angle
SciTegic.value.DoubleValue
3.168

@<SCITEGIC>MOL_PROPERTY
Pdih
SciTegic.value.DoubleValue
4.840

@<SCITEGIC>MOL_PROPERTY
Idih
SciTegic.value.DoubleValue
0.011

@<SCITEGIC>MOL_PROPERTY
Tether
SciTegic.value.DoubleValue
0.000

@<TRIPOS>MOLECULE
guest-s18_confgen4.mol2 : confsearch ligand conformer 590
          16          15           1
SMALL
USER_CHARGES
 
@<TRIPOS>ATOM
       1    C1      21.157365   20.301257   21.302100 C.2        1 MOL1         0.6075
       2    O1      22.277896   19.847856   21.428574 O.co2      1 MOL1        -0.6830
       3    O2      20.886725   21.473085   21.476427 O.co2      1 MOL1        -0.6830
       4    C2      20.049606   19.370558   20.811858 C.3        1 MOL1        -0.2050
       5    H1      20.353140   19.026944   19.816094 H          1 MOL1         0.0710
       6    H2      19.129449   19.951738   20.675773 H          1 MOL1         0.0710
       7    C3      19.775613   18.132363   21.711185 C.3        1 MOL1        -0.1947
       8    H3      19.253973   17.380747   21.103387 H          1 MOL1         0.0712
       9    H4      20.726199   17.671025   22.013004 H          1 MOL1         0.0712
      10    C4      18.904299   18.418346   22.958016 C.3        1 MOL1        -0.1921
      11    H5      18.642674   17.459376   23.426229 H          1 MOL1         0.0712
      12    H6      17.955851   18.881119   22.652207 H          1 MOL1         0.0712
      13    C5      19.597576   19.304528   24.013636 C.3        1 MOL1        -0.2936
      14    H7      18.992661   19.356933   24.928022 H          1 MOL1         0.0724
      15    H8      19.732102   20.329917   23.648287 H          1 MOL1         0.0724
      16    H9      20.583025   18.901223   24.281150 H          1 MOL1         0.0724
@<TRIPOS>BOND
    1     1     2    1
    2     1     3    2
    3     1     4    1
    4     4     5    1
    5     4     6    1
    6     4     7    1
    7     7     8    1
    8     7     9    1
    9     7    10    1
   10    10    11    1
   11    10    12    1
   12    10    13    1
   13    13    14    1
   14    13    15    1
   15    13    16    1
@<TRIPOS>SUBSTRUCTURE
       1 MOL1            1 RESIDUE      1      MOL     
@<SCITEGIC>MOL_PROPERTY
VConf Rank
SciTegic.value.IntegerValue
590

@<SCITEGIC>MOL_PROPERTY
Conf_Id
SciTegic.value.IntegerValue
45

@<SCITEGIC>MOL_PROPERTY
Delta U+W
SciTegic.value.DoubleValue
2.303

@<SCITEGIC>MOL_PROPERTY
U+W
SciTegic.value.DoubleValue
-54.601

@<SCITEGIC>MOL_PROPERTY
Grad RMS
SciTegic.value.DoubleValue
0.000000

@<SCITEGIC>MOL_PROPERTY
U
SciTegic.value.DoubleValue
11.258

@<SCITEGIC>MOL_PROPERTY
W
SciTegic.value.DoubleValue
-65.860

@<SCITEGIC>MOL_PROPERTY
W(PB)
SciTegic.value.DoubleValue
-67.709

@<SCITEGIC>MOL_PROPERTY
W(SA)
SciTegic.value.DoubleValue
1.849

@<SCITEGIC>MOL_PROPERTY
Valence
SciTegic.value.DoubleValue
8.169

@<SCITEGIC>MOL_PROPERTY
Coulomb
SciTegic.value.DoubleValue
2.735

@<SCITEGIC>MOL_PROPERTY
VdW
SciTegic.value.DoubleValue
0.355

@<SCITEGIC>MOL_PROPERTY
VdW6
SciTegic.value.DoubleValue
-6.245

@<SCITEGIC>MOL_PROPERTY
VdW12
SciTegic.value.DoubleValue
6.600

@<SCITEGIC>MOL_PROPERTY
Bond
SciTegic.value.DoubleValue
0.149

@<SCITEGIC>MOL_PROPERTY
Angle
SciTegic.value.DoubleValue
3.168

@<SCITEGIC>MOL_PROPERTY
Pdih
SciTegic.value.DoubleValue
4.840

@<SCITEGIC>MOL_PROPERTY
Idih
SciTegic.value.DoubleValue
0.011

@<SCITEGIC>MOL_PROPERTY
Tether
SciTegic.value.DoubleValue
0.000

@<TRIPOS>MOLECULE
guest-s18_confgen4.mol2 : confsearch ligand conformer 591
          16          15           1
SMALL
USER_CHARGES
 
@<TRIPOS>ATOM
       1    C1      18.771450   18.079625   19.687041 C.2        1 MOL1         0.6075
       2    O1      19.746436   18.213781   18.973472 O.co2      1 MOL1        -0.6830
       3    O2      17.721733   17.612503   19.293082 O.co2      1 MOL1        -0.6830
       4    C2      18.837687   18.509721   21.153507 C.3        1 MOL1        -0.2050
       5    H1      18.591964   17.632266   21.763305 H          1 MOL1         0.0710
       6    H2      18.041182   19.245700   21.314995 H          1 MOL1         0.0710
       7    C3      20.197580   19.101084   21.611030 C.3        1 MOL1        -0.1947
       8    H3      20.992341   18.361366   21.441784 H          1 MOL1         0.0712
       9    H4      20.440979   19.976467   20.993025 H          1 MOL1         0.0712
      10    C4      20.174739   19.506900   23.099670 C.3        1 MOL1        -0.1921
      11    H5      19.933157   18.631922   23.718986 H          1 MOL1         0.0712
      12    H6      19.381466   20.247991   23.269970 H          1 MOL1         0.0712
      13    C5      21.527917   20.093421   23.548048 C.3        1 MOL1        -0.2936
      14    H7      22.335729   19.361326   23.417876 H          1 MOL1         0.0724
      15    H8      21.494594   20.376590   24.608165 H          1 MOL1         0.0724
      16    H9      21.779973   20.989319   22.965551 H          1 MOL1         0.0724
@<TRIPOS>BOND
    1     1     2    1
    2     1     3    2
    3     1     4    1
    4     4     5    1
    5     4     6    1
    6     4     7    1
    7     7     8    1
    8     7     9    1
    9     7    10    1
   10    10    11    1
   11    10    12    1
   12    10    13    1
   13    13    14    1
   14    13    15    1
   15    13    16    1
@<TRIPOS>SUBSTRUCTURE
       1 MOL1            1 RESIDUE      1      MOL     
@<SCITEGIC>MOL_PROPERTY
VConf Rank
SciTegic.value.IntegerValue
591

@<SCITEGIC>MOL_PROPERTY
Conf_Id
SciTegic.value.IntegerValue
0

@<SCITEGIC>MOL_PROPERTY
Delta U+W
SciTegic.value.DoubleValue
0.000

@<SCITEGIC>MOL_PROPERTY
U+W
SciTegic.value.DoubleValue
-56.904

@<SCITEGIC>MOL_PROPERTY
Grad RMS
SciTegic.value.DoubleValue
0.000000

@<SCITEGIC>MOL_PROPERTY
U
SciTegic.value.DoubleValue
7.329

@<SCITEGIC>MOL_PROPERTY
W
SciTegic.value.DoubleValue
-64.233

@<SCITEGIC>MOL_PROPERTY
W(PB)
SciTegic.value.DoubleValue
-66.148

@<SCITEGIC>MOL_PROPERTY
W(SA)
SciTegic.value.DoubleValue
1.915

@<SCITEGIC>MOL_PROPERTY
Valence
SciTegic.value.DoubleValue
6.755

@<SCITEGIC>MOL_PROPERTY
Coulomb
SciTegic.value.DoubleValue
-0.421

@<SCITEGIC>MOL_PROPERTY
VdW
SciTegic.value.DoubleValue
0.995

@<SCITEGIC>MOL_PROPERTY
VdW6
SciTegic.value.DoubleValue
-4.495

@<SCITEGIC>MOL_PROPERTY
VdW12
SciTegic.value.DoubleValue
5.490

@<SCITEGIC>MOL_PROPERTY
Bond
SciTegic.value.DoubleValue
0.106

@<SCITEGIC>MOL_PROPERTY
Angle
SciTegic.value.DoubleValue
2.715

@<SCITEGIC>MOL_PROPERTY
Pdih
SciTegic.value.DoubleValue
3.934

@<SCITEGIC>MOL_PROPERTY
Idih
SciTegic.value.DoubleValue
0.000

@<SCITEGIC>MOL_PROPERTY
Tether
SciTegic.value.DoubleValue
0.000

@<TRIPOS>MOLECULE
guest-s18_confgen4.mol2 : confsearch ligand conformer 592
          16          15           1
SMALL
USER_CHARGES
 
@<TRIPOS>ATOM
       1    C1      20.066315   20.881096   24.033259 C.2        1 MOL1         0.6075
       2    O1      19.649888   20.431539   25.082225 O.co2      1 MOL1        -0.6830
       3    O2      20.921303   21.741281   23.963107 O.co2      1 MOL1        -0.6830
       4    C2      19.497876   20.322346   22.733545 C.3        1 MOL1        -0.2050
       5    H1      19.499395   21.126050   21.987282 H          1 MOL1         0.0710
       6    H2      18.451245   20.046132   22.909954 H          1 MOL1         0.0710
       7    C3      20.290303   19.101470   22.204790 C.3        1 MOL1        -0.1947
       8    H3      21.338378   19.390491   22.044926 H          1 MOL1         0.0712
       9    H4      20.290242   18.310541   22.967668 H          1 MOL1         0.0712
      10    C4      19.694838   18.556056   20.890063 C.3        1 MOL1        -0.1921
      11    H5      19.695355   19.346516   20.126707 H          1 MOL1         0.0712
      12    H6      18.646929   18.266320   21.049679 H          1 MOL1         0.0712
      13    C5      20.488409   17.341285   20.369798 C.3        1 MOL1        -0.2936
      14    H7      20.477956   16.522693   21.101420 H          1 MOL1         0.0724
      15    H8      21.534133   17.610862   20.171654 H          1 MOL1         0.0724
      16    H9      20.052180   16.965914   19.434945 H          1 MOL1         0.0724
@<TRIPOS>BOND
    1     1     2    1
    2     1     3    2
    3     1     4    1
    4     4     5    1
    5     4     6    1
    6     4     7    1
    7     7     8    1
    8     7     9    1
    9     7    10    1
   10    10    11    1
   11    10    12    1
   12    10    13    1
   13    13    14    1
   14    13    15    1
   15    13    16    1
@<TRIPOS>SUBSTRUCTURE
       1 MOL1            1 RESIDUE      1      MOL     
@<SCITEGIC>MOL_PROPERTY
VConf Rank
SciTegic.value.IntegerValue
592

@<SCITEGIC>MOL_PROPERTY
Conf_Id
SciTegic.value.IntegerValue
22

@<SCITEGIC>MOL_PROPERTY
Delta U+W
SciTegic.value.DoubleValue
-1.185

@<SCITEGIC>MOL_PROPERTY
U+W
SciTegic.value.DoubleValue
-58.089

@<SCITEGIC>MOL_PROPERTY
Grad RMS
SciTegic.value.DoubleValue
0.000000

@<SCITEGIC>MOL_PROPERTY
U
SciTegic.value.DoubleValue
6.298

@<SCITEGIC>MOL_PROPERTY
W
SciTegic.value.DoubleValue
-64.387

@<SCITEGIC>MOL_PROPERTY
W(PB)
SciTegic.value.DoubleValue
-66.329

@<SCITEGIC>MOL_PROPERTY
W(SA)
SciTegic.value.DoubleValue
1.942

@<SCITEGIC>MOL_PROPERTY
Valence
SciTegic.value.DoubleValue
6.246

@<SCITEGIC>MOL_PROPERTY
Coulomb
SciTegic.value.DoubleValue
-0.408

@<SCITEGIC>MOL_PROPERTY
VdW
SciTegic.value.DoubleValue
0.460

@<SCITEGIC>MOL_PROPERTY
VdW6
SciTegic.value.DoubleValue
-4.207

@<SCITEGIC>MOL_PROPERTY
VdW12
SciTegic.value.DoubleValue
4.667

@<SCITEGIC>MOL_PROPERTY
Bond
SciTegic.value.DoubleValue
0.072

@<SCITEGIC>MOL_PROPERTY
Angle
SciTegic.value.DoubleValue
2.246

@<SCITEGIC>MOL_PROPERTY
Pdih
SciTegic.value.DoubleValue
3.928

@<SCITEGIC>MOL_PROPERTY
Idih
SciTegic.value.DoubleValue
0.001

@<SCITEGIC>MOL_PROPERTY
Tether
SciTegic.value.DoubleValue
0.000

@<TRIPOS>MOLECULE
guest-s18_confgen4.mol2 : confsearch ligand conformer 593
          16          15           1
SMALL
USER_CHARGES
 
@<TRIPOS>ATOM
       1    C1      18.136254   20.320472   23.394873 C.2        1 MOL1         0.6075
       2    O1      17.255143   19.704630   23.960890 O.co2      1 MOL1        -0.6830
       3    O2      18.058589   21.500504   23.116575 O.co2      1 MOL1        -0.6830
       4    C2      19.399431   19.566436   22.994389 C.3        1 MOL1        -0.2050
       5    H1      19.578314   18.781906   23.739425 H          1 MOL1         0.0710
       6    H2      20.239870   20.267458   23.052241 H          1 MOL1         0.0710
       7    C3      19.304618   18.945174   21.576631 C.3        1 MOL1        -0.1947
       8    H3      18.404547   18.316908   21.525811 H          1 MOL1         0.0712
       9    H4      19.168147   19.744082   20.834722 H          1 MOL1         0.0712
      10    C4      20.532544   18.085301   21.198182 C.3        1 MOL1        -0.1921
      11    H5      20.338019   17.597219   20.233171 H          1 MOL1         0.0712
      12    H6      20.662219   17.279173   21.933520 H          1 MOL1         0.0712
      13    C5      21.837449   18.902677   21.088407 C.3        1 MOL1        -0.2936
      14    H7      22.133642   19.317442   22.060015 H          1 MOL1         0.0724
      15    H8      21.722496   19.732969   20.379428 H          1 MOL1         0.0724
      16    H9      22.659435   18.267221   20.734088 H          1 MOL1         0.0724
@<TRIPOS>BOND
    1     1     2    1
    2     1     3    2
    3     1     4    1
    4     4     5    1
    5     4     6    1
    6     4     7    1
    7     7     8    1
    8     7     9    1
    9     7    10    1
   10    10    11    1
   11    10    12    1
   12    10    13    1
   13    13    14    1
   14    13    15    1
   15    13    16    1
@<TRIPOS>SUBSTRUCTURE
       1 MOL1            1 RESIDUE      1      MOL     
@<SCITEGIC>MOL_PROPERTY
VConf Rank
SciTegic.value.IntegerValue
593

@<SCITEGIC>MOL_PROPERTY
Conf_Id
SciTegic.value.IntegerValue
36

@<SCITEGIC>MOL_PROPERTY
Delta U+W
SciTegic.value.DoubleValue
-0.427

@<SCITEGIC>MOL_PROPERTY
U+W
SciTegic.value.DoubleValue
-57.331

@<SCITEGIC>MOL_PROPERTY
Grad RMS
SciTegic.value.DoubleValue
0.000000

@<SCITEGIC>MOL_PROPERTY
U
SciTegic.value.DoubleValue
7.263

@<SCITEGIC>MOL_PROPERTY
W
SciTegic.value.DoubleValue
-64.594

@<SCITEGIC>MOL_PROPERTY
W(PB)
SciTegic.value.DoubleValue
-66.513

@<SCITEGIC>MOL_PROPERTY
W(SA)
SciTegic.value.DoubleValue
1.920

@<SCITEGIC>MOL_PROPERTY
Valence
SciTegic.value.DoubleValue
6.734

@<SCITEGIC>MOL_PROPERTY
Coulomb
SciTegic.value.DoubleValue
-0.068

@<SCITEGIC>MOL_PROPERTY
VdW
SciTegic.value.DoubleValue
0.598

@<SCITEGIC>MOL_PROPERTY
VdW6
SciTegic.value.DoubleValue
-4.819

@<SCITEGIC>MOL_PROPERTY
VdW12
SciTegic.value.DoubleValue
5.417

@<SCITEGIC>MOL_PROPERTY
Bond
SciTegic.value.DoubleValue
0.107

@<SCITEGIC>MOL_PROPERTY
Angle
SciTegic.value.DoubleValue
2.469

@<SCITEGIC>MOL_PROPERTY
Pdih
SciTegic.value.DoubleValue
4.157

@<SCITEGIC>MOL_PROPERTY
Idih
SciTegic.value.DoubleValue
0.001

@<SCITEGIC>MOL_PROPERTY
Tether
SciTegic.value.DoubleValue
0.000

@<TRIPOS>MOLECULE
guest-s18_confgen4.mol2 : confsearch ligand conformer 594
          16          15           1
SMALL
USER_CHARGES
 
@<TRIPOS>ATOM
       1    C1      17.714528   19.071810   20.711571 C.2        1 MOL1         0.6075
       2    O1      16.865873   18.479932   21.348299 O.co2      1 MOL1        -0.6830
       3    O2      17.639556   19.270854   19.515429 O.co2      1 MOL1        -0.6830
       4    C2      18.950267   19.574663   21.449581 C.3        1 MOL1        -0.2050
       5    H1      18.644959   19.846475   22.466450 H          1 MOL1         0.0710
       6    H2      19.291589   20.492561   20.956092 H          1 MOL1         0.0710
       7    C3      20.095674   18.529795   21.485468 C.3        1 MOL1        -0.1947
       8    H3      19.755871   17.631585   22.019381 H          1 MOL1         0.0712
       9    H4      20.318191   18.214191   20.456726 H          1 MOL1         0.0712
      10    C4      21.394428   19.062448   22.133486 C.3        1 MOL1        -0.1921
      11    H5      21.740837   19.953869   21.592423 H          1 MOL1         0.0712
      12    H6      22.182072   18.304737   22.020350 H          1 MOL1         0.0712
      13    C5      21.234857   19.394455   23.632566 C.3        1 MOL1        -0.2936
      14    H7      20.538321   20.228051   23.786633 H          1 MOL1         0.0724
      15    H8      22.200767   19.684321   24.066159 H          1 MOL1         0.0724
      16    H9      20.861499   18.525392   24.189867 H          1 MOL1         0.0724
@<TRIPOS>BOND
    1     1     2    1
    2     1     3    2
    3     1     4    1
    4     4     5    1
    5     4     6    1
    6     4     7    1
    7     7     8    1
    8     7     9    1
    9     7    10    1
   10    10    11    1
   11    10    12    1
   12    10    13    1
   13    13    14    1
   14    13    15    1
   15    13    16    1
@<TRIPOS>SUBSTRUCTURE
       1 MOL1            1 RESIDUE      1      MOL     
@<SCITEGIC>MOL_PROPERTY
VConf Rank
SciTegic.value.IntegerValue
594

@<SCITEGIC>MOL_PROPERTY
Conf_Id
SciTegic.value.IntegerValue
17

@<SCITEGIC>MOL_PROPERTY
Delta U+W
SciTegic.value.DoubleValue
-0.432

@<SCITEGIC>MOL_PROPERTY
U+W
SciTegic.value.DoubleValue
-57.336

@<SCITEGIC>MOL_PROPERTY
Grad RMS
SciTegic.value.DoubleValue
0.000000

@<SCITEGIC>MOL_PROPERTY
U
SciTegic.value.DoubleValue
7.263

@<SCITEGIC>MOL_PROPERTY
W
SciTegic.value.DoubleValue
-64.599

@<SCITEGIC>MOL_PROPERTY
W(PB)
SciTegic.value.DoubleValue
-66.503

@<SCITEGIC>MOL_PROPERTY
W(SA)
SciTegic.value.DoubleValue
1.904

@<SCITEGIC>MOL_PROPERTY
Valence
SciTegic.value.DoubleValue
6.734

@<SCITEGIC>MOL_PROPERTY
Coulomb
SciTegic.value.DoubleValue
-0.068

@<SCITEGIC>MOL_PROPERTY
VdW
SciTegic.value.DoubleValue
0.598

@<SCITEGIC>MOL_PROPERTY
VdW6
SciTegic.value.DoubleValue
-4.819

@<SCITEGIC>MOL_PROPERTY
VdW12
SciTegic.value.DoubleValue
5.417

@<SCITEGIC>MOL_PROPERTY
Bond
SciTegic.value.DoubleValue
0.107

@<SCITEGIC>MOL_PROPERTY
Angle
SciTegic.value.DoubleValue
2.469

@<SCITEGIC>MOL_PROPERTY
Pdih
SciTegic.value.DoubleValue
4.157

@<SCITEGIC>MOL_PROPERTY
Idih
SciTegic.value.DoubleValue
0.001

@<SCITEGIC>MOL_PROPERTY
Tether
SciTegic.value.DoubleValue
0.000

@<TRIPOS>MOLECULE
guest-s18_confgen4.mol2 : confsearch ligand conformer 595
          16          15           1
SMALL
USER_CHARGES
 
@<TRIPOS>ATOM
       1    C1      19.217759   19.393783   19.923658 C.2        1 MOL1         0.6075
       2    O1      19.952157   19.009430   19.035247 O.co2      1 MOL1        -0.6830
       3    O2      18.046225   19.082778   20.007589 O.co2      1 MOL1        -0.6830
       4    C2      19.793844   20.337075   20.976189 C.3        1 MOL1        -0.2050
       5    H1      18.964929   20.853799   21.475170 H          1 MOL1         0.0710
       6    H2      20.373139   21.103668   20.447997 H          1 MOL1         0.0710
       7    C3      20.697055   19.637799   22.025120 C.3        1 MOL1        -0.1947
       8    H3      21.505666   19.101198   21.509532 H          1 MOL1         0.0712
       9    H4      21.174746   20.403546   22.651221 H          1 MOL1         0.0712
      10    C4      19.912613   18.660215   22.926875 C.3        1 MOL1        -0.1921
      11    H5      19.446759   17.877021   22.312619 H          1 MOL1         0.0712
      12    H6      19.096808   19.195527   23.432128 H          1 MOL1         0.0712
      13    C5      20.826572   18.004967   23.981235 C.3        1 MOL1        -0.2936
      14    H7      21.634356   17.436732   23.501607 H          1 MOL1         0.0724
      15    H8      20.254104   17.313104   24.612679 H          1 MOL1         0.0724
      16    H9      21.280369   18.762639   24.633474 H          1 MOL1         0.0724
@<TRIPOS>BOND
    1     1     2    1
    2     1     3    2
    3     1     4    1
    4     4     5    1
    5     4     6    1
    6     4     7    1
    7     7     8    1
    8     7     9    1
    9     7    10    1
   10    10    11    1
   11    10    12    1
   12    10    13    1
   13    13    14    1
   14    13    15    1
   15    13    16    1
@<TRIPOS>SUBSTRUCTURE
       1 MOL1            1 RESIDUE      1      MOL     
@<SCITEGIC>MOL_PROPERTY
VConf Rank
SciTegic.value.IntegerValue
595

@<SCITEGIC>MOL_PROPERTY
Conf_Id
SciTegic.value.IntegerValue
19

@<SCITEGIC>MOL_PROPERTY
Delta U+W
SciTegic.value.DoubleValue
0.048

@<SCITEGIC>MOL_PROPERTY
U+W
SciTegic.value.DoubleValue
-56.856

@<SCITEGIC>MOL_PROPERTY
Grad RMS
SciTegic.value.DoubleValue
0.000000

@<SCITEGIC>MOL_PROPERTY
U
SciTegic.value.DoubleValue
8.276

@<SCITEGIC>MOL_PROPERTY
W
SciTegic.value.DoubleValue
-65.132

@<SCITEGIC>MOL_PROPERTY
W(PB)
SciTegic.value.DoubleValue
-67.031

@<SCITEGIC>MOL_PROPERTY
W(SA)
SciTegic.value.DoubleValue
1.899

@<SCITEGIC>MOL_PROPERTY
Valence
SciTegic.value.DoubleValue
6.513

@<SCITEGIC>MOL_PROPERTY
Coulomb
SciTegic.value.DoubleValue
1.428

@<SCITEGIC>MOL_PROPERTY
VdW
SciTegic.value.DoubleValue
0.335

@<SCITEGIC>MOL_PROPERTY
VdW6
SciTegic.value.DoubleValue
-5.021

@<SCITEGIC>MOL_PROPERTY
VdW12
SciTegic.value.DoubleValue
5.356

@<SCITEGIC>MOL_PROPERTY
Bond
SciTegic.value.DoubleValue
0.092

@<SCITEGIC>MOL_PROPERTY
Angle
SciTegic.value.DoubleValue
2.417

@<SCITEGIC>MOL_PROPERTY
Pdih
SciTegic.value.DoubleValue
4.003

@<SCITEGIC>MOL_PROPERTY
Idih
SciTegic.value.DoubleValue
0.001

@<SCITEGIC>MOL_PROPERTY
Tether
SciTegic.value.DoubleValue
0.000

@<TRIPOS>MOLECULE
guest-s18_confgen4.mol2 : confsearch ligand conformer 596
          16          15           1
SMALL
USER_CHARGES
 
@<TRIPOS>ATOM
       1    C1      21.991970   20.052775   22.625395 C.2        1 MOL1         0.6075
       2    O1      22.910899   19.294457   22.386933 O.co2      1 MOL1        -0.6830
       3    O2      21.862850   20.639473   23.681508 O.co2      1 MOL1        -0.6830
       4    C2      20.958290   20.298063   21.529568 C.3        1 MOL1        -0.2050
       5    H1      21.505130   20.463950   20.593788 H          1 MOL1         0.0710
       6    H2      20.423867   21.229290   21.753831 H          1 MOL1         0.0710
       7    C3      19.950002   19.135116   21.339960 C.3        1 MOL1        -0.1947
       8    H3      19.339405   19.334511   20.448908 H          1 MOL1         0.0712
       9    H4      20.500329   18.204232   21.144464 H          1 MOL1         0.0712
      10    C4      19.022856   18.948006   22.560444 C.3        1 MOL1        -0.1921
      11    H5      18.482531   19.883261   22.762249 H          1 MOL1         0.0712
      12    H6      19.622186   18.727510   23.454819 H          1 MOL1         0.0712
      13    C5      18.009409   17.809031   22.332380 C.3        1 MOL1        -0.2936
      14    H7      17.371744   18.018354   21.463483 H          1 MOL1         0.0724
      15    H8      17.359335   17.688779   23.208770 H          1 MOL1         0.0724
      16    H9      18.523994   16.854869   22.158520 H          1 MOL1         0.0724
@<TRIPOS>BOND
    1     1     2    1
    2     1     3    2
    3     1     4    1
    4     4     5    1
    5     4     6    1
    6     4     7    1
    7     7     8    1
    8     7     9    1
    9     7    10    1
   10    10    11    1
   11    10    12    1
   12    10    13    1
   13    13    14    1
   14    13    15    1
   15    13    16    1
@<TRIPOS>SUBSTRUCTURE
       1 MOL1            1 RESIDUE      1      MOL     
@<SCITEGIC>MOL_PROPERTY
VConf Rank
SciTegic.value.IntegerValue
596

@<SCITEGIC>MOL_PROPERTY
Conf_Id
SciTegic.value.IntegerValue
20

@<SCITEGIC>MOL_PROPERTY
Delta U+W
SciTegic.value.DoubleValue
-0.010

@<SCITEGIC>MOL_PROPERTY
U+W
SciTegic.value.DoubleValue
-56.914

@<SCITEGIC>MOL_PROPERTY
Grad RMS
SciTegic.value.DoubleValue
0.000000

@<SCITEGIC>MOL_PROPERTY
U
SciTegic.value.DoubleValue
8.277

@<SCITEGIC>MOL_PROPERTY
W
SciTegic.value.DoubleValue
-65.191

@<SCITEGIC>MOL_PROPERTY
W(PB)
SciTegic.value.DoubleValue
-67.081

@<SCITEGIC>MOL_PROPERTY
W(SA)
SciTegic.value.DoubleValue
1.890

@<SCITEGIC>MOL_PROPERTY
Valence
SciTegic.value.DoubleValue
6.513

@<SCITEGIC>MOL_PROPERTY
Coulomb
SciTegic.value.DoubleValue
1.429

@<SCITEGIC>MOL_PROPERTY
VdW
SciTegic.value.DoubleValue
0.335

@<SCITEGIC>MOL_PROPERTY
VdW6
SciTegic.value.DoubleValue
-5.021

@<SCITEGIC>MOL_PROPERTY
VdW12
SciTegic.value.DoubleValue
5.356

@<SCITEGIC>MOL_PROPERTY
Bond
SciTegic.value.DoubleValue
0.092

@<SCITEGIC>MOL_PROPERTY
Angle
SciTegic.value.DoubleValue
2.417

@<SCITEGIC>MOL_PROPERTY
Pdih
SciTegic.value.DoubleValue
4.002

@<SCITEGIC>MOL_PROPERTY
Idih
SciTegic.value.DoubleValue
0.001

@<SCITEGIC>MOL_PROPERTY
Tether
SciTegic.value.DoubleValue
0.000

@<TRIPOS>MOLECULE
guest-s18_confgen4.mol2 : confsearch ligand conformer 597
          16          15           1
SMALL
USER_CHARGES
 
@<TRIPOS>ATOM
       1    C1      19.054653   19.137347   20.181752 C.2        1 MOL1         0.6075
       2    O1      18.115700   18.438985   19.853967 O.co2      1 MOL1        -0.6830
       3    O2      20.073363   19.240936   19.527688 O.co2      1 MOL1        -0.6830
       4    C2      18.931250   19.952761   21.466125 C.3        1 MOL1        -0.2050
       5    H1      17.977390   20.491143   21.419467 H          1 MOL1         0.0710
       6    H2      19.717835   20.715943   21.475413 H          1 MOL1         0.0710
       7    C3      18.977261   19.103230   22.765686 C.3        1 MOL1        -0.1947
       8    H3      18.801702   19.757652   23.630140 H          1 MOL1         0.0712
       9    H4      18.144795   18.386260   22.748090 H          1 MOL1         0.0712
      10    C4      20.300010   18.328159   22.974470 C.3        1 MOL1        -0.1921
      11    H5      20.469820   17.643429   22.131910 H          1 MOL1         0.0712
      12    H6      20.202049   17.698531   23.869513 H          1 MOL1         0.0712
      13    C5      21.525462   19.250743   23.146361 C.3        1 MOL1        -0.2936
      14    H7      21.734348   19.810650   22.225841 H          1 MOL1         0.0724
      15    H8      22.419457   18.660402   23.385382 H          1 MOL1         0.0724
      16    H9      21.366504   19.969576   23.960657 H          1 MOL1         0.0724
@<TRIPOS>BOND
    1     1     2    1
    2     1     3    2
    3     1     4    1
    4     4     5    1
    5     4     6    1
    6     4     7    1
    7     7     8    1
    8     7     9    1
    9     7    10    1
   10    10    11    1
   11    10    12    1
   12    10    13    1
   13    13    14    1
   14    13    15    1
   15    13    16    1
@<TRIPOS>SUBSTRUCTURE
       1 MOL1            1 RESIDUE      1      MOL     
@<SCITEGIC>MOL_PROPERTY
VConf Rank
SciTegic.value.IntegerValue
597

@<SCITEGIC>MOL_PROPERTY
Conf_Id
SciTegic.value.IntegerValue
37

@<SCITEGIC>MOL_PROPERTY
Delta U+W
SciTegic.value.DoubleValue
1.063

@<SCITEGIC>MOL_PROPERTY
U+W
SciTegic.value.DoubleValue
-55.841

@<SCITEGIC>MOL_PROPERTY
Grad RMS
SciTegic.value.DoubleValue
0.000000

@<SCITEGIC>MOL_PROPERTY
U
SciTegic.value.DoubleValue
9.719

@<SCITEGIC>MOL_PROPERTY
W
SciTegic.value.DoubleValue
-65.560

@<SCITEGIC>MOL_PROPERTY
W(PB)
SciTegic.value.DoubleValue
-67.414

@<SCITEGIC>MOL_PROPERTY
W(SA)
SciTegic.value.DoubleValue
1.854

@<SCITEGIC>MOL_PROPERTY
Valence
SciTegic.value.DoubleValue
7.002

@<SCITEGIC>MOL_PROPERTY
Coulomb
SciTegic.value.DoubleValue
2.402

@<SCITEGIC>MOL_PROPERTY
VdW
SciTegic.value.DoubleValue
0.314

@<SCITEGIC>MOL_PROPERTY
VdW6
SciTegic.value.DoubleValue
-5.861

@<SCITEGIC>MOL_PROPERTY
VdW12
SciTegic.value.DoubleValue
6.175

@<SCITEGIC>MOL_PROPERTY
Bond
SciTegic.value.DoubleValue
0.134

@<SCITEGIC>MOL_PROPERTY
Angle
SciTegic.value.DoubleValue
2.733

@<SCITEGIC>MOL_PROPERTY
Pdih
SciTegic.value.DoubleValue
4.133

@<SCITEGIC>MOL_PROPERTY
Idih
SciTegic.value.DoubleValue
0.002

@<SCITEGIC>MOL_PROPERTY
Tether
SciTegic.value.DoubleValue
0.000

@<TRIPOS>MOLECULE
guest-s18_confgen4.mol2 : confsearch ligand conformer 598
          16          15           1
SMALL
USER_CHARGES
 
@<TRIPOS>ATOM
       1    C1      21.645568   19.877258   20.834072 C.2        1 MOL1         0.6075
       2    O1      21.393133   20.341110   19.739585 O.co2      1 MOL1        -0.6830
       3    O2      22.406130   20.400024   21.624363 O.co2      1 MOL1        -0.6830
       4    C2      20.998345   18.549847   21.219858 C.3        1 MOL1        -0.2050
       5    H1      21.525276   18.141018   22.089600 H          1 MOL1         0.0710
       6    H2      21.173457   17.850237   20.394169 H          1 MOL1         0.0710
       7    C3      19.472995   18.643095   21.497869 C.3        1 MOL1        -0.1947
       8    H3      18.970389   19.004251   20.589955 H          1 MOL1         0.0712
       9    H4      19.079252   17.635452   21.687585 H          1 MOL1         0.0712
      10    C4      19.095441   19.567827   22.679527 C.3        1 MOL1        -0.1921
      11    H5      18.000330   19.631346   22.741389 H          1 MOL1         0.0712
      12    H6      19.453826   20.588409   22.485697 H          1 MOL1         0.0712
      13    C5      19.643134   19.076186   24.036274 C.3        1 MOL1        -0.2936
      14    H7      19.328140   18.044090   24.237825 H          1 MOL1         0.0724
      15    H8      19.271197   19.709298   24.852173 H          1 MOL1         0.0724
      16    H9      20.739685   19.114701   24.060358 H          1 MOL1         0.0724
@<TRIPOS>BOND
    1     1     2    1
    2     1     3    2
    3     1     4    1
    4     4     5    1
    5     4     6    1
    6     4     7    1
    7     7     8    1
    8     7     9    1
    9     7    10    1
   10    10    11    1
   11    10    12    1
   12    10    13    1
   13    13    14    1
   14    13    15    1
   15    13    16    1
@<TRIPOS>SUBSTRUCTURE
       1 MOL1            1 RESIDUE      1      MOL     
@<SCITEGIC>MOL_PROPERTY
VConf Rank
SciTegic.value.IntegerValue
598

@<SCITEGIC>MOL_PROPERTY
Conf_Id
SciTegic.value.IntegerValue
39

@<SCITEGIC>MOL_PROPERTY
Delta U+W
SciTegic.value.DoubleValue
1.129

@<SCITEGIC>MOL_PROPERTY
U+W
SciTegic.value.DoubleValue
-55.775

@<SCITEGIC>MOL_PROPERTY
Grad RMS
SciTegic.value.DoubleValue
0.000000

@<SCITEGIC>MOL_PROPERTY
U
SciTegic.value.DoubleValue
9.718

@<SCITEGIC>MOL_PROPERTY
W
SciTegic.value.DoubleValue
-65.493

@<SCITEGIC>MOL_PROPERTY
W(PB)
SciTegic.value.DoubleValue
-67.361

@<SCITEGIC>MOL_PROPERTY
W(SA)
SciTegic.value.DoubleValue
1.869

@<SCITEGIC>MOL_PROPERTY
Valence
SciTegic.value.DoubleValue
7.002

@<SCITEGIC>MOL_PROPERTY
Coulomb
SciTegic.value.DoubleValue
2.402

@<SCITEGIC>MOL_PROPERTY
VdW
SciTegic.value.DoubleValue
0.314

@<SCITEGIC>MOL_PROPERTY
VdW6
SciTegic.value.DoubleValue
-5.861

@<SCITEGIC>MOL_PROPERTY
VdW12
SciTegic.value.DoubleValue
6.175

@<SCITEGIC>MOL_PROPERTY
Bond
SciTegic.value.DoubleValue
0.134

@<SCITEGIC>MOL_PROPERTY
Angle
SciTegic.value.DoubleValue
2.734

@<SCITEGIC>MOL_PROPERTY
Pdih
SciTegic.value.DoubleValue
4.133

@<SCITEGIC>MOL_PROPERTY
Idih
SciTegic.value.DoubleValue
0.002

@<SCITEGIC>MOL_PROPERTY
Tether
SciTegic.value.DoubleValue
0.000

@<TRIPOS>MOLECULE
guest-s18_confgen4.mol2 : confsearch ligand conformer 599
          16          15           1
SMALL
USER_CHARGES
 
@<TRIPOS>ATOM
       1    C1      18.630074   18.126416   21.060296 C.2        1 MOL1         0.6075
       2    O1      17.974936   17.304552   21.670339 O.co2      1 MOL1        -0.6830
       3    O2      19.198171   17.885061   20.013314 O.co2      1 MOL1        -0.6830
       4    C2      18.665546   19.558342   21.591321 C.3        1 MOL1        -0.2050
       5    H1      18.042253   19.620595   22.491659 H          1 MOL1         0.0710
       6    H2      18.180681   20.181736   20.831035 H          1 MOL1         0.0710
       7    C3      20.084248   20.125313   21.879090 C.3        1 MOL1        -0.1947
       8    H3      20.761945   19.877004   21.050471 H          1 MOL1         0.0712
       9    H4      20.014449   21.221365   21.894891 H          1 MOL1         0.0712
      10    C4      20.701452   19.672387   23.224259 C.3        1 MOL1        -0.1921
      11    H5      20.020128   19.920621   24.049733 H          1 MOL1         0.0712
      12    H6      21.619379   20.250925   23.397453 H          1 MOL1         0.0712
      13    C5      21.053134   18.171050   23.275183 C.3        1 MOL1        -0.2936
      14    H7      20.149866   17.548878   23.272324 H          1 MOL1         0.0724
      15    H8      21.611005   17.938287   24.191354 H          1 MOL1         0.0724
      16    H9      21.674021   17.882285   22.417020 H          1 MOL1         0.0724
@<TRIPOS>BOND
    1     1     2    1
    2     1     3    2
    3     1     4    1
    4     4     5    1
    5     4     6    1
    6     4     7    1
    7     7     8    1
    8     7     9    1
    9     7    10    1
   10    10    11    1
   11    10    12    1
   12    10    13    1
   13    13    14    1
   14    13    15    1
   15    13    16    1
@<TRIPOS>SUBSTRUCTURE
       1 MOL1            1 RESIDUE      1      MOL     
@<SCITEGIC>MOL_PROPERTY
VConf Rank
SciTegic.value.IntegerValue
599

@<SCITEGIC>MOL_PROPERTY
Conf_Id
SciTegic.value.IntegerValue
47

@<SCITEGIC>MOL_PROPERTY
Delta U+W
SciTegic.value.DoubleValue
2.301

@<SCITEGIC>MOL_PROPERTY
U+W
SciTegic.value.DoubleValue
-54.603

@<SCITEGIC>MOL_PROPERTY
Grad RMS
SciTegic.value.DoubleValue
0.000000

@<SCITEGIC>MOL_PROPERTY
U
SciTegic.value.DoubleValue
11.258

@<SCITEGIC>MOL_PROPERTY
W
SciTegic.value.DoubleValue
-65.861

@<SCITEGIC>MOL_PROPERTY
W(PB)
SciTegic.value.DoubleValue
-67.702

@<SCITEGIC>MOL_PROPERTY
W(SA)
SciTegic.value.DoubleValue
1.841

@<SCITEGIC>MOL_PROPERTY
Valence
SciTegic.value.DoubleValue
8.169

@<SCITEGIC>MOL_PROPERTY
Coulomb
SciTegic.value.DoubleValue
2.735

@<SCITEGIC>MOL_PROPERTY
VdW
SciTegic.value.DoubleValue
0.355

@<SCITEGIC>MOL_PROPERTY
VdW6
SciTegic.value.DoubleValue
-6.245

@<SCITEGIC>MOL_PROPERTY
VdW12
SciTegic.value.DoubleValue
6.600

@<SCITEGIC>MOL_PROPERTY
Bond
SciTegic.value.DoubleValue
0.149

@<SCITEGIC>MOL_PROPERTY
Angle
SciTegic.value.DoubleValue
3.168

@<SCITEGIC>MOL_PROPERTY
Pdih
SciTegic.value.DoubleValue
4.840

@<SCITEGIC>MOL_PROPERTY
Idih
SciTegic.value.DoubleValue
0.011

@<SCITEGIC>MOL_PROPERTY
Tether
SciTegic.value.DoubleValue
0.000

@<TRIPOS>MOLECULE
guest-s18_confgen4.mol2 : confsearch ligand conformer 600
          16          15           1
SMALL
USER_CHARGES
 
@<TRIPOS>ATOM
       1    C1      19.833430   17.528372   23.477341 C.2        1 MOL1         0.6075
       2    O1      20.087281   16.534186   22.825948 O.co2      1 MOL1        -0.6830
       3    O2      18.904955   17.596815   24.258410 O.co2      1 MOL1        -0.6830
       4    C2      20.781329   18.722195   23.377624 C.3        1 MOL1        -0.2050
       5    H1      21.758856   18.370399   23.727522 H          1 MOL1         0.0710
       6    H2      20.455879   19.496169   24.083332 H          1 MOL1         0.0710
       7    C3      20.942194   19.325776   21.953967 C.3        1 MOL1        -0.1947
       8    H3      21.877866   19.900706   21.933296 H          1 MOL1         0.0712
       9    H4      21.065721   18.519819   21.217275 H          1 MOL1         0.0712
      10    C4      19.797211   20.272123   21.519220 C.3        1 MOL1        -0.1921
      11    H5      20.088410   20.760477   20.579004 H          1 MOL1         0.0712
      12    H6      19.675740   21.075251   22.259125 H          1 MOL1         0.0712
      13    C5      18.446808   19.558503   21.301408 C.3        1 MOL1        -0.2936
      14    H7      17.714416   20.248335   20.862656 H          1 MOL1         0.0724
      15    H8      18.030235   19.194174   22.248367 H          1 MOL1         0.0724
      16    H9      18.557824   18.703714   20.621452 H          1 MOL1         0.0724
@<TRIPOS>BOND
    1     1     2    1
    2     1     3    2
    3     1     4    1
    4     4     5    1
    5     4     6    1
    6     4     7    1
    7     7     8    1
    8     7     9    1
    9     7    10    1
   10    10    11    1
   11    10    12    1
   12    10    13    1
   13    13    14    1
   14    13    15    1
   15    13    16    1
@<TRIPOS>SUBSTRUCTURE
       1 MOL1            1 RESIDUE      1      MOL     
@<SCITEGIC>MOL_PROPERTY
VConf Rank
SciTegic.value.IntegerValue
600

@<SCITEGIC>MOL_PROPERTY
Conf_Id
SciTegic.value.IntegerValue
45

@<SCITEGIC>MOL_PROPERTY
Delta U+W
SciTegic.value.DoubleValue
2.303

@<SCITEGIC>MOL_PROPERTY
U+W
SciTegic.value.DoubleValue
-54.601

@<SCITEGIC>MOL_PROPERTY
Grad RMS
SciTegic.value.DoubleValue
0.000000

@<SCITEGIC>MOL_PROPERTY
U
SciTegic.value.DoubleValue
11.258

@<SCITEGIC>MOL_PROPERTY
W
SciTegic.value.DoubleValue
-65.860

@<SCITEGIC>MOL_PROPERTY
W(PB)
SciTegic.value.DoubleValue
-67.709

@<SCITEGIC>MOL_PROPERTY
W(SA)
SciTegic.value.DoubleValue
1.849

@<SCITEGIC>MOL_PROPERTY
Valence
SciTegic.value.DoubleValue
8.169

@<SCITEGIC>MOL_PROPERTY
Coulomb
SciTegic.value.DoubleValue
2.735

@<SCITEGIC>MOL_PROPERTY
VdW
SciTegic.value.DoubleValue
0.355

@<SCITEGIC>MOL_PROPERTY
VdW6
SciTegic.value.DoubleValue
-6.245

@<SCITEGIC>MOL_PROPERTY
VdW12
SciTegic.value.DoubleValue
6.600

@<SCITEGIC>MOL_PROPERTY
Bond
SciTegic.value.DoubleValue
0.149

@<SCITEGIC>MOL_PROPERTY
Angle
SciTegic.value.DoubleValue
3.168

@<SCITEGIC>MOL_PROPERTY
Pdih
SciTegic.value.DoubleValue
4.840

@<SCITEGIC>MOL_PROPERTY
Idih
SciTegic.value.DoubleValue
0.011

@<SCITEGIC>MOL_PROPERTY
Tether
SciTegic.value.DoubleValue
0.000

@<TRIPOS>MOLECULE
guest-s18_confgen4.mol2 : confsearch ligand conformer 601
          16          15           1
SMALL
USER_CHARGES
 
@<TRIPOS>ATOM
       1    C1      17.292121   19.455933   21.503796 C.2        1 MOL1         0.6075
       2    O1      16.971727   19.051693   22.604575 O.co2      1 MOL1        -0.6830
       3    O2      16.486230   19.826362   20.673955 O.co2      1 MOL1        -0.6830
       4    C2      18.770573   19.512583   21.115381 C.3        1 MOL1        -0.2050
       5    H1      18.997739   20.549952   20.842579 H          1 MOL1         0.0710
       6    H2      18.894193   18.908214   20.208950 H          1 MOL1         0.0710
       7    C3      19.762521   19.028914   22.206459 C.3        1 MOL1        -0.1947
       8    H3      19.630241   19.634440   23.113823 H          1 MOL1         0.0712
       9    H4      19.526597   17.991011   22.479525 H          1 MOL1         0.0712
      10    C4      21.227624   19.120173   21.730637 C.3        1 MOL1        -0.1921
      11    H5      21.465398   20.158017   21.458896 H          1 MOL1         0.0712
      12    H6      21.361704   18.513606   20.824215 H          1 MOL1         0.0712
      13    C5      22.207854   18.638517   22.818432 C.3        1 MOL1        -0.2936
      14    H7      22.117207   19.248606   23.726751 H          1 MOL1         0.0724
      15    H8      23.244447   18.709896   22.464143 H          1 MOL1         0.0724
      16    H9      22.012753   17.592063   23.087392 H          1 MOL1         0.0724
@<TRIPOS>BOND
    1     1     2    1
    2     1     3    2
    3     1     4    1
    4     4     5    1
    5     4     6    1
    6     4     7    1
    7     7     8    1
    8     7     9    1
    9     7    10    1
   10    10    11    1
   11    10    12    1
   12    10    13    1
   13    13    14    1
   14    13    15    1
   15    13    16    1
@<TRIPOS>SUBSTRUCTURE
       1 MOL1            1 RESIDUE      1      MOL     
@<SCITEGIC>MOL_PROPERTY
VConf Rank
SciTegic.value.IntegerValue
601

@<SCITEGIC>MOL_PROPERTY
Conf_Id
SciTegic.value.IntegerValue
0

@<SCITEGIC>MOL_PROPERTY
Delta U+W
SciTegic.value.DoubleValue
0.000

@<SCITEGIC>MOL_PROPERTY
U+W
SciTegic.value.DoubleValue
-56.904

@<SCITEGIC>MOL_PROPERTY
Grad RMS
SciTegic.value.DoubleValue
0.000000

@<SCITEGIC>MOL_PROPERTY
U
SciTegic.value.DoubleValue
7.329

@<SCITEGIC>MOL_PROPERTY
W
SciTegic.value.DoubleValue
-64.233

@<SCITEGIC>MOL_PROPERTY
W(PB)
SciTegic.value.DoubleValue
-66.148

@<SCITEGIC>MOL_PROPERTY
W(SA)
SciTegic.value.DoubleValue
1.915

@<SCITEGIC>MOL_PROPERTY
Valence
SciTegic.value.DoubleValue
6.755

@<SCITEGIC>MOL_PROPERTY
Coulomb
SciTegic.value.DoubleValue
-0.421

@<SCITEGIC>MOL_PROPERTY
VdW
SciTegic.value.DoubleValue
0.995

@<SCITEGIC>MOL_PROPERTY
VdW6
SciTegic.value.DoubleValue
-4.495

@<SCITEGIC>MOL_PROPERTY
VdW12
SciTegic.value.DoubleValue
5.490

@<SCITEGIC>MOL_PROPERTY
Bond
SciTegic.value.DoubleValue
0.106

@<SCITEGIC>MOL_PROPERTY
Angle
SciTegic.value.DoubleValue
2.715

@<SCITEGIC>MOL_PROPERTY
Pdih
SciTegic.value.DoubleValue
3.934

@<SCITEGIC>MOL_PROPERTY
Idih
SciTegic.value.DoubleValue
0.000

@<SCITEGIC>MOL_PROPERTY
Tether
SciTegic.value.DoubleValue
0.000

@<TRIPOS>MOLECULE
guest-s18_confgen4.mol2 : confsearch ligand conformer 602
          16          15           1
SMALL
USER_CHARGES
 
@<TRIPOS>ATOM
       1    C1      17.872924   18.408032   20.434452 C.2        1 MOL1         0.6075
       2    O1      17.413666   17.312799   20.690164 O.co2      1 MOL1        -0.6830
       3    O2      17.205469   19.338591   20.028980 O.co2      1 MOL1        -0.6830
       4    C2      19.365305   18.632247   20.651500 C.3        1 MOL1        -0.2050
       5    H1      19.713203   19.357510   19.905974 H          1 MOL1         0.0710
       6    H2      19.884831   17.687352   20.451208 H          1 MOL1         0.0710
       7    C3      19.698349   19.132402   22.078731 C.3        1 MOL1        -0.1947
       8    H3      19.161354   20.072152   22.268619 H          1 MOL1         0.0712
       9    H4      19.332929   18.401950   22.813891 H          1 MOL1         0.0712
      10    C4      21.213466   19.351011   22.271586 C.3        1 MOL1        -0.1921
      11    H5      21.579145   20.081933   21.537032 H          1 MOL1         0.0712
      12    H6      21.750772   18.411303   22.082406 H          1 MOL1         0.0712
      13    C5      21.537460   19.848662   23.694074 C.3        1 MOL1        -0.2936
      14    H7      21.210277   19.121349   24.448685 H          1 MOL1         0.0724
      15    H8      21.037362   20.804309   23.899291 H          1 MOL1         0.0724
      16    H9      22.618231   19.998992   23.814430 H          1 MOL1         0.0724
@<TRIPOS>BOND
    1     1     2    1
    2     1     3    2
    3     1     4    1
    4     4     5    1
    5     4     6    1
    6     4     7    1
    7     7     8    1
    8     7     9    1
    9     7    10    1
   10    10    11    1
   11    10    12    1
   12    10    13    1
   13    13    14    1
   14    13    15    1
   15    13    16    1
@<TRIPOS>SUBSTRUCTURE
       1 MOL1            1 RESIDUE      1      MOL     
@<SCITEGIC>MOL_PROPERTY
VConf Rank
SciTegic.value.IntegerValue
602

@<SCITEGIC>MOL_PROPERTY
Conf_Id
SciTegic.value.IntegerValue
22

@<SCITEGIC>MOL_PROPERTY
Delta U+W
SciTegic.value.DoubleValue
-1.185

@<SCITEGIC>MOL_PROPERTY
U+W
SciTegic.value.DoubleValue
-58.089

@<SCITEGIC>MOL_PROPERTY
Grad RMS
SciTegic.value.DoubleValue
0.000000

@<SCITEGIC>MOL_PROPERTY
U
SciTegic.value.DoubleValue
6.298

@<SCITEGIC>MOL_PROPERTY
W
SciTegic.value.DoubleValue
-64.387

@<SCITEGIC>MOL_PROPERTY
W(PB)
SciTegic.value.DoubleValue
-66.329

@<SCITEGIC>MOL_PROPERTY
W(SA)
SciTegic.value.DoubleValue
1.942

@<SCITEGIC>MOL_PROPERTY
Valence
SciTegic.value.DoubleValue
6.246

@<SCITEGIC>MOL_PROPERTY
Coulomb
SciTegic.value.DoubleValue
-0.408

@<SCITEGIC>MOL_PROPERTY
VdW
SciTegic.value.DoubleValue
0.460

@<SCITEGIC>MOL_PROPERTY
VdW6
SciTegic.value.DoubleValue
-4.207

@<SCITEGIC>MOL_PROPERTY
VdW12
SciTegic.value.DoubleValue
4.667

@<SCITEGIC>MOL_PROPERTY
Bond
SciTegic.value.DoubleValue
0.072

@<SCITEGIC>MOL_PROPERTY
Angle
SciTegic.value.DoubleValue
2.246

@<SCITEGIC>MOL_PROPERTY
Pdih
SciTegic.value.DoubleValue
3.928

@<SCITEGIC>MOL_PROPERTY
Idih
SciTegic.value.DoubleValue
0.001

@<SCITEGIC>MOL_PROPERTY
Tether
SciTegic.value.DoubleValue
0.000

@<TRIPOS>MOLECULE
guest-s18_confgen4.mol2 : confsearch ligand conformer 603
          16          15           1
SMALL
USER_CHARGES
 
@<TRIPOS>ATOM
       1    C1      20.061696   21.694957   21.552329 C.2        1 MOL1         0.6075
       2    O1      20.788113   22.183145   20.709723 O.co2      1 MOL1        -0.6830
       3    O2      19.607599   22.318989   22.490591 O.co2      1 MOL1        -0.6830
       4    C2      19.717864   20.214082   21.436736 C.3        1 MOL1        -0.2050
       5    H1      19.686134   19.953998   20.371881 H          1 MOL1         0.0710
       6    H2      18.706998   20.073321   21.836053 H          1 MOL1         0.0710
       7    C3      20.728987   19.302470   22.179425 C.3        1 MOL1        -0.1947
       8    H3      21.741345   19.529768   21.817628 H          1 MOL1         0.0712
       9    H4      20.720832   19.543242   23.251465 H          1 MOL1         0.0712
      10    C4      20.457858   17.793309   21.981104 C.3        1 MOL1        -0.1921
      11    H5      21.275502   17.223757   22.444114 H          1 MOL1         0.0712
      12    H6      20.477643   17.550129   20.909725 H          1 MOL1         0.0712
      13    C5      19.119061   17.329742   22.594016 C.3        1 MOL1        -0.2936
      14    H7      18.263775   17.789493   22.083236 H          1 MOL1         0.0724
      15    H8      19.064311   17.588372   23.659550 H          1 MOL1         0.0724
      16    H9      19.013002   16.240798   22.504791 H          1 MOL1         0.0724
@<TRIPOS>BOND
    1     1     2    1
    2     1     3    2
    3     1     4    1
    4     4     5    1
    5     4     6    1
    6     4     7    1
    7     7     8    1
    8     7     9    1
    9     7    10    1
   10    10    11    1
   11    10    12    1
   12    10    13    1
   13    13    14    1
   14    13    15    1
   15    13    16    1
@<TRIPOS>SUBSTRUCTURE
       1 MOL1            1 RESIDUE      1      MOL     
@<SCITEGIC>MOL_PROPERTY
VConf Rank
SciTegic.value.IntegerValue
603

@<SCITEGIC>MOL_PROPERTY
Conf_Id
SciTegic.value.IntegerValue
36

@<SCITEGIC>MOL_PROPERTY
Delta U+W
SciTegic.value.DoubleValue
-0.427

@<SCITEGIC>MOL_PROPERTY
U+W
SciTegic.value.DoubleValue
-57.331

@<SCITEGIC>MOL_PROPERTY
Grad RMS
SciTegic.value.DoubleValue
0.000000

@<SCITEGIC>MOL_PROPERTY
U
SciTegic.value.DoubleValue
7.263

@<SCITEGIC>MOL_PROPERTY
W
SciTegic.value.DoubleValue
-64.594

@<SCITEGIC>MOL_PROPERTY
W(PB)
SciTegic.value.DoubleValue
-66.513

@<SCITEGIC>MOL_PROPERTY
W(SA)
SciTegic.value.DoubleValue
1.920

@<SCITEGIC>MOL_PROPERTY
Valence
SciTegic.value.DoubleValue
6.734

@<SCITEGIC>MOL_PROPERTY
Coulomb
SciTegic.value.DoubleValue
-0.068

@<SCITEGIC>MOL_PROPERTY
VdW
SciTegic.value.DoubleValue
0.598

@<SCITEGIC>MOL_PROPERTY
VdW6
SciTegic.value.DoubleValue
-4.819

@<SCITEGIC>MOL_PROPERTY
VdW12
SciTegic.value.DoubleValue
5.417

@<SCITEGIC>MOL_PROPERTY
Bond
SciTegic.value.DoubleValue
0.107

@<SCITEGIC>MOL_PROPERTY
Angle
SciTegic.value.DoubleValue
2.469

@<SCITEGIC>MOL_PROPERTY
Pdih
SciTegic.value.DoubleValue
4.157

@<SCITEGIC>MOL_PROPERTY
Idih
SciTegic.value.DoubleValue
0.001

@<SCITEGIC>MOL_PROPERTY
Tether
SciTegic.value.DoubleValue
0.000

@<TRIPOS>MOLECULE
guest-s18_confgen4.mol2 : confsearch ligand conformer 604
          16          15           1
SMALL
USER_CHARGES
 
@<TRIPOS>ATOM
       1    C1      21.043831   21.119263   20.715532 C.2        1 MOL1         0.6075
       2    O1      20.823996   22.174794   21.275430 O.co2      1 MOL1        -0.6830
       3    O2      21.386952   21.034402   19.553181 O.co2      1 MOL1        -0.6830
       4    C2      20.859842   19.830047   21.508403 C.3        1 MOL1        -0.2050
       5    H1      21.124167   20.038301   22.551417 H          1 MOL1         0.0710
       6    H2      21.578992   19.092933   21.131505 H          1 MOL1         0.0710
       7    C3      19.418103   19.266655   21.413676 C.3        1 MOL1        -0.1947
       8    H3      18.711289   19.995897   21.833117 H          1 MOL1         0.0712
       9    H4      19.152950   19.151249   20.353580 H          1 MOL1         0.0712
      10    C4      19.242603   17.903010   22.120840 C.3        1 MOL1        -0.1921
      11    H5      19.941242   17.170460   21.693459 H          1 MOL1         0.0712
      12    H6      18.231644   17.525479   21.914103 H          1 MOL1         0.0712
      13    C5      19.442126   17.980050   23.649626 C.3        1 MOL1        -0.2936
      14    H7      20.475520   18.244689   23.906231 H          1 MOL1         0.0724
      15    H8      19.222497   17.010156   24.114465 H          1 MOL1         0.0724
      16    H9      18.773534   18.727754   24.095914 H          1 MOL1         0.0724
@<TRIPOS>BOND
    1     1     2    1
    2     1     3    2
    3     1     4    1
    4     4     5    1
    5     4     6    1
    6     4     7    1
    7     7     8    1
    8     7     9    1
    9     7    10    1
   10    10    11    1
   11    10    12    1
   12    10    13    1
   13    13    14    1
   14    13    15    1
   15    13    16    1
@<TRIPOS>SUBSTRUCTURE
       1 MOL1            1 RESIDUE      1      MOL     
@<SCITEGIC>MOL_PROPERTY
VConf Rank
SciTegic.value.IntegerValue
604

@<SCITEGIC>MOL_PROPERTY
Conf_Id
SciTegic.value.IntegerValue
17

@<SCITEGIC>MOL_PROPERTY
Delta U+W
SciTegic.value.DoubleValue
-0.432

@<SCITEGIC>MOL_PROPERTY
U+W
SciTegic.value.DoubleValue
-57.336

@<SCITEGIC>MOL_PROPERTY
Grad RMS
SciTegic.value.DoubleValue
0.000000

@<SCITEGIC>MOL_PROPERTY
U
SciTegic.value.DoubleValue
7.263

@<SCITEGIC>MOL_PROPERTY
W
SciTegic.value.DoubleValue
-64.599

@<SCITEGIC>MOL_PROPERTY
W(PB)
SciTegic.value.DoubleValue
-66.503

@<SCITEGIC>MOL_PROPERTY
W(SA)
SciTegic.value.DoubleValue
1.904

@<SCITEGIC>MOL_PROPERTY
Valence
SciTegic.value.DoubleValue
6.734

@<SCITEGIC>MOL_PROPERTY
Coulomb
SciTegic.value.DoubleValue
-0.068

@<SCITEGIC>MOL_PROPERTY
VdW
SciTegic.value.DoubleValue
0.598

@<SCITEGIC>MOL_PROPERTY
VdW6
SciTegic.value.DoubleValue
-4.819

@<SCITEGIC>MOL_PROPERTY
VdW12
SciTegic.value.DoubleValue
5.417

@<SCITEGIC>MOL_PROPERTY
Bond
SciTegic.value.DoubleValue
0.107

@<SCITEGIC>MOL_PROPERTY
Angle
SciTegic.value.DoubleValue
2.469

@<SCITEGIC>MOL_PROPERTY
Pdih
SciTegic.value.DoubleValue
4.157

@<SCITEGIC>MOL_PROPERTY
Idih
SciTegic.value.DoubleValue
0.001

@<SCITEGIC>MOL_PROPERTY
Tether
SciTegic.value.DoubleValue
0.000

@<TRIPOS>MOLECULE
guest-s18_confgen4.mol2 : confsearch ligand conformer 605
          16          15           1
SMALL
USER_CHARGES
 
@<TRIPOS>ATOM
       1    C1      21.472113   18.804974   20.164186 C.2        1 MOL1         0.6075
       2    O1      22.005980   19.819781   19.762323 O.co2      1 MOL1        -0.6830
       3    O2      22.063336   17.756826   20.331823 O.co2      1 MOL1        -0.6830
       4    C2      19.973425   18.844880   20.450254 C.3        1 MOL1        -0.2050
       5    H1      19.590541   17.817058   20.458231 H          1 MOL1         0.0710
       6    H2      19.492036   19.355888   19.608013 H          1 MOL1         0.0710
       7    C3      19.601279   19.564516   21.772625 C.3        1 MOL1        -0.1947
       8    H3      20.015439   20.582352   21.762355 H          1 MOL1         0.0712
       9    H4      18.509087   19.668123   21.826854 H          1 MOL1         0.0712
      10    C4      20.103122   18.808320   23.021827 C.3        1 MOL1        -0.1921
      11    H5      21.197742   18.716539   22.988551 H          1 MOL1         0.0712
      12    H6      19.698203   17.786845   23.024247 H          1 MOL1         0.0712
      13    C5      19.691065   19.526550   24.322096 C.3        1 MOL1        -0.2936
      14    H7      20.109199   20.541054   24.359445 H          1 MOL1         0.0724
      15    H8      20.055980   18.977016   25.199573 H          1 MOL1         0.0724
      16    H9      18.598555   19.602558   24.399938 H          1 MOL1         0.0724
@<TRIPOS>BOND
    1     1     2    1
    2     1     3    2
    3     1     4    1
    4     4     5    1
    5     4     6    1
    6     4     7    1
    7     7     8    1
    8     7     9    1
    9     7    10    1
   10    10    11    1
   11    10    12    1
   12    10    13    1
   13    13    14    1
   14    13    15    1
   15    13    16    1
@<TRIPOS>SUBSTRUCTURE
       1 MOL1            1 RESIDUE      1      MOL     
@<SCITEGIC>MOL_PROPERTY
VConf Rank
SciTegic.value.IntegerValue
605

@<SCITEGIC>MOL_PROPERTY
Conf_Id
SciTegic.value.IntegerValue
19

@<SCITEGIC>MOL_PROPERTY
Delta U+W
SciTegic.value.DoubleValue
0.048

@<SCITEGIC>MOL_PROPERTY
U+W
SciTegic.value.DoubleValue
-56.856

@<SCITEGIC>MOL_PROPERTY
Grad RMS
SciTegic.value.DoubleValue
0.000000

@<SCITEGIC>MOL_PROPERTY
U
SciTegic.value.DoubleValue
8.276

@<SCITEGIC>MOL_PROPERTY
W
SciTegic.value.DoubleValue
-65.132

@<SCITEGIC>MOL_PROPERTY
W(PB)
SciTegic.value.DoubleValue
-67.031

@<SCITEGIC>MOL_PROPERTY
W(SA)
SciTegic.value.DoubleValue
1.899

@<SCITEGIC>MOL_PROPERTY
Valence
SciTegic.value.DoubleValue
6.513

@<SCITEGIC>MOL_PROPERTY
Coulomb
SciTegic.value.DoubleValue
1.428

@<SCITEGIC>MOL_PROPERTY
VdW
SciTegic.value.DoubleValue
0.335

@<SCITEGIC>MOL_PROPERTY
VdW6
SciTegic.value.DoubleValue
-5.021

@<SCITEGIC>MOL_PROPERTY
VdW12
SciTegic.value.DoubleValue
5.356

@<SCITEGIC>MOL_PROPERTY
Bond
SciTegic.value.DoubleValue
0.092

@<SCITEGIC>MOL_PROPERTY
Angle
SciTegic.value.DoubleValue
2.417

@<SCITEGIC>MOL_PROPERTY
Pdih
SciTegic.value.DoubleValue
4.003

@<SCITEGIC>MOL_PROPERTY
Idih
SciTegic.value.DoubleValue
0.001

@<SCITEGIC>MOL_PROPERTY
Tether
SciTegic.value.DoubleValue
0.000

@<TRIPOS>MOLECULE
guest-s18_confgen4.mol2 : confsearch ligand conformer 606
          16          15           1
SMALL
USER_CHARGES
 
@<TRIPOS>ATOM
       1    C1      20.602971   20.063733   24.151128 C.2        1 MOL1         0.6075
       2    O1      20.722327   19.233735   25.030446 O.co2      1 MOL1        -0.6830
       3    O2      20.012482   21.115570   24.296811 O.co2      1 MOL1        -0.6830
       4    C2      21.250432   19.777930   22.798868 C.3        1 MOL1        -0.2050
       5    H1      22.263498   19.405696   22.992189 H          1 MOL1         0.0710
       6    H2      21.358790   20.724287   22.255036 H          1 MOL1         0.0710
       7    C3      20.478019   18.748943   21.933068 C.3        1 MOL1        -0.1947
       8    H3      21.081989   18.501887   21.049472 H          1 MOL1         0.0712
       9    H4      20.352279   17.816612   22.501021 H          1 MOL1         0.0712
      10    C4      19.099271   19.273071   21.476412 C.3        1 MOL1        -0.1921
      11    H5      19.225551   20.211744   20.919344 H          1 MOL1         0.0712
      12    H6      18.478268   19.504477   22.353070 H          1 MOL1         0.0712
      13    C5      18.367781   18.245235   20.590508 C.3        1 MOL1        -0.2936
      14    H7      18.949955   18.019753   19.687377 H          1 MOL1         0.0724
      15    H8      17.390110   18.632677   20.275602 H          1 MOL1         0.0724
      16    H9      18.201074   17.306327   21.134669 H          1 MOL1         0.0724
@<TRIPOS>BOND
    1     1     2    1
    2     1     3    2
    3     1     4    1
    4     4     5    1
    5     4     6    1
    6     4     7    1
    7     7     8    1
    8     7     9    1
    9     7    10    1
   10    10    11    1
   11    10    12    1
   12    10    13    1
   13    13    14    1
   14    13    15    1
   15    13    16    1
@<TRIPOS>SUBSTRUCTURE
       1 MOL1            1 RESIDUE      1      MOL     
@<SCITEGIC>MOL_PROPERTY
VConf Rank
SciTegic.value.IntegerValue
606

@<SCITEGIC>MOL_PROPERTY
Conf_Id
SciTegic.value.IntegerValue
20

@<SCITEGIC>MOL_PROPERTY
Delta U+W
SciTegic.value.DoubleValue
-0.010

@<SCITEGIC>MOL_PROPERTY
U+W
SciTegic.value.DoubleValue
-56.914

@<SCITEGIC>MOL_PROPERTY
Grad RMS
SciTegic.value.DoubleValue
0.000000

@<SCITEGIC>MOL_PROPERTY
U
SciTegic.value.DoubleValue
8.277

@<SCITEGIC>MOL_PROPERTY
W
SciTegic.value.DoubleValue
-65.191

@<SCITEGIC>MOL_PROPERTY
W(PB)
SciTegic.value.DoubleValue
-67.081

@<SCITEGIC>MOL_PROPERTY
W(SA)
SciTegic.value.DoubleValue
1.890

@<SCITEGIC>MOL_PROPERTY
Valence
SciTegic.value.DoubleValue
6.513

@<SCITEGIC>MOL_PROPERTY
Coulomb
SciTegic.value.DoubleValue
1.429

@<SCITEGIC>MOL_PROPERTY
VdW
SciTegic.value.DoubleValue
0.335

@<SCITEGIC>MOL_PROPERTY
VdW6
SciTegic.value.DoubleValue
-5.021

@<SCITEGIC>MOL_PROPERTY
VdW12
SciTegic.value.DoubleValue
5.356

@<SCITEGIC>MOL_PROPERTY
Bond
SciTegic.value.DoubleValue
0.092

@<SCITEGIC>MOL_PROPERTY
Angle
SciTegic.value.DoubleValue
2.417

@<SCITEGIC>MOL_PROPERTY
Pdih
SciTegic.value.DoubleValue
4.002

@<SCITEGIC>MOL_PROPERTY
Idih
SciTegic.value.DoubleValue
0.001

@<SCITEGIC>MOL_PROPERTY
Tether
SciTegic.value.DoubleValue
0.000

@<TRIPOS>MOLECULE
guest-s18_confgen4.mol2 : confsearch ligand conformer 607
          16          15           1
SMALL
USER_CHARGES
 
@<TRIPOS>ATOM
       1    C1      17.857358   18.739467   21.527394 C.2        1 MOL1         0.6075
       2    O1      17.136126   17.933975   22.082185 O.co2      1 MOL1        -0.6830
       3    O2      17.996068   18.795932   20.321628 O.co2      1 MOL1        -0.6830
       4    C2      18.600673   19.754747   22.391358 C.3        1 MOL1        -0.2050
       5    H1      17.864238   20.212207   23.062382 H          1 MOL1         0.0710
       6    H2      18.974319   20.558683   21.746902 H          1 MOL1         0.0710
       7    C3      19.755207   19.147850   23.234807 C.3        1 MOL1        -0.1947
       8    H3      20.178117   19.928804   23.881051 H          1 MOL1         0.0712
       9    H4      19.338019   18.384832   23.906456 H          1 MOL1         0.0712
      10    C4      20.889679   18.510418   22.397763 C.3        1 MOL1        -0.1921
      11    H5      20.484873   17.703090   21.771704 H          1 MOL1         0.0712
      12    H6      21.610149   18.040039   23.080986 H          1 MOL1         0.0712
      13    C5      21.636779   19.528352   21.510015 C.3        1 MOL1        -0.2936
      14    H7      20.979981   19.933197   20.729500 H          1 MOL1         0.0724
      15    H8      22.488741   19.049129   21.010650 H          1 MOL1         0.0724
      16    H9      22.021276   20.365026   22.107681 H          1 MOL1         0.0724
@<TRIPOS>BOND
    1     1     2    1
    2     1     3    2
    3     1     4    1
    4     4     5    1
    5     4     6    1
    6     4     7    1
    7     7     8    1
    8     7     9    1
    9     7    10    1
   10    10    11    1
   11    10    12    1
   12    10    13    1
   13    13    14    1
   14    13    15    1
   15    13    16    1
@<TRIPOS>SUBSTRUCTURE
       1 MOL1            1 RESIDUE      1      MOL     
@<SCITEGIC>MOL_PROPERTY
VConf Rank
SciTegic.value.IntegerValue
607

@<SCITEGIC>MOL_PROPERTY
Conf_Id
SciTegic.value.IntegerValue
37

@<SCITEGIC>MOL_PROPERTY
Delta U+W
SciTegic.value.DoubleValue
1.063

@<SCITEGIC>MOL_PROPERTY
U+W
SciTegic.value.DoubleValue
-55.841

@<SCITEGIC>MOL_PROPERTY
Grad RMS
SciTegic.value.DoubleValue
0.000000

@<SCITEGIC>MOL_PROPERTY
U
SciTegic.value.DoubleValue
9.719

@<SCITEGIC>MOL_PROPERTY
W
SciTegic.value.DoubleValue
-65.560

@<SCITEGIC>MOL_PROPERTY
W(PB)
SciTegic.value.DoubleValue
-67.414

@<SCITEGIC>MOL_PROPERTY
W(SA)
SciTegic.value.DoubleValue
1.854

@<SCITEGIC>MOL_PROPERTY
Valence
SciTegic.value.DoubleValue
7.002

@<SCITEGIC>MOL_PROPERTY
Coulomb
SciTegic.value.DoubleValue
2.402

@<SCITEGIC>MOL_PROPERTY
VdW
SciTegic.value.DoubleValue
0.314

@<SCITEGIC>MOL_PROPERTY
VdW6
SciTegic.value.DoubleValue
-5.861

@<SCITEGIC>MOL_PROPERTY
VdW12
SciTegic.value.DoubleValue
6.175

@<SCITEGIC>MOL_PROPERTY
Bond
SciTegic.value.DoubleValue
0.134

@<SCITEGIC>MOL_PROPERTY
Angle
SciTegic.value.DoubleValue
2.733

@<SCITEGIC>MOL_PROPERTY
Pdih
SciTegic.value.DoubleValue
4.133

@<SCITEGIC>MOL_PROPERTY
Idih
SciTegic.value.DoubleValue
0.002

@<SCITEGIC>MOL_PROPERTY
Tether
SciTegic.value.DoubleValue
0.000

@<TRIPOS>MOLECULE
guest-s18_confgen4.mol2 : confsearch ligand conformer 608
          16          15           1
SMALL
USER_CHARGES
 
@<TRIPOS>ATOM
       1    C1      19.218060   19.860746   23.975182 C.2        1 MOL1         0.6075
       2    O1      19.076125   19.177852   24.970318 O.co2      1 MOL1        -0.6830
       3    O2      19.642681   20.998929   23.998353 O.co2      1 MOL1        -0.6830
       4    C2      18.807792   19.266883   22.630283 C.3        1 MOL1        -0.2050
       5    H1      18.736878   20.076542   21.894979 H          1 MOL1         0.0710
       6    H2      17.794622   18.864850   22.747490 H          1 MOL1         0.0710
       7    C3      19.749172   18.142704   22.117736 C.3        1 MOL1        -0.1947
       8    H3      19.754816   17.325270   22.851987 H          1 MOL1         0.0712
       9    H4      19.336001   17.721514   21.191313 H          1 MOL1         0.0712
      10    C4      21.206362   18.597140   21.864601 C.3        1 MOL1        -0.1921
      11    H5      21.806116   17.719385   21.587165 H          1 MOL1         0.0712
      12    H6      21.643216   18.988898   22.793730 H          1 MOL1         0.0712
      13    C5      21.328440   19.656535   20.748707 C.3        1 MOL1        -0.2936
      14    H7      20.866993   19.303062   19.817477 H          1 MOL1         0.0724
      15    H8      22.383895   19.875755   20.541781 H          1 MOL1         0.0724
      16    H9      20.845131   20.598084   21.039198 H          1 MOL1         0.0724
@<TRIPOS>BOND
    1     1     2    1
    2     1     3    2
    3     1     4    1
    4     4     5    1
    5     4     6    1
    6     4     7    1
    7     7     8    1
    8     7     9    1
    9     7    10    1
   10    10    11    1
   11    10    12    1
   12    10    13    1
   13    13    14    1
   14    13    15    1
   15    13    16    1
@<TRIPOS>SUBSTRUCTURE
       1 MOL1            1 RESIDUE      1      MOL     
@<SCITEGIC>MOL_PROPERTY
VConf Rank
SciTegic.value.IntegerValue
608

@<SCITEGIC>MOL_PROPERTY
Conf_Id
SciTegic.value.IntegerValue
39

@<SCITEGIC>MOL_PROPERTY
Delta U+W
SciTegic.value.DoubleValue
1.129

@<SCITEGIC>MOL_PROPERTY
U+W
SciTegic.value.DoubleValue
-55.775

@<SCITEGIC>MOL_PROPERTY
Grad RMS
SciTegic.value.DoubleValue
0.000000

@<SCITEGIC>MOL_PROPERTY
U
SciTegic.value.DoubleValue
9.718

@<SCITEGIC>MOL_PROPERTY
W
SciTegic.value.DoubleValue
-65.493

@<SCITEGIC>MOL_PROPERTY
W(PB)
SciTegic.value.DoubleValue
-67.361

@<SCITEGIC>MOL_PROPERTY
W(SA)
SciTegic.value.DoubleValue
1.869

@<SCITEGIC>MOL_PROPERTY
Valence
SciTegic.value.DoubleValue
7.002

@<SCITEGIC>MOL_PROPERTY
Coulomb
SciTegic.value.DoubleValue
2.402

@<SCITEGIC>MOL_PROPERTY
VdW
SciTegic.value.DoubleValue
0.314

@<SCITEGIC>MOL_PROPERTY
VdW6
SciTegic.value.DoubleValue
-5.861

@<SCITEGIC>MOL_PROPERTY
VdW12
SciTegic.value.DoubleValue
6.175

@<SCITEGIC>MOL_PROPERTY
Bond
SciTegic.value.DoubleValue
0.134

@<SCITEGIC>MOL_PROPERTY
Angle
SciTegic.value.DoubleValue
2.734

@<SCITEGIC>MOL_PROPERTY
Pdih
SciTegic.value.DoubleValue
4.133

@<SCITEGIC>MOL_PROPERTY
Idih
SciTegic.value.DoubleValue
0.002

@<SCITEGIC>MOL_PROPERTY
Tether
SciTegic.value.DoubleValue
0.000

@<TRIPOS>MOLECULE
guest-s18_confgen4.mol2 : confsearch ligand conformer 609
          16          15           1
SMALL
USER_CHARGES
 
@<TRIPOS>ATOM
       1    C1      20.420409   17.375020   21.374125 C.2        1 MOL1         0.6075
       2    O1      20.372032   17.480644   20.164446 O.co2      1 MOL1        -0.6830
       3    O2      19.924935   16.448276   21.984707 O.co2      1 MOL1        -0.6830
       4    C2      21.222298   18.413178   22.156978 C.3        1 MOL1        -0.2050
       5    H1      21.664756   19.127841   21.452374 H          1 MOL1         0.0710
       6    H2      22.056218   17.873617   22.620875 H          1 MOL1         0.0710
       7    C3      20.431787   19.167533   23.262882 C.3        1 MOL1        -0.1947
       8    H3      19.825727   18.456368   23.841222 H          1 MOL1         0.0712
       9    H4      21.158105   19.590990   23.969705 H          1 MOL1         0.0712
      10    C4      19.544133   20.326081   22.747714 C.3        1 MOL1        -0.1921
      11    H5      20.153283   21.033675   22.168509 H          1 MOL1         0.0712
      12    H6      19.163878   20.884101   23.614497 H          1 MOL1         0.0712
      13    C5      18.341784   19.861328   21.899981 C.3        1 MOL1        -0.2936
      14    H7      18.667821   19.442946   20.939953 H          1 MOL1         0.0724
      15    H8      17.675961   20.706366   21.682358 H          1 MOL1         0.0724
      16    H9      17.758164   19.096857   22.429415 H          1 MOL1         0.0724
@<TRIPOS>BOND
    1     1     2    1
    2     1     3    2
    3     1     4    1
    4     4     5    1
    5     4     6    1
    6     4     7    1
    7     7     8    1
    8     7     9    1
    9     7    10    1
   10    10    11    1
   11    10    12    1
   12    10    13    1
   13    13    14    1
   14    13    15    1
   15    13    16    1
@<TRIPOS>SUBSTRUCTURE
       1 MOL1            1 RESIDUE      1      MOL     
@<SCITEGIC>MOL_PROPERTY
VConf Rank
SciTegic.value.IntegerValue
609

@<SCITEGIC>MOL_PROPERTY
Conf_Id
SciTegic.value.IntegerValue
47

@<SCITEGIC>MOL_PROPERTY
Delta U+W
SciTegic.value.DoubleValue
2.301

@<SCITEGIC>MOL_PROPERTY
U+W
SciTegic.value.DoubleValue
-54.603

@<SCITEGIC>MOL_PROPERTY
Grad RMS
SciTegic.value.DoubleValue
0.000000

@<SCITEGIC>MOL_PROPERTY
U
SciTegic.value.DoubleValue
11.258

@<SCITEGIC>MOL_PROPERTY
W
SciTegic.value.DoubleValue
-65.861

@<SCITEGIC>MOL_PROPERTY
W(PB)
SciTegic.value.DoubleValue
-67.702

@<SCITEGIC>MOL_PROPERTY
W(SA)
SciTegic.value.DoubleValue
1.841

@<SCITEGIC>MOL_PROPERTY
Valence
SciTegic.value.DoubleValue
8.169

@<SCITEGIC>MOL_PROPERTY
Coulomb
SciTegic.value.DoubleValue
2.735

@<SCITEGIC>MOL_PROPERTY
VdW
SciTegic.value.DoubleValue
0.355

@<SCITEGIC>MOL_PROPERTY
VdW6
SciTegic.value.DoubleValue
-6.245

@<SCITEGIC>MOL_PROPERTY
VdW12
SciTegic.value.DoubleValue
6.600

@<SCITEGIC>MOL_PROPERTY
Bond
SciTegic.value.DoubleValue
0.149

@<SCITEGIC>MOL_PROPERTY
Angle
SciTegic.value.DoubleValue
3.168

@<SCITEGIC>MOL_PROPERTY
Pdih
SciTegic.value.DoubleValue
4.840

@<SCITEGIC>MOL_PROPERTY
Idih
SciTegic.value.DoubleValue
0.011

@<SCITEGIC>MOL_PROPERTY
Tether
SciTegic.value.DoubleValue
0.000

@<TRIPOS>MOLECULE
guest-s18_confgen4.mol2 : confsearch ligand conformer 610
          16          15           1
SMALL
USER_CHARGES
 
@<TRIPOS>ATOM
       1    C1      21.008808   20.753690   22.346179 C.2        1 MOL1         0.6075
       2    O1      21.449399   20.976600   21.235617 O.co2      1 MOL1        -0.6830
       3    O2      21.691428   20.767956   23.351488 O.co2      1 MOL1        -0.6830
       4    C2      19.504911   20.533098   22.498828 C.3        1 MOL1        -0.2050
       5    H1      19.021333   21.456424   22.159165 H          1 MOL1         0.0710
       6    H2      19.266005   20.427843   23.564109 H          1 MOL1         0.0710
       7    C3      18.924327   19.334705   21.696479 C.3        1 MOL1        -0.1947
       8    H3      17.842711   19.491883   21.587604 H          1 MOL1         0.0712
       9    H4      19.334171   19.332962   20.676889 H          1 MOL1         0.0712
      10    C4      19.135935   17.950842   22.356562 C.3        1 MOL1        -0.1921
      11    H5      18.554702   17.205999   21.795607 H          1 MOL1         0.0712
      12    H6      18.726562   17.957310   23.376172 H          1 MOL1         0.0712
      13    C5      20.609533   17.495265   22.391815 C.3        1 MOL1        -0.2936
      14    H7      20.682104   16.456790   22.739771 H          1 MOL1         0.0724
      15    H8      21.202741   18.114242   23.075899 H          1 MOL1         0.0724
      16    H9      21.063484   17.551407   21.393764 H          1 MOL1         0.0724
@<TRIPOS>BOND
    1     1     2    1
    2     1     3    2
    3     1     4    1
    4     4     5    1
    5     4     6    1
    6     4     7    1
    7     7     8    1
    8     7     9    1
    9     7    10    1
   10    10    11    1
   11    10    12    1
   12    10    13    1
   13    13    14    1
   14    13    15    1
   15    13    16    1
@<TRIPOS>SUBSTRUCTURE
       1 MOL1            1 RESIDUE      1      MOL     
@<SCITEGIC>MOL_PROPERTY
VConf Rank
SciTegic.value.IntegerValue
610

@<SCITEGIC>MOL_PROPERTY
Conf_Id
SciTegic.value.IntegerValue
45

@<SCITEGIC>MOL_PROPERTY
Delta U+W
SciTegic.value.DoubleValue
2.303

@<SCITEGIC>MOL_PROPERTY
U+W
SciTegic.value.DoubleValue
-54.601

@<SCITEGIC>MOL_PROPERTY
Grad RMS
SciTegic.value.DoubleValue
0.000000

@<SCITEGIC>MOL_PROPERTY
U
SciTegic.value.DoubleValue
11.258

@<SCITEGIC>MOL_PROPERTY
W
SciTegic.value.DoubleValue
-65.860

@<SCITEGIC>MOL_PROPERTY
W(PB)
SciTegic.value.DoubleValue
-67.709

@<SCITEGIC>MOL_PROPERTY
W(SA)
SciTegic.value.DoubleValue
1.849

@<SCITEGIC>MOL_PROPERTY
Valence
SciTegic.value.DoubleValue
8.169

@<SCITEGIC>MOL_PROPERTY
Coulomb
SciTegic.value.DoubleValue
2.735

@<SCITEGIC>MOL_PROPERTY
VdW
SciTegic.value.DoubleValue
0.355

@<SCITEGIC>MOL_PROPERTY
VdW6
SciTegic.value.DoubleValue
-6.245

@<SCITEGIC>MOL_PROPERTY
VdW12
SciTegic.value.DoubleValue
6.600

@<SCITEGIC>MOL_PROPERTY
Bond
SciTegic.value.DoubleValue
0.149

@<SCITEGIC>MOL_PROPERTY
Angle
SciTegic.value.DoubleValue
3.168

@<SCITEGIC>MOL_PROPERTY
Pdih
SciTegic.value.DoubleValue
4.840

@<SCITEGIC>MOL_PROPERTY
Idih
SciTegic.value.DoubleValue
0.011

@<SCITEGIC>MOL_PROPERTY
Tether
SciTegic.value.DoubleValue
0.000

@<TRIPOS>MOLECULE
guest-s18_confgen4.mol2 : confsearch ligand conformer 611
          16          15           1
SMALL
USER_CHARGES
 
@<TRIPOS>ATOM
       1    C1      19.343867   20.707350   19.767473 C.2        1 MOL1         0.6075
       2    O1      20.290651   20.347947   19.095011 O.co2      1 MOL1        -0.6830
       3    O2      18.523606   21.514279   19.378434 O.co2      1 MOL1        -0.6830
       4    C2      19.148931   20.135650   21.172839 C.3        1 MOL1        -0.2050
       5    H1      18.156374   19.670757   21.202240 H          1 MOL1         0.0710
       6    H2      19.127648   20.981482   21.870176 H          1 MOL1         0.0710
       7    C3      20.221246   19.109749   21.626730 C.3        1 MOL1        -0.1947
       8    H3      20.241683   18.267414   20.921377 H          1 MOL1         0.0712
       9    H4      21.213949   19.579495   21.590016 H          1 MOL1         0.0712
      10    C4      19.947123   18.586399   23.052290 C.3        1 MOL1        -0.1921
      11    H5      18.955323   18.114790   23.089948 H          1 MOL1         0.0712
      12    H6      19.928168   19.427650   23.758998 H          1 MOL1         0.0712
      13    C5      21.015314   17.568048   23.497340 C.3        1 MOL1        -0.2936
      14    H7      21.034676   16.700142   22.825155 H          1 MOL1         0.0724
      15    H8      20.805666   17.206143   24.512335 H          1 MOL1         0.0724
      16    H9      22.014701   18.022684   23.499144 H          1 MOL1         0.0724
@<TRIPOS>BOND
    1     1     2    1
    2     1     3    2
    3     1     4    1
    4     4     5    1
    5     4     6    1
    6     4     7    1
    7     7     8    1
    8     7     9    1
    9     7    10    1
   10    10    11    1
   11    10    12    1
   12    10    13    1
   13    13    14    1
   14    13    15    1
   15    13    16    1
@<TRIPOS>SUBSTRUCTURE
       1 MOL1            1 RESIDUE      1      MOL     
@<SCITEGIC>MOL_PROPERTY
VConf Rank
SciTegic.value.IntegerValue
611

@<SCITEGIC>MOL_PROPERTY
Conf_Id
SciTegic.value.IntegerValue
0

@<SCITEGIC>MOL_PROPERTY
Delta U+W
SciTegic.value.DoubleValue
0.000

@<SCITEGIC>MOL_PROPERTY
U+W
SciTegic.value.DoubleValue
-56.904

@<SCITEGIC>MOL_PROPERTY
Grad RMS
SciTegic.value.DoubleValue
0.000000

@<SCITEGIC>MOL_PROPERTY
U
SciTegic.value.DoubleValue
7.329

@<SCITEGIC>MOL_PROPERTY
W
SciTegic.value.DoubleValue
-64.233

@<SCITEGIC>MOL_PROPERTY
W(PB)
SciTegic.value.DoubleValue
-66.148

@<SCITEGIC>MOL_PROPERTY
W(SA)
SciTegic.value.DoubleValue
1.915

@<SCITEGIC>MOL_PROPERTY
Valence
SciTegic.value.DoubleValue
6.755

@<SCITEGIC>MOL_PROPERTY
Coulomb
SciTegic.value.DoubleValue
-0.421

@<SCITEGIC>MOL_PROPERTY
VdW
SciTegic.value.DoubleValue
0.995

@<SCITEGIC>MOL_PROPERTY
VdW6
SciTegic.value.DoubleValue
-4.495

@<SCITEGIC>MOL_PROPERTY
VdW12
SciTegic.value.DoubleValue
5.490

@<SCITEGIC>MOL_PROPERTY
Bond
SciTegic.value.DoubleValue
0.106

@<SCITEGIC>MOL_PROPERTY
Angle
SciTegic.value.DoubleValue
2.715

@<SCITEGIC>MOL_PROPERTY
Pdih
SciTegic.value.DoubleValue
3.934

@<SCITEGIC>MOL_PROPERTY
Idih
SciTegic.value.DoubleValue
0.000

@<SCITEGIC>MOL_PROPERTY
Tether
SciTegic.value.DoubleValue
0.000

@<TRIPOS>MOLECULE
guest-s18_confgen4.mol2 : confsearch ligand conformer 612
          16          15           1
SMALL
USER_CHARGES
 
@<TRIPOS>ATOM
       1    C1      22.678317   18.939621   21.265259 C.2        1 MOL1         0.6075
       2    O1      22.987019   17.914155   20.691705 O.co2      1 MOL1        -0.6830
       3    O2      23.231494   20.005369   21.080811 O.co2      1 MOL1        -0.6830
       4    C2      21.521622   18.890251   22.257329 C.3        1 MOL1        -0.2050
       5    H1      21.719359   19.623572   23.048524 H          1 MOL1         0.0710
       6    H2      21.517723   17.899468   22.727631 H          1 MOL1         0.0710
       7    C3      20.149434   19.173480   21.597828 C.3        1 MOL1        -0.1947
       8    H3      20.173217   20.163208   21.120940 H          1 MOL1         0.0712
       9    H4      19.971595   18.439066   20.799980 H          1 MOL1         0.0712
      10    C4      18.997345   19.117445   22.622579 C.3        1 MOL1        -0.1921
      11    H5      19.174477   19.852213   23.420250 H          1 MOL1         0.0712
      12    H6      18.972827   18.127631   23.099239 H          1 MOL1         0.0712
      13    C5      17.634944   19.400217   21.959251 C.3        1 MOL1        -0.2936
      14    H7      17.417593   18.660501   21.177554 H          1 MOL1         0.0724
      15    H8      17.620742   20.397813   21.500915 H          1 MOL1         0.0724
      16    H9      16.827036   19.356582   22.701228 H          1 MOL1         0.0724
@<TRIPOS>BOND
    1     1     2    1
    2     1     3    2
    3     1     4    1
    4     4     5    1
    5     4     6    1
    6     4     7    1
    7     7     8    1
    8     7     9    1
    9     7    10    1
   10    10    11    1
   11    10    12    1
   12    10    13    1
   13    13    14    1
   14    13    15    1
   15    13    16    1
@<TRIPOS>SUBSTRUCTURE
       1 MOL1            1 RESIDUE      1      MOL     
@<SCITEGIC>MOL_PROPERTY
VConf Rank
SciTegic.value.IntegerValue
612

@<SCITEGIC>MOL_PROPERTY
Conf_Id
SciTegic.value.IntegerValue
22

@<SCITEGIC>MOL_PROPERTY
Delta U+W
SciTegic.value.DoubleValue
-1.185

@<SCITEGIC>MOL_PROPERTY
U+W
SciTegic.value.DoubleValue
-58.089

@<SCITEGIC>MOL_PROPERTY
Grad RMS
SciTegic.value.DoubleValue
0.000000

@<SCITEGIC>MOL_PROPERTY
U
SciTegic.value.DoubleValue
6.298

@<SCITEGIC>MOL_PROPERTY
W
SciTegic.value.DoubleValue
-64.387

@<SCITEGIC>MOL_PROPERTY
W(PB)
SciTegic.value.DoubleValue
-66.329

@<SCITEGIC>MOL_PROPERTY
W(SA)
SciTegic.value.DoubleValue
1.942

@<SCITEGIC>MOL_PROPERTY
Valence
SciTegic.value.DoubleValue
6.246

@<SCITEGIC>MOL_PROPERTY
Coulomb
SciTegic.value.DoubleValue
-0.408

@<SCITEGIC>MOL_PROPERTY
VdW
SciTegic.value.DoubleValue
0.460

@<SCITEGIC>MOL_PROPERTY
VdW6
SciTegic.value.DoubleValue
-4.207

@<SCITEGIC>MOL_PROPERTY
VdW12
SciTegic.value.DoubleValue
4.667

@<SCITEGIC>MOL_PROPERTY
Bond
SciTegic.value.DoubleValue
0.072

@<SCITEGIC>MOL_PROPERTY
Angle
SciTegic.value.DoubleValue
2.246

@<SCITEGIC>MOL_PROPERTY
Pdih
SciTegic.value.DoubleValue
3.928

@<SCITEGIC>MOL_PROPERTY
Idih
SciTegic.value.DoubleValue
0.001

@<SCITEGIC>MOL_PROPERTY
Tether
SciTegic.value.DoubleValue
0.000

@<TRIPOS>MOLECULE
guest-s18_confgen4.mol2 : confsearch ligand conformer 613
          16          15           1
SMALL
USER_CHARGES
 
@<TRIPOS>ATOM
       1    C1      22.409210   19.689044   22.642312 C.2        1 MOL1         0.6075
       2    O1      22.779875   19.728308   23.798625 O.co2      1 MOL1        -0.6830
       3    O2      22.996794   20.235117   21.729894 O.co2      1 MOL1        -0.6830
       4    C2      21.126171   18.930078   22.322386 C.3        1 MOL1        -0.2050
       5    H1      21.042850   18.091244   23.023799 H          1 MOL1         0.0710
       6    H2      21.230914   18.504692   21.317799 H          1 MOL1         0.0710
       7    C3      19.861943   19.824314   22.406410 C.3        1 MOL1        -0.1947
       8    H3      19.833182   20.303255   23.394952 H          1 MOL1         0.0712
       9    H4      19.937623   20.636197   21.669914 H          1 MOL1         0.0712
      10    C4      18.542831   19.046703   22.192694 C.3        1 MOL1        -0.1921
      11    H5      17.698802   19.725912   22.375992 H          1 MOL1         0.0712
      12    H6      18.461381   18.242120   22.936598 H          1 MOL1         0.0712
      13    C5      18.407419   18.456507   20.772741 C.3        1 MOL1        -0.2936
      14    H7      19.165509   17.685925   20.584900 H          1 MOL1         0.0724
      15    H8      18.514533   19.238986   20.010177 H          1 MOL1         0.0724
      16    H9      17.421681   17.991169   20.643173 H          1 MOL1         0.0724
@<TRIPOS>BOND
    1     1     2    1
    2     1     3    2
    3     1     4    1
    4     4     5    1
    5     4     6    1
    6     4     7    1
    7     7     8    1
    8     7     9    1
    9     7    10    1
   10    10    11    1
   11    10    12    1
   12    10    13    1
   13    13    14    1
   14    13    15    1
   15    13    16    1
@<TRIPOS>SUBSTRUCTURE
       1 MOL1            1 RESIDUE      1      MOL     
@<SCITEGIC>MOL_PROPERTY
VConf Rank
SciTegic.value.IntegerValue
613

@<SCITEGIC>MOL_PROPERTY
Conf_Id
SciTegic.value.IntegerValue
36

@<SCITEGIC>MOL_PROPERTY
Delta U+W
SciTegic.value.DoubleValue
-0.427

@<SCITEGIC>MOL_PROPERTY
U+W
SciTegic.value.DoubleValue
-57.331

@<SCITEGIC>MOL_PROPERTY
Grad RMS
SciTegic.value.DoubleValue
0.000000

@<SCITEGIC>MOL_PROPERTY
U
SciTegic.value.DoubleValue
7.263

@<SCITEGIC>MOL_PROPERTY
W
SciTegic.value.DoubleValue
-64.594

@<SCITEGIC>MOL_PROPERTY
W(PB)
SciTegic.value.DoubleValue
-66.513

@<SCITEGIC>MOL_PROPERTY
W(SA)
SciTegic.value.DoubleValue
1.920

@<SCITEGIC>MOL_PROPERTY
Valence
SciTegic.value.DoubleValue
6.734

@<SCITEGIC>MOL_PROPERTY
Coulomb
SciTegic.value.DoubleValue
-0.068

@<SCITEGIC>MOL_PROPERTY
VdW
SciTegic.value.DoubleValue
0.598

@<SCITEGIC>MOL_PROPERTY
VdW6
SciTegic.value.DoubleValue
-4.819

@<SCITEGIC>MOL_PROPERTY
VdW12
SciTegic.value.DoubleValue
5.417

@<SCITEGIC>MOL_PROPERTY
Bond
SciTegic.value.DoubleValue
0.107

@<SCITEGIC>MOL_PROPERTY
Angle
SciTegic.value.DoubleValue
2.469

@<SCITEGIC>MOL_PROPERTY
Pdih
SciTegic.value.DoubleValue
4.157

@<SCITEGIC>MOL_PROPERTY
Idih
SciTegic.value.DoubleValue
0.001

@<SCITEGIC>MOL_PROPERTY
Tether
SciTegic.value.DoubleValue
0.000

@<TRIPOS>MOLECULE
guest-s18_confgen4.mol2 : confsearch ligand conformer 614
          16          15           1
SMALL
USER_CHARGES
 
@<TRIPOS>ATOM
       1    C1      20.630124   16.977605   20.735089 C.2        1 MOL1         0.6075
       2    O1      21.554283   16.415774   21.288474 O.co2      1 MOL1        -0.6830
       3    O2      20.313685   16.771732   19.580326 O.co2      1 MOL1        -0.6830
       4    C2      19.836827   18.011792   21.526108 C.3        1 MOL1        -0.2050
       5    H1      19.821425   17.691420   22.574078 H          1 MOL1         0.0710
       6    H2      18.801294   17.995190   21.165606 H          1 MOL1         0.0710
       7    C3      20.422785   19.442275   21.402148 C.3        1 MOL1        -0.1947
       8    H3      21.444776   19.455983   21.805455 H          1 MOL1         0.0712
       9    H4      20.505664   19.698909   20.336926 H          1 MOL1         0.0712
      10    C4      19.568436   20.520503   22.107783 C.3        1 MOL1        -0.1921
      11    H5      18.549570   20.514881   21.696372 H          1 MOL1         0.0712
      12    H6      19.989792   21.509509   21.880549 H          1 MOL1         0.0712
      13    C5      19.510448   20.344385   23.640281 C.3        1 MOL1        -0.2936
      14    H7      18.992717   19.417784   23.918033 H          1 MOL1         0.0724
      15    H8      18.967625   21.179320   24.102055 H          1 MOL1         0.0724
      16    H9      20.519838   20.318077   24.071199 H          1 MOL1         0.0724
@<TRIPOS>BOND
    1     1     2    1
    2     1     3    2
    3     1     4    1
    4     4     5    1
    5     4     6    1
    6     4     7    1
    7     7     8    1
    8     7     9    1
    9     7    10    1
   10    10    11    1
   11    10    12    1
   12    10    13    1
   13    13    14    1
   14    13    15    1
   15    13    16    1
@<TRIPOS>SUBSTRUCTURE
       1 MOL1            1 RESIDUE      1      MOL     
@<SCITEGIC>MOL_PROPERTY
VConf Rank
SciTegic.value.IntegerValue
614

@<SCITEGIC>MOL_PROPERTY
Conf_Id
SciTegic.value.IntegerValue
17

@<SCITEGIC>MOL_PROPERTY
Delta U+W
SciTegic.value.DoubleValue
-0.432

@<SCITEGIC>MOL_PROPERTY
U+W
SciTegic.value.DoubleValue
-57.336

@<SCITEGIC>MOL_PROPERTY
Grad RMS
SciTegic.value.DoubleValue
0.000000

@<SCITEGIC>MOL_PROPERTY
U
SciTegic.value.DoubleValue
7.263

@<SCITEGIC>MOL_PROPERTY
W
SciTegic.value.DoubleValue
-64.599

@<SCITEGIC>MOL_PROPERTY
W(PB)
SciTegic.value.DoubleValue
-66.503

@<SCITEGIC>MOL_PROPERTY
W(SA)
SciTegic.value.DoubleValue
1.904

@<SCITEGIC>MOL_PROPERTY
Valence
SciTegic.value.DoubleValue
6.734

@<SCITEGIC>MOL_PROPERTY
Coulomb
SciTegic.value.DoubleValue
-0.068

@<SCITEGIC>MOL_PROPERTY
VdW
SciTegic.value.DoubleValue
0.598

@<SCITEGIC>MOL_PROPERTY
VdW6
SciTegic.value.DoubleValue
-4.819

@<SCITEGIC>MOL_PROPERTY
VdW12
SciTegic.value.DoubleValue
5.417

@<SCITEGIC>MOL_PROPERTY
Bond
SciTegic.value.DoubleValue
0.107

@<SCITEGIC>MOL_PROPERTY
Angle
SciTegic.value.DoubleValue
2.469

@<SCITEGIC>MOL_PROPERTY
Pdih
SciTegic.value.DoubleValue
4.157

@<SCITEGIC>MOL_PROPERTY
Idih
SciTegic.value.DoubleValue
0.001

@<SCITEGIC>MOL_PROPERTY
Tether
SciTegic.value.DoubleValue
0.000

@<TRIPOS>MOLECULE
guest-s18_confgen4.mol2 : confsearch ligand conformer 615
          16          15           1
SMALL
USER_CHARGES
 
@<TRIPOS>ATOM
       1    C1      19.932078   20.601315   23.939271 C.2        1 MOL1         0.6075
       2    O1      20.114543   20.059971   25.011650 O.co2      1 MOL1        -0.6830
       3    O2      20.467315   21.642240   23.613301 O.co2      1 MOL1        -0.6830
       4    C2      18.959439   19.949499   22.960189 C.3        1 MOL1        -0.2050
       5    H1      18.642486   20.701850   22.227664 H          1 MOL1         0.0710
       6    H2      18.065745   19.662966   23.527149 H          1 MOL1         0.0710
       7    C3      19.532461   18.704538   22.234413 C.3        1 MOL1        -0.1947
       8    H3      19.871813   17.972290   22.980253 H          1 MOL1         0.0712
       9    H4      18.727451   18.223443   21.662517 H          1 MOL1         0.0712
      10    C4      20.694430   19.055896   21.280182 C.3        1 MOL1        -0.1921
      11    H5      21.514950   19.519731   21.845273 H          1 MOL1         0.0712
      12    H6      20.357116   19.797380   20.542755 H          1 MOL1         0.0712
      13    C5      21.222579   17.806905   20.547090 C.3        1 MOL1        -0.2936
      14    H7      21.595201   17.060932   21.261321 H          1 MOL1         0.0724
      15    H8      22.047869   18.073746   19.874179 H          1 MOL1         0.0724
      16    H9      20.431626   17.340580   19.945134 H          1 MOL1         0.0724
@<TRIPOS>BOND
    1     1     2    1
    2     1     3    2
    3     1     4    1
    4     4     5    1
    5     4     6    1
    6     4     7    1
    7     7     8    1
    8     7     9    1
    9     7    10    1
   10    10    11    1
   11    10    12    1
   12    10    13    1
   13    13    14    1
   14    13    15    1
   15    13    16    1
@<TRIPOS>SUBSTRUCTURE
       1 MOL1            1 RESIDUE      1      MOL     
@<SCITEGIC>MOL_PROPERTY
VConf Rank
SciTegic.value.IntegerValue
615

@<SCITEGIC>MOL_PROPERTY
Conf_Id
SciTegic.value.IntegerValue
19

@<SCITEGIC>MOL_PROPERTY
Delta U+W
SciTegic.value.DoubleValue
0.048

@<SCITEGIC>MOL_PROPERTY
U+W
SciTegic.value.DoubleValue
-56.856

@<SCITEGIC>MOL_PROPERTY
Grad RMS
SciTegic.value.DoubleValue
0.000000

@<SCITEGIC>MOL_PROPERTY
U
SciTegic.value.DoubleValue
8.276

@<SCITEGIC>MOL_PROPERTY
W
SciTegic.value.DoubleValue
-65.132

@<SCITEGIC>MOL_PROPERTY
W(PB)
SciTegic.value.DoubleValue
-67.031

@<SCITEGIC>MOL_PROPERTY
W(SA)
SciTegic.value.DoubleValue
1.899

@<SCITEGIC>MOL_PROPERTY
Valence
SciTegic.value.DoubleValue
6.513

@<SCITEGIC>MOL_PROPERTY
Coulomb
SciTegic.value.DoubleValue
1.428

@<SCITEGIC>MOL_PROPERTY
VdW
SciTegic.value.DoubleValue
0.335

@<SCITEGIC>MOL_PROPERTY
VdW6
SciTegic.value.DoubleValue
-5.021

@<SCITEGIC>MOL_PROPERTY
VdW12
SciTegic.value.DoubleValue
5.356

@<SCITEGIC>MOL_PROPERTY
Bond
SciTegic.value.DoubleValue
0.092

@<SCITEGIC>MOL_PROPERTY
Angle
SciTegic.value.DoubleValue
2.417

@<SCITEGIC>MOL_PROPERTY
Pdih
SciTegic.value.DoubleValue
4.003

@<SCITEGIC>MOL_PROPERTY
Idih
SciTegic.value.DoubleValue
0.001

@<SCITEGIC>MOL_PROPERTY
Tether
SciTegic.value.DoubleValue
0.000

@<TRIPOS>MOLECULE
guest-s18_confgen4.mol2 : confsearch ligand conformer 616
          16          15           1
SMALL
USER_CHARGES
 
@<TRIPOS>ATOM
       1    C1      18.619395   18.346397   23.931902 C.2        1 MOL1         0.6075
       2    O1      19.142812   18.562987   25.006828 O.co2      1 MOL1        -0.6830
       3    O2      18.189583   17.258962   23.601738 O.co2      1 MOL1        -0.6830
       4    C2      18.473987   19.509756   22.954686 C.3        1 MOL1        -0.2050
       5    H1      18.099124   20.369948   23.521944 H          1 MOL1         0.0710
       6    H2      17.702005   19.254749   22.218410 H          1 MOL1         0.0710
       7    C3      19.791409   19.899352   22.235202 C.3        1 MOL1        -0.1947
       8    H3      19.626090   20.823256   21.664562 H          1 MOL1         0.0712
       9    H4      20.562913   20.124285   22.984742 H          1 MOL1         0.0712
      10    C4      20.295731   18.795344   21.280730 C.3        1 MOL1        -0.1921
      11    H5      19.518608   18.562803   20.539527 H          1 MOL1         0.0712
      12    H6      20.484245   17.871129   21.844655 H          1 MOL1         0.0712
      13    C5      21.586725   19.221395   20.553979 C.3        1 MOL1        -0.2936
      14    H7      21.419700   20.125040   19.953194 H          1 MOL1         0.0724
      15    H8      21.931927   18.425865   19.880863 H          1 MOL1         0.0724
      16    H9      22.390545   19.430409   21.272058 H          1 MOL1         0.0724
@<TRIPOS>BOND
    1     1     2    1
    2     1     3    2
    3     1     4    1
    4     4     5    1
    5     4     6    1
    6     4     7    1
    7     7     8    1
    8     7     9    1
    9     7    10    1
   10    10    11    1
   11    10    12    1
   12    10    13    1
   13    13    14    1
   14    13    15    1
   15    13    16    1
@<TRIPOS>SUBSTRUCTURE
       1 MOL1            1 RESIDUE      1      MOL     
@<SCITEGIC>MOL_PROPERTY
VConf Rank
SciTegic.value.IntegerValue
616

@<SCITEGIC>MOL_PROPERTY
Conf_Id
SciTegic.value.IntegerValue
20

@<SCITEGIC>MOL_PROPERTY
Delta U+W
SciTegic.value.DoubleValue
-0.010

@<SCITEGIC>MOL_PROPERTY
U+W
SciTegic.value.DoubleValue
-56.914

@<SCITEGIC>MOL_PROPERTY
Grad RMS
SciTegic.value.DoubleValue
0.000000

@<SCITEGIC>MOL_PROPERTY
U
SciTegic.value.DoubleValue
8.277

@<SCITEGIC>MOL_PROPERTY
W
SciTegic.value.DoubleValue
-65.191

@<SCITEGIC>MOL_PROPERTY
W(PB)
SciTegic.value.DoubleValue
-67.081

@<SCITEGIC>MOL_PROPERTY
W(SA)
SciTegic.value.DoubleValue
1.890

@<SCITEGIC>MOL_PROPERTY
Valence
SciTegic.value.DoubleValue
6.513

@<SCITEGIC>MOL_PROPERTY
Coulomb
SciTegic.value.DoubleValue
1.429

@<SCITEGIC>MOL_PROPERTY
VdW
SciTegic.value.DoubleValue
0.335

@<SCITEGIC>MOL_PROPERTY
VdW6
SciTegic.value.DoubleValue
-5.021

@<SCITEGIC>MOL_PROPERTY
VdW12
SciTegic.value.DoubleValue
5.356

@<SCITEGIC>MOL_PROPERTY
Bond
SciTegic.value.DoubleValue
0.092

@<SCITEGIC>MOL_PROPERTY
Angle
SciTegic.value.DoubleValue
2.417

@<SCITEGIC>MOL_PROPERTY
Pdih
SciTegic.value.DoubleValue
4.002

@<SCITEGIC>MOL_PROPERTY
Idih
SciTegic.value.DoubleValue
0.001

@<SCITEGIC>MOL_PROPERTY
Tether
SciTegic.value.DoubleValue
0.000

@<TRIPOS>MOLECULE
guest-s18_confgen4.mol2 : confsearch ligand conformer 617
          16          15           1
SMALL
USER_CHARGES
 
@<TRIPOS>ATOM
       1    C1      18.501765   18.555486   20.624393 C.2        1 MOL1         0.6075
       2    O1      18.599911   17.501214   20.028017 O.co2      1 MOL1        -0.6830
       3    O2      18.303324   19.620626   20.074486 O.co2      1 MOL1        -0.6830
       4    C2      18.599356   18.532577   22.147448 C.3        1 MOL1        -0.2050
       5    H1      17.911123   17.758238   22.506078 H          1 MOL1         0.0710
       6    H2      18.224776   19.485486   22.538476 H          1 MOL1         0.0710
       7    C3      20.025725   18.241292   22.689024 C.3        1 MOL1        -0.1947
       8    H3      19.986412   18.164166   23.783956 H          1 MOL1         0.0712
       9    H4      20.348071   17.256926   22.322322 H          1 MOL1         0.0712
      10    C4      21.086585   19.294861   22.290829 C.3        1 MOL1        -0.1921
      11    H5      21.160485   19.356674   21.196153 H          1 MOL1         0.0712
      12    H6      22.069338   18.958031   22.648417 H          1 MOL1         0.0712
      13    C5      20.799624   20.696566   22.869897 C.3        1 MOL1        -0.2936
      14    H7      19.884200   21.124371   22.441564 H          1 MOL1         0.0724
      15    H8      21.625093   21.382708   22.640397 H          1 MOL1         0.0724
      16    H9      20.685812   20.656526   23.961002 H          1 MOL1         0.0724
@<TRIPOS>BOND
    1     1     2    1
    2     1     3    2
    3     1     4    1
    4     4     5    1
    5     4     6    1
    6     4     7    1
    7     7     8    1
    8     7     9    1
    9     7    10    1
   10    10    11    1
   11    10    12    1
   12    10    13    1
   13    13    14    1
   14    13    15    1
   15    13    16    1
@<TRIPOS>SUBSTRUCTURE
       1 MOL1            1 RESIDUE      1      MOL     
@<SCITEGIC>MOL_PROPERTY
VConf Rank
SciTegic.value.IntegerValue
617

@<SCITEGIC>MOL_PROPERTY
Conf_Id
SciTegic.value.IntegerValue
37

@<SCITEGIC>MOL_PROPERTY
Delta U+W
SciTegic.value.DoubleValue
1.063

@<SCITEGIC>MOL_PROPERTY
U+W
SciTegic.value.DoubleValue
-55.841

@<SCITEGIC>MOL_PROPERTY
Grad RMS
SciTegic.value.DoubleValue
0.000000

@<SCITEGIC>MOL_PROPERTY
U
SciTegic.value.DoubleValue
9.719

@<SCITEGIC>MOL_PROPERTY
W
SciTegic.value.DoubleValue
-65.560

@<SCITEGIC>MOL_PROPERTY
W(PB)
SciTegic.value.DoubleValue
-67.414

@<SCITEGIC>MOL_PROPERTY
W(SA)
SciTegic.value.DoubleValue
1.854

@<SCITEGIC>MOL_PROPERTY
Valence
SciTegic.value.DoubleValue
7.002

@<SCITEGIC>MOL_PROPERTY
Coulomb
SciTegic.value.DoubleValue
2.402

@<SCITEGIC>MOL_PROPERTY
VdW
SciTegic.value.DoubleValue
0.314

@<SCITEGIC>MOL_PROPERTY
VdW6
SciTegic.value.DoubleValue
-5.861

@<SCITEGIC>MOL_PROPERTY
VdW12
SciTegic.value.DoubleValue
6.175

@<SCITEGIC>MOL_PROPERTY
Bond
SciTegic.value.DoubleValue
0.134

@<SCITEGIC>MOL_PROPERTY
Angle
SciTegic.value.DoubleValue
2.733

@<SCITEGIC>MOL_PROPERTY
Pdih
SciTegic.value.DoubleValue
4.133

@<SCITEGIC>MOL_PROPERTY
Idih
SciTegic.value.DoubleValue
0.002

@<SCITEGIC>MOL_PROPERTY
Tether
SciTegic.value.DoubleValue
0.000

@<TRIPOS>MOLECULE
guest-s18_confgen4.mol2 : confsearch ligand conformer 618
          16          15           1
SMALL
USER_CHARGES
 
@<TRIPOS>ATOM
       1    C1      21.723767   18.698439   20.791342 C.2        1 MOL1         0.6075
       2    O1      21.545588   18.127213   19.733638 O.co2      1 MOL1        -0.6830
       3    O2      22.400326   19.701160   20.905873 O.co2      1 MOL1        -0.6830
       4    C2      21.091420   18.102842   22.046391 C.3        1 MOL1        -0.2050
       5    H1      21.559418   18.558568   22.926471 H          1 MOL1         0.0710
       6    H2      21.355635   17.039128   22.070554 H          1 MOL1         0.0710
       7    C3      19.546342   18.248759   22.110608 C.3        1 MOL1        -0.1947
       8    H3      19.107230   17.735522   21.243934 H          1 MOL1         0.0712
       9    H4      19.171861   17.725310   23.000628 H          1 MOL1         0.0712
      10    C4      19.044268   19.712130   22.131980 C.3        1 MOL1        -0.1921
      11    H5      17.946248   19.708599   22.093653 H          1 MOL1         0.0712
      12    H6      19.383435   20.237637   21.228429 H          1 MOL1         0.0712
      13    C5      19.496277   20.492493   23.384643 C.3        1 MOL1        -0.2936
      14    H7      19.200090   19.969278   24.303112 H          1 MOL1         0.0724
      15    H8      19.038964   21.490224   23.400700 H          1 MOL1         0.0724
      16    H9      20.585428   20.626846   23.398344 H          1 MOL1         0.0724
@<TRIPOS>BOND
    1     1     2    1
    2     1     3    2
    3     1     4    1
    4     4     5    1
    5     4     6    1
    6     4     7    1
    7     7     8    1
    8     7     9    1
    9     7    10    1
   10    10    11    1
   11    10    12    1
   12    10    13    1
   13    13    14    1
   14    13    15    1
   15    13    16    1
@<TRIPOS>SUBSTRUCTURE
       1 MOL1            1 RESIDUE      1      MOL     
@<SCITEGIC>MOL_PROPERTY
VConf Rank
SciTegic.value.IntegerValue
618

@<SCITEGIC>MOL_PROPERTY
Conf_Id
SciTegic.value.IntegerValue
39

@<SCITEGIC>MOL_PROPERTY
Delta U+W
SciTegic.value.DoubleValue
1.129

@<SCITEGIC>MOL_PROPERTY
U+W
SciTegic.value.DoubleValue
-55.775

@<SCITEGIC>MOL_PROPERTY
Grad RMS
SciTegic.value.DoubleValue
0.000000

@<SCITEGIC>MOL_PROPERTY
U
SciTegic.value.DoubleValue
9.718

@<SCITEGIC>MOL_PROPERTY
W
SciTegic.value.DoubleValue
-65.493

@<SCITEGIC>MOL_PROPERTY
W(PB)
SciTegic.value.DoubleValue
-67.361

@<SCITEGIC>MOL_PROPERTY
W(SA)
SciTegic.value.DoubleValue
1.869

@<SCITEGIC>MOL_PROPERTY
Valence
SciTegic.value.DoubleValue
7.002

@<SCITEGIC>MOL_PROPERTY
Coulomb
SciTegic.value.DoubleValue
2.402

@<SCITEGIC>MOL_PROPERTY
VdW
SciTegic.value.DoubleValue
0.314

@<SCITEGIC>MOL_PROPERTY
VdW6
SciTegic.value.DoubleValue
-5.861

@<SCITEGIC>MOL_PROPERTY
VdW12
SciTegic.value.DoubleValue
6.175

@<SCITEGIC>MOL_PROPERTY
Bond
SciTegic.value.DoubleValue
0.134

@<SCITEGIC>MOL_PROPERTY
Angle
SciTegic.value.DoubleValue
2.734

@<SCITEGIC>MOL_PROPERTY
Pdih
SciTegic.value.DoubleValue
4.133

@<SCITEGIC>MOL_PROPERTY
Idih
SciTegic.value.DoubleValue
0.002

@<SCITEGIC>MOL_PROPERTY
Tether
SciTegic.value.DoubleValue
0.000

@<TRIPOS>MOLECULE
guest-s18_confgen4.mol2 : confsearch ligand conformer 619
          16          15           1
SMALL
USER_CHARGES
 
@<TRIPOS>ATOM
       1    C1      19.163561   17.226691   22.339934 C.2        1 MOL1         0.6075
       2    O1      19.247047   16.762770   23.460035 O.co2      1 MOL1        -0.6830
       3    O2      19.516295   16.630476   21.341302 O.co2      1 MOL1        -0.6830
       4    C2      18.498412   18.591702   22.172670 C.3        1 MOL1        -0.2050
       5    H1      18.170681   18.951795   23.155474 H          1 MOL1         0.0710
       6    H2      17.590316   18.422450   21.582361 H          1 MOL1         0.0710
       7    C3      19.365698   19.671320   21.466112 C.3        1 MOL1        -0.1947
       8    H3      19.858133   19.238018   20.584467 H          1 MOL1         0.0712
       9    H4      18.692256   20.450482   21.084230 H          1 MOL1         0.0712
      10    C4      20.412951   20.357359   22.376152 C.3        1 MOL1        -0.1921
      11    H5      19.916979   20.787469   23.257201 H          1 MOL1         0.0712
      12    H6      20.851121   21.201600   21.826101 H          1 MOL1         0.0712
      13    C5      21.554615   19.423023   22.827710 C.3        1 MOL1        -0.2936
      14    H7      21.190950   18.653301   23.519284 H          1 MOL1         0.0724
      15    H8      22.333919   19.993422   23.349341 H          1 MOL1         0.0724
      16    H9      22.018355   18.922939   21.967366 H          1 MOL1         0.0724
@<TRIPOS>BOND
    1     1     2    1
    2     1     3    2
    3     1     4    1
    4     4     5    1
    5     4     6    1
    6     4     7    1
    7     7     8    1
    8     7     9    1
    9     7    10    1
   10    10    11    1
   11    10    12    1
   12    10    13    1
   13    13    14    1
   14    13    15    1
   15    13    16    1
@<TRIPOS>SUBSTRUCTURE
       1 MOL1            1 RESIDUE      1      MOL     
@<SCITEGIC>MOL_PROPERTY
VConf Rank
SciTegic.value.IntegerValue
619

@<SCITEGIC>MOL_PROPERTY
Conf_Id
SciTegic.value.IntegerValue
47

@<SCITEGIC>MOL_PROPERTY
Delta U+W
SciTegic.value.DoubleValue
2.301

@<SCITEGIC>MOL_PROPERTY
U+W
SciTegic.value.DoubleValue
-54.603

@<SCITEGIC>MOL_PROPERTY
Grad RMS
SciTegic.value.DoubleValue
0.000000

@<SCITEGIC>MOL_PROPERTY
U
SciTegic.value.DoubleValue
11.258

@<SCITEGIC>MOL_PROPERTY
W
SciTegic.value.DoubleValue
-65.861

@<SCITEGIC>MOL_PROPERTY
W(PB)
SciTegic.value.DoubleValue
-67.702

@<SCITEGIC>MOL_PROPERTY
W(SA)
SciTegic.value.DoubleValue
1.841

@<SCITEGIC>MOL_PROPERTY
Valence
SciTegic.value.DoubleValue
8.169

@<SCITEGIC>MOL_PROPERTY
Coulomb
SciTegic.value.DoubleValue
2.735

@<SCITEGIC>MOL_PROPERTY
VdW
SciTegic.value.DoubleValue
0.355

@<SCITEGIC>MOL_PROPERTY
VdW6
SciTegic.value.DoubleValue
-6.245

@<SCITEGIC>MOL_PROPERTY
VdW12
SciTegic.value.DoubleValue
6.600

@<SCITEGIC>MOL_PROPERTY
Bond
SciTegic.value.DoubleValue
0.149

@<SCITEGIC>MOL_PROPERTY
Angle
SciTegic.value.DoubleValue
3.168

@<SCITEGIC>MOL_PROPERTY
Pdih
SciTegic.value.DoubleValue
4.840

@<SCITEGIC>MOL_PROPERTY
Idih
SciTegic.value.DoubleValue
0.011

@<SCITEGIC>MOL_PROPERTY
Tether
SciTegic.value.DoubleValue
0.000

@<TRIPOS>MOLECULE
guest-s18_confgen4.mol2 : confsearch ligand conformer 620
          16          15           1
SMALL
USER_CHARGES
 
@<TRIPOS>ATOM
       1    C1      18.793160   20.130360   20.933620 C.2        1 MOL1         0.6075
       2    O1      17.873143   20.672497   21.513978 O.co2      1 MOL1        -0.6830
       3    O2      18.655092   19.499054   19.904442 O.co2      1 MOL1        -0.6830
       4    C2      20.208189   20.326894   21.474668 C.3        1 MOL1        -0.2050
       5    H1      20.410276   21.403295   21.427011 H          1 MOL1         0.0710
       6    H2      20.920496   19.843948   20.794697 H          1 MOL1         0.0710
       7    C3      20.436874   19.834503   22.931459 C.3        1 MOL1        -0.1947
       8    H3      21.330136   20.339263   23.323573 H          1 MOL1         0.0712
       9    H4      19.602610   20.155543   23.570581 H          1 MOL1         0.0712
      10    C4      20.657159   18.308937   23.071759 C.3        1 MOL1        -0.1921
      11    H5      20.965068   18.096080   24.104802 H          1 MOL1         0.0712
      12    H6      21.490670   17.991755   22.429975 H          1 MOL1         0.0712
      13    C5      19.405453   17.465815   22.751349 C.3        1 MOL1        -0.2936
      14    H7      19.578615   16.411182   23.001414 H          1 MOL1         0.0724
      15    H8      19.153236   17.514543   21.685041 H          1 MOL1         0.0724
      16    H9      18.537979   17.813347   23.327578 H          1 MOL1         0.0724
@<TRIPOS>BOND
    1     1     2    1
    2     1     3    2
    3     1     4    1
    4     4     5    1
    5     4     6    1
    6     4     7    1
    7     7     8    1
    8     7     9    1
    9     7    10    1
   10    10    11    1
   11    10    12    1
   12    10    13    1
   13    13    14    1
   14    13    15    1
   15    13    16    1
@<TRIPOS>SUBSTRUCTURE
       1 MOL1            1 RESIDUE      1      MOL     
@<SCITEGIC>MOL_PROPERTY
VConf Rank
SciTegic.value.IntegerValue
620

@<SCITEGIC>MOL_PROPERTY
Conf_Id
SciTegic.value.IntegerValue
45

@<SCITEGIC>MOL_PROPERTY
Delta U+W
SciTegic.value.DoubleValue
2.303

@<SCITEGIC>MOL_PROPERTY
U+W
SciTegic.value.DoubleValue
-54.601

@<SCITEGIC>MOL_PROPERTY
Grad RMS
SciTegic.value.DoubleValue
0.000000

@<SCITEGIC>MOL_PROPERTY
U
SciTegic.value.DoubleValue
11.258

@<SCITEGIC>MOL_PROPERTY
W
SciTegic.value.DoubleValue
-65.860

@<SCITEGIC>MOL_PROPERTY
W(PB)
SciTegic.value.DoubleValue
-67.709

@<SCITEGIC>MOL_PROPERTY
W(SA)
SciTegic.value.DoubleValue
1.849

@<SCITEGIC>MOL_PROPERTY
Valence
SciTegic.value.DoubleValue
8.169

@<SCITEGIC>MOL_PROPERTY
Coulomb
SciTegic.value.DoubleValue
2.735

@<SCITEGIC>MOL_PROPERTY
VdW
SciTegic.value.DoubleValue
0.355

@<SCITEGIC>MOL_PROPERTY
VdW6
SciTegic.value.DoubleValue
-6.245

@<SCITEGIC>MOL_PROPERTY
VdW12
SciTegic.value.DoubleValue
6.600

@<SCITEGIC>MOL_PROPERTY
Bond
SciTegic.value.DoubleValue
0.149

@<SCITEGIC>MOL_PROPERTY
Angle
SciTegic.value.DoubleValue
3.168

@<SCITEGIC>MOL_PROPERTY
Pdih
SciTegic.value.DoubleValue
4.840

@<SCITEGIC>MOL_PROPERTY
Idih
SciTegic.value.DoubleValue
0.011

@<SCITEGIC>MOL_PROPERTY
Tether
SciTegic.value.DoubleValue
0.000

@<TRIPOS>MOLECULE
guest-s18_confgen4.mol2 : confsearch ligand conformer 621
          16          15           1
SMALL
USER_CHARGES
 
@<TRIPOS>ATOM
       1    C1      18.673012   19.792815   24.254213 C.2        1 MOL1         0.6075
       2    O1      17.692130   20.228108   23.683102 O.co2      1 MOL1        -0.6830
       3    O2      18.781900   19.775863   25.463828 O.co2      1 MOL1        -0.6830
       4    C2      19.841176   19.233883   23.440037 C.3        1 MOL1        -0.2050
       5    H1      20.000705   18.198831   23.764658 H          1 MOL1         0.0710
       6    H2      20.736912   19.799978   23.721742 H          1 MOL1         0.0710
       7    C3      19.657448   19.277079   21.899672 C.3        1 MOL1        -0.1947
       8    H3      18.755654   18.712937   21.624024 H          1 MOL1         0.0712
       9    H4      19.492636   20.315731   21.581068 H          1 MOL1         0.0712
      10    C4      20.880132   18.695036   21.159722 C.3        1 MOL1        -0.1921
      11    H5      21.045005   17.655714   21.476152 H          1 MOL1         0.0712
      12    H6      21.782437   19.259461   21.433163 H          1 MOL1         0.0712
      13    C5      20.691696   18.740687   19.630491 C.3        1 MOL1        -0.2936
      14    H7      19.812908   18.157431   19.325508 H          1 MOL1         0.0724
      15    H8      21.569395   18.323417   19.119930 H          1 MOL1         0.0724
      16    H9      20.555781   19.773009   19.282197 H          1 MOL1         0.0724
@<TRIPOS>BOND
    1     1     2    1
    2     1     3    2
    3     1     4    1
    4     4     5    1
    5     4     6    1
    6     4     7    1
    7     7     8    1
    8     7     9    1
    9     7    10    1
   10    10    11    1
   11    10    12    1
   12    10    13    1
   13    13    14    1
   14    13    15    1
   15    13    16    1
@<TRIPOS>SUBSTRUCTURE
       1 MOL1            1 RESIDUE      1      MOL     
@<SCITEGIC>MOL_PROPERTY
VConf Rank
SciTegic.value.IntegerValue
621

@<SCITEGIC>MOL_PROPERTY
Conf_Id
SciTegic.value.IntegerValue
0

@<SCITEGIC>MOL_PROPERTY
Delta U+W
SciTegic.value.DoubleValue
0.000

@<SCITEGIC>MOL_PROPERTY
U+W
SciTegic.value.DoubleValue
-56.904

@<SCITEGIC>MOL_PROPERTY
Grad RMS
SciTegic.value.DoubleValue
0.000000

@<SCITEGIC>MOL_PROPERTY
U
SciTegic.value.DoubleValue
7.329

@<SCITEGIC>MOL_PROPERTY
W
SciTegic.value.DoubleValue
-64.233

@<SCITEGIC>MOL_PROPERTY
W(PB)
SciTegic.value.DoubleValue
-66.148

@<SCITEGIC>MOL_PROPERTY
W(SA)
SciTegic.value.DoubleValue
1.915

@<SCITEGIC>MOL_PROPERTY
Valence
SciTegic.value.DoubleValue
6.755

@<SCITEGIC>MOL_PROPERTY
Coulomb
SciTegic.value.DoubleValue
-0.421

@<SCITEGIC>MOL_PROPERTY
VdW
SciTegic.value.DoubleValue
0.995

@<SCITEGIC>MOL_PROPERTY
VdW6
SciTegic.value.DoubleValue
-4.495

@<SCITEGIC>MOL_PROPERTY
VdW12
SciTegic.value.DoubleValue
5.490

@<SCITEGIC>MOL_PROPERTY
Bond
SciTegic.value.DoubleValue
0.106

@<SCITEGIC>MOL_PROPERTY
Angle
SciTegic.value.DoubleValue
2.715

@<SCITEGIC>MOL_PROPERTY
Pdih
SciTegic.value.DoubleValue
3.934

@<SCITEGIC>MOL_PROPERTY
Idih
SciTegic.value.DoubleValue
0.000

@<SCITEGIC>MOL_PROPERTY
Tether
SciTegic.value.DoubleValue
0.000

@<TRIPOS>MOLECULE
guest-s18_confgen4.mol2 : confsearch ligand conformer 622
          16          15           1
SMALL
USER_CHARGES
 
@<TRIPOS>ATOM
       1    C1      19.568846   19.943986   19.378173 C.2        1 MOL1         0.6075
       2    O1      20.394317   20.715620   18.932054 O.co2      1 MOL1        -0.6830
       3    O2      18.950774   19.152203   18.694865 O.co2      1 MOL1        -0.6830
       4    C2      19.307415   19.957502   20.880190 C.3        1 MOL1        -0.2050
       5    H1      18.255498   19.694941   21.045660 H          1 MOL1         0.0710
       6    H2      19.445732   20.983840   21.241229 H          1 MOL1         0.0710
       7    C3      20.228718   18.988235   21.661078 C.3        1 MOL1        -0.1947
       8    H3      20.087853   17.967243   21.279919 H          1 MOL1         0.0712
       9    H4      21.278152   19.256154   21.475444 H          1 MOL1         0.0712
      10    C4      19.943785   19.021388   23.177084 C.3        1 MOL1        -0.1921
      11    H5      18.894598   18.752853   23.363181 H          1 MOL1         0.0712
      12    H6      20.085167   20.042112   23.558753 H          1 MOL1         0.0712
      13    C5      20.864250   18.054479   23.947754 C.3        1 MOL1        -0.2936
      14    H7      21.920110   18.319281   23.804538 H          1 MOL1         0.0724
      15    H8      20.720763   17.020500   23.607504 H          1 MOL1         0.0724
      16    H9      20.648767   18.090257   25.023597 H          1 MOL1         0.0724
@<TRIPOS>BOND
    1     1     2    1
    2     1     3    2
    3     1     4    1
    4     4     5    1
    5     4     6    1
    6     4     7    1
    7     7     8    1
    8     7     9    1
    9     7    10    1
   10    10    11    1
   11    10    12    1
   12    10    13    1
   13    13    14    1
   14    13    15    1
   15    13    16    1
@<TRIPOS>SUBSTRUCTURE
       1 MOL1            1 RESIDUE      1      MOL     
@<SCITEGIC>MOL_PROPERTY
VConf Rank
SciTegic.value.IntegerValue
622

@<SCITEGIC>MOL_PROPERTY
Conf_Id
SciTegic.value.IntegerValue
22

@<SCITEGIC>MOL_PROPERTY
Delta U+W
SciTegic.value.DoubleValue
-1.185

@<SCITEGIC>MOL_PROPERTY
U+W
SciTegic.value.DoubleValue
-58.089

@<SCITEGIC>MOL_PROPERTY
Grad RMS
SciTegic.value.DoubleValue
0.000000

@<SCITEGIC>MOL_PROPERTY
U
SciTegic.value.DoubleValue
6.298

@<SCITEGIC>MOL_PROPERTY
W
SciTegic.value.DoubleValue
-64.387

@<SCITEGIC>MOL_PROPERTY
W(PB)
SciTegic.value.DoubleValue
-66.329

@<SCITEGIC>MOL_PROPERTY
W(SA)
SciTegic.value.DoubleValue
1.942

@<SCITEGIC>MOL_PROPERTY
Valence
SciTegic.value.DoubleValue
6.246

@<SCITEGIC>MOL_PROPERTY
Coulomb
SciTegic.value.DoubleValue
-0.408

@<SCITEGIC>MOL_PROPERTY
VdW
SciTegic.value.DoubleValue
0.460

@<SCITEGIC>MOL_PROPERTY
VdW6
SciTegic.value.DoubleValue
-4.207

@<SCITEGIC>MOL_PROPERTY
VdW12
SciTegic.value.DoubleValue
4.667

@<SCITEGIC>MOL_PROPERTY
Bond
SciTegic.value.DoubleValue
0.072

@<SCITEGIC>MOL_PROPERTY
Angle
SciTegic.value.DoubleValue
2.246

@<SCITEGIC>MOL_PROPERTY
Pdih
SciTegic.value.DoubleValue
3.928

@<SCITEGIC>MOL_PROPERTY
Idih
SciTegic.value.DoubleValue
0.001

@<SCITEGIC>MOL_PROPERTY
Tether
SciTegic.value.DoubleValue
0.000

@<TRIPOS>MOLECULE
guest-s18_confgen4.mol2 : confsearch ligand conformer 623
          16          15           1
SMALL
USER_CHARGES
 
@<TRIPOS>ATOM
       1    C1      21.268920   16.938740   21.632050 C.2        1 MOL1         0.6075
       2    O1      22.392950   16.771062   22.061510 O.co2      1 MOL1        -0.6830
       3    O2      20.794753   16.290609   20.720431 O.co2      1 MOL1        -0.6830
       4    C2      20.414654   18.035551   22.257996 C.3        1 MOL1        -0.2050
       5    H1      20.686778   18.116321   23.317236 H          1 MOL1         0.0710
       6    H2      19.368894   17.710525   22.214850 H          1 MOL1         0.0710
       7    C3      20.588389   19.407255   21.555688 C.3        1 MOL1        -0.1947
       8    H3      21.656967   19.662791   21.539258 H          1 MOL1         0.0712
       9    H4      20.272564   19.324510   20.506538 H          1 MOL1         0.0712
      10    C4      19.814004   20.554107   22.245230 C.3        1 MOL1        -0.1921
      11    H5      20.076511   21.501983   21.755402 H          1 MOL1         0.0712
      12    H6      20.138184   20.644703   23.291213 H          1 MOL1         0.0712
      13    C5      18.281955   20.373135   22.190387 C.3        1 MOL1        -0.2936
      14    H7      17.961026   19.495915   22.765948 H          1 MOL1         0.0724
      15    H8      17.937531   20.251379   21.155111 H          1 MOL1         0.0724
      16    H9      17.776636   21.250985   22.613520 H          1 MOL1         0.0724
@<TRIPOS>BOND
    1     1     2    1
    2     1     3    2
    3     1     4    1
    4     4     5    1
    5     4     6    1
    6     4     7    1
    7     7     8    1
    8     7     9    1
    9     7    10    1
   10    10    11    1
   11    10    12    1
   12    10    13    1
   13    13    14    1
   14    13    15    1
   15    13    16    1
@<TRIPOS>SUBSTRUCTURE
       1 MOL1            1 RESIDUE      1      MOL     
@<SCITEGIC>MOL_PROPERTY
VConf Rank
SciTegic.value.IntegerValue
623

@<SCITEGIC>MOL_PROPERTY
Conf_Id
SciTegic.value.IntegerValue
36

@<SCITEGIC>MOL_PROPERTY
Delta U+W
SciTegic.value.DoubleValue
-0.427

@<SCITEGIC>MOL_PROPERTY
U+W
SciTegic.value.DoubleValue
-57.331

@<SCITEGIC>MOL_PROPERTY
Grad RMS
SciTegic.value.DoubleValue
0.000000

@<SCITEGIC>MOL_PROPERTY
U
SciTegic.value.DoubleValue
7.263

@<SCITEGIC>MOL_PROPERTY
W
SciTegic.value.DoubleValue
-64.594

@<SCITEGIC>MOL_PROPERTY
W(PB)
SciTegic.value.DoubleValue
-66.513

@<SCITEGIC>MOL_PROPERTY
W(SA)
SciTegic.value.DoubleValue
1.920

@<SCITEGIC>MOL_PROPERTY
Valence
SciTegic.value.DoubleValue
6.734

@<SCITEGIC>MOL_PROPERTY
Coulomb
SciTegic.value.DoubleValue
-0.068

@<SCITEGIC>MOL_PROPERTY
VdW
SciTegic.value.DoubleValue
0.598

@<SCITEGIC>MOL_PROPERTY
VdW6
SciTegic.value.DoubleValue
-4.819

@<SCITEGIC>MOL_PROPERTY
VdW12
SciTegic.value.DoubleValue
5.417

@<SCITEGIC>MOL_PROPERTY
Bond
SciTegic.value.DoubleValue
0.107

@<SCITEGIC>MOL_PROPERTY
Angle
SciTegic.value.DoubleValue
2.469

@<SCITEGIC>MOL_PROPERTY
Pdih
SciTegic.value.DoubleValue
4.157

@<SCITEGIC>MOL_PROPERTY
Idih
SciTegic.value.DoubleValue
0.001

@<SCITEGIC>MOL_PROPERTY
Tether
SciTegic.value.DoubleValue
0.000

@<TRIPOS>MOLECULE
guest-s18_confgen4.mol2 : confsearch ligand conformer 624
          16          15           1
SMALL
USER_CHARGES
 
@<TRIPOS>ATOM
       1    C1      22.335217   18.197679   22.422191 C.2        1 MOL1         0.6075
       2    O1      22.809929   17.721560   21.410303 O.co2      1 MOL1        -0.6830
       3    O2      22.738992   17.940560   23.538816 O.co2      1 MOL1        -0.6830
       4    C2      21.155871   19.154180   22.284997 C.3        1 MOL1        -0.2050
       5    H1      21.280729   19.706592   21.346717 H          1 MOL1         0.0710
       6    H2      21.212218   19.883590   23.101914 H          1 MOL1         0.0710
       7    C3      19.786195   18.427346   22.311311 C.3        1 MOL1        -0.1947
       8    H3      19.724613   17.730612   21.463916 H          1 MOL1         0.0712
       9    H4      19.728771   17.814957   23.221866 H          1 MOL1         0.0712
      10    C4      18.577520   19.391067   22.283866 C.3        1 MOL1        -0.1921
      11    H5      18.632696   20.080297   23.137855 H          1 MOL1         0.0712
      12    H6      17.656577   18.806392   22.415496 H          1 MOL1         0.0712
      13    C5      18.471785   20.197549   20.971868 C.3        1 MOL1        -0.2936
      14    H7      19.319878   20.883479   20.853461 H          1 MOL1         0.0724
      15    H8      17.554058   20.799823   20.964751 H          1 MOL1         0.0724
      16    H9      18.444240   19.529455   20.101154 H          1 MOL1         0.0724
@<TRIPOS>BOND
    1     1     2    1
    2     1     3    2
    3     1     4    1
    4     4     5    1
    5     4     6    1
    6     4     7    1
    7     7     8    1
    8     7     9    1
    9     7    10    1
   10    10    11    1
   11    10    12    1
   12    10    13    1
   13    13    14    1
   14    13    15    1
   15    13    16    1
@<TRIPOS>SUBSTRUCTURE
       1 MOL1            1 RESIDUE      1      MOL     
@<SCITEGIC>MOL_PROPERTY
VConf Rank
SciTegic.value.IntegerValue
624

@<SCITEGIC>MOL_PROPERTY
Conf_Id
SciTegic.value.IntegerValue
17

@<SCITEGIC>MOL_PROPERTY
Delta U+W
SciTegic.value.DoubleValue
-0.432

@<SCITEGIC>MOL_PROPERTY
U+W
SciTegic.value.DoubleValue
-57.336

@<SCITEGIC>MOL_PROPERTY
Grad RMS
SciTegic.value.DoubleValue
0.000000

@<SCITEGIC>MOL_PROPERTY
U
SciTegic.value.DoubleValue
7.263

@<SCITEGIC>MOL_PROPERTY
W
SciTegic.value.DoubleValue
-64.599

@<SCITEGIC>MOL_PROPERTY
W(PB)
SciTegic.value.DoubleValue
-66.503

@<SCITEGIC>MOL_PROPERTY
W(SA)
SciTegic.value.DoubleValue
1.904

@<SCITEGIC>MOL_PROPERTY
Valence
SciTegic.value.DoubleValue
6.734

@<SCITEGIC>MOL_PROPERTY
Coulomb
SciTegic.value.DoubleValue
-0.068

@<SCITEGIC>MOL_PROPERTY
VdW
SciTegic.value.DoubleValue
0.598

@<SCITEGIC>MOL_PROPERTY
VdW6
SciTegic.value.DoubleValue
-4.819

@<SCITEGIC>MOL_PROPERTY
VdW12
SciTegic.value.DoubleValue
5.417

@<SCITEGIC>MOL_PROPERTY
Bond
SciTegic.value.DoubleValue
0.107

@<SCITEGIC>MOL_PROPERTY
Angle
SciTegic.value.DoubleValue
2.469

@<SCITEGIC>MOL_PROPERTY
Pdih
SciTegic.value.DoubleValue
4.157

@<SCITEGIC>MOL_PROPERTY
Idih
SciTegic.value.DoubleValue
0.001

@<SCITEGIC>MOL_PROPERTY
Tether
SciTegic.value.DoubleValue
0.000

@<TRIPOS>MOLECULE
guest-s18_confgen4.mol2 : confsearch ligand conformer 625
          16          15           1
SMALL
USER_CHARGES
 
@<TRIPOS>ATOM
       1    C1      22.199567   18.286758   22.882769 C.2        1 MOL1         0.6075
       2    O1      23.031695   18.138414   22.009900 O.co2      1 MOL1        -0.6830
       3    O2      22.423455   18.853174   23.934105 O.co2      1 MOL1        -0.6830
       4    C2      20.805642   17.708684   22.654089 C.3        1 MOL1        -0.2050
       5    H1      20.302871   17.611667   23.624086 H          1 MOL1         0.0710
       6    H2      20.932024   16.693450   22.259676 H          1 MOL1         0.0710
       7    C3      19.930055   18.537121   21.678346 C.3        1 MOL1        -0.1947
       8    H3      20.458403   18.650194   20.721431 H          1 MOL1         0.0712
       9    H4      19.007665   17.979643   21.466275 H          1 MOL1         0.0712
      10    C4      19.565736   19.927693   22.242051 C.3        1 MOL1        -0.1921
      11    H5      20.481277   20.502768   22.439017 H          1 MOL1         0.0712
      12    H6      19.048567   19.813452   23.204788 H          1 MOL1         0.0712
      13    C5      18.668106   20.716195   21.267951 C.3        1 MOL1        -0.2936
      14    H7      19.174346   20.871479   20.306151 H          1 MOL1         0.0724
      15    H8      18.419362   21.701558   21.683043 H          1 MOL1         0.0724
      16    H9      17.728327   20.181032   21.078661 H          1 MOL1         0.0724
@<TRIPOS>BOND
    1     1     2    1
    2     1     3    2
    3     1     4    1
    4     4     5    1
    5     4     6    1
    6     4     7    1
    7     7     8    1
    8     7     9    1
    9     7    10    1
   10    10    11    1
   11    10    12    1
   12    10    13    1
   13    13    14    1
   14    13    15    1
   15    13    16    1
@<TRIPOS>SUBSTRUCTURE
       1 MOL1            1 RESIDUE      1      MOL     
@<SCITEGIC>MOL_PROPERTY
VConf Rank
SciTegic.value.IntegerValue
625

@<SCITEGIC>MOL_PROPERTY
Conf_Id
SciTegic.value.IntegerValue
19

@<SCITEGIC>MOL_PROPERTY
Delta U+W
SciTegic.value.DoubleValue
0.048

@<SCITEGIC>MOL_PROPERTY
U+W
SciTegic.value.DoubleValue
-56.856

@<SCITEGIC>MOL_PROPERTY
Grad RMS
SciTegic.value.DoubleValue
0.000000

@<SCITEGIC>MOL_PROPERTY
U
SciTegic.value.DoubleValue
8.276

@<SCITEGIC>MOL_PROPERTY
W
SciTegic.value.DoubleValue
-65.132

@<SCITEGIC>MOL_PROPERTY
W(PB)
SciTegic.value.DoubleValue
-67.031

@<SCITEGIC>MOL_PROPERTY
W(SA)
SciTegic.value.DoubleValue
1.899

@<SCITEGIC>MOL_PROPERTY
Valence
SciTegic.value.DoubleValue
6.513

@<SCITEGIC>MOL_PROPERTY
Coulomb
SciTegic.value.DoubleValue
1.428

@<SCITEGIC>MOL_PROPERTY
VdW
SciTegic.value.DoubleValue
0.335

@<SCITEGIC>MOL_PROPERTY
VdW6
SciTegic.value.DoubleValue
-5.021

@<SCITEGIC>MOL_PROPERTY
VdW12
SciTegic.value.DoubleValue
5.356

@<SCITEGIC>MOL_PROPERTY
Bond
SciTegic.value.DoubleValue
0.092

@<SCITEGIC>MOL_PROPERTY
Angle
SciTegic.value.DoubleValue
2.417

@<SCITEGIC>MOL_PROPERTY
Pdih
SciTegic.value.DoubleValue
4.003

@<SCITEGIC>MOL_PROPERTY
Idih
SciTegic.value.DoubleValue
0.001

@<SCITEGIC>MOL_PROPERTY
Tether
SciTegic.value.DoubleValue
0.000

@<TRIPOS>MOLECULE
guest-s18_confgen4.mol2 : confsearch ligand conformer 626
          16          15           1
SMALL
USER_CHARGES
 
@<TRIPOS>ATOM
       1    C1      20.286378   20.061970   19.941504 C.2        1 MOL1         0.6075
       2    O1      21.442178   19.947550   19.584608 O.co2      1 MOL1        -0.6830
       3    O2      19.664239   21.103653   19.877456 O.co2      1 MOL1        -0.6830
       4    C2      19.572436   18.823764   20.476881 C.3        1 MOL1        -0.2050
       5    H1      19.799258   17.994310   19.796592 H          1 MOL1         0.0710
       6    H2      18.489956   18.991977   20.421862 H          1 MOL1         0.0710
       7    C3      19.980380   18.433971   21.921418 C.3        1 MOL1        -0.1947
       8    H3      19.528645   17.464047   22.169896 H          1 MOL1         0.0712
       9    H4      21.069709   18.296699   21.967699 H          1 MOL1         0.0712
      10    C4      19.540591   19.482473   22.966128 C.3        1 MOL1        -0.1921
      11    H5      18.452862   19.627729   22.910220 H          1 MOL1         0.0712
      12    H6      20.003247   20.453125   22.739178 H          1 MOL1         0.0712
      13    C5      19.928210   19.054763   24.395522 C.3        1 MOL1        -0.2936
      14    H7      19.451749   18.102697   24.663796 H          1 MOL1         0.0724
      15    H8      19.609537   19.810672   25.125020 H          1 MOL1         0.0724
      16    H9      21.015424   18.932277   24.487240 H          1 MOL1         0.0724
@<TRIPOS>BOND
    1     1     2    1
    2     1     3    2
    3     1     4    1
    4     4     5    1
    5     4     6    1
    6     4     7    1
    7     7     8    1
    8     7     9    1
    9     7    10    1
   10    10    11    1
   11    10    12    1
   12    10    13    1
   13    13    14    1
   14    13    15    1
   15    13    16    1
@<TRIPOS>SUBSTRUCTURE
       1 MOL1            1 RESIDUE      1      MOL     
@<SCITEGIC>MOL_PROPERTY
VConf Rank
SciTegic.value.IntegerValue
626

@<SCITEGIC>MOL_PROPERTY
Conf_Id
SciTegic.value.IntegerValue
20

@<SCITEGIC>MOL_PROPERTY
Delta U+W
SciTegic.value.DoubleValue
-0.010

@<SCITEGIC>MOL_PROPERTY
U+W
SciTegic.value.DoubleValue
-56.914

@<SCITEGIC>MOL_PROPERTY
Grad RMS
SciTegic.value.DoubleValue
0.000000

@<SCITEGIC>MOL_PROPERTY
U
SciTegic.value.DoubleValue
8.277

@<SCITEGIC>MOL_PROPERTY
W
SciTegic.value.DoubleValue
-65.191

@<SCITEGIC>MOL_PROPERTY
W(PB)
SciTegic.value.DoubleValue
-67.081

@<SCITEGIC>MOL_PROPERTY
W(SA)
SciTegic.value.DoubleValue
1.890

@<SCITEGIC>MOL_PROPERTY
Valence
SciTegic.value.DoubleValue
6.513

@<SCITEGIC>MOL_PROPERTY
Coulomb
SciTegic.value.DoubleValue
1.429

@<SCITEGIC>MOL_PROPERTY
VdW
SciTegic.value.DoubleValue
0.335

@<SCITEGIC>MOL_PROPERTY
VdW6
SciTegic.value.DoubleValue
-5.021

@<SCITEGIC>MOL_PROPERTY
VdW12
SciTegic.value.DoubleValue
5.356

@<SCITEGIC>MOL_PROPERTY
Bond
SciTegic.value.DoubleValue
0.092

@<SCITEGIC>MOL_PROPERTY
Angle
SciTegic.value.DoubleValue
2.417

@<SCITEGIC>MOL_PROPERTY
Pdih
SciTegic.value.DoubleValue
4.002

@<SCITEGIC>MOL_PROPERTY
Idih
SciTegic.value.DoubleValue
0.001

@<SCITEGIC>MOL_PROPERTY
Tether
SciTegic.value.DoubleValue
0.000

@<TRIPOS>MOLECULE
guest-s18_confgen4.mol2 : confsearch ligand conformer 627
          16          15           1
SMALL
USER_CHARGES
 
@<TRIPOS>ATOM
       1    C1      18.582851   17.498238   22.632988 C.2        1 MOL1         0.6075
       2    O1      18.919258   16.579998   23.354410 O.co2      1 MOL1        -0.6830
       3    O2      18.029755   17.341596   21.562545 O.co2      1 MOL1        -0.6830
       4    C2      18.839255   18.923520   23.115246 C.3        1 MOL1        -0.2050
       5    H1      18.444700   18.997880   24.135382 H          1 MOL1         0.0710
       6    H2      18.247840   19.613946   22.503046 H          1 MOL1         0.0710
       7    C3      20.336837   19.335737   23.113610 C.3        1 MOL1        -0.1947
       8    H3      20.434483   20.339720   23.548184 H          1 MOL1         0.0712
       9    H4      20.890123   18.657488   23.777845 H          1 MOL1         0.0712
      10    C4      21.001372   19.319133   21.716431 C.3        1 MOL1        -0.1921
      11    H5      20.941096   18.310236   21.285048 H          1 MOL1         0.0712
      12    H6      22.070899   19.542383   21.832186 H          1 MOL1         0.0712
      13    C5      20.383137   20.338634   20.736204 C.3        1 MOL1        -0.2936
      14    H7      19.344140   20.079716   20.495508 H          1 MOL1         0.0724
      15    H8      20.947088   20.356012   19.794654 H          1 MOL1         0.0724
      16    H9      20.398767   21.351511   21.159174 H          1 MOL1         0.0724
@<TRIPOS>BOND
    1     1     2    1
    2     1     3    2
    3     1     4    1
    4     4     5    1
    5     4     6    1
    6     4     7    1
    7     7     8    1
    8     7     9    1
    9     7    10    1
   10    10    11    1
   11    10    12    1
   12    10    13    1
   13    13    14    1
   14    13    15    1
   15    13    16    1
@<TRIPOS>SUBSTRUCTURE
       1 MOL1            1 RESIDUE      1      MOL     
@<SCITEGIC>MOL_PROPERTY
VConf Rank
SciTegic.value.IntegerValue
627

@<SCITEGIC>MOL_PROPERTY
Conf_Id
SciTegic.value.IntegerValue
37

@<SCITEGIC>MOL_PROPERTY
Delta U+W
SciTegic.value.DoubleValue
1.063

@<SCITEGIC>MOL_PROPERTY
U+W
SciTegic.value.DoubleValue
-55.841

@<SCITEGIC>MOL_PROPERTY
Grad RMS
SciTegic.value.DoubleValue
0.000000

@<SCITEGIC>MOL_PROPERTY
U
SciTegic.value.DoubleValue
9.719

@<SCITEGIC>MOL_PROPERTY
W
SciTegic.value.DoubleValue
-65.560

@<SCITEGIC>MOL_PROPERTY
W(PB)
SciTegic.value.DoubleValue
-67.414

@<SCITEGIC>MOL_PROPERTY
W(SA)
SciTegic.value.DoubleValue
1.854

@<SCITEGIC>MOL_PROPERTY
Valence
SciTegic.value.DoubleValue
7.002

@<SCITEGIC>MOL_PROPERTY
Coulomb
SciTegic.value.DoubleValue
2.402

@<SCITEGIC>MOL_PROPERTY
VdW
SciTegic.value.DoubleValue
0.314

@<SCITEGIC>MOL_PROPERTY
VdW6
SciTegic.value.DoubleValue
-5.861

@<SCITEGIC>MOL_PROPERTY
VdW12
SciTegic.value.DoubleValue
6.175

@<SCITEGIC>MOL_PROPERTY
Bond
SciTegic.value.DoubleValue
0.134

@<SCITEGIC>MOL_PROPERTY
Angle
SciTegic.value.DoubleValue
2.733

@<SCITEGIC>MOL_PROPERTY
Pdih
SciTegic.value.DoubleValue
4.133

@<SCITEGIC>MOL_PROPERTY
Idih
SciTegic.value.DoubleValue
0.002

@<SCITEGIC>MOL_PROPERTY
Tether
SciTegic.value.DoubleValue
0.000

@<TRIPOS>MOLECULE
guest-s18_confgen4.mol2 : confsearch ligand conformer 628
          16          15           1
SMALL
USER_CHARGES
 
@<TRIPOS>ATOM
       1    C1      20.598406   17.070404   21.800510 C.2        1 MOL1         0.6075
       2    O1      20.206162   16.467864   20.820778 O.co2      1 MOL1        -0.6830
       3    O2      21.744114   17.023033   22.202268 O.co2      1 MOL1        -0.6830
       4    C2      19.588143   17.902333   22.586010 C.3        1 MOL1        -0.2050
       5    H1      20.018704   18.147924   23.563532 H          1 MOL1         0.0710
       6    H2      18.720550   17.261296   22.781545 H          1 MOL1         0.0710
       7    C3      19.119462   19.190217   21.855003 C.3        1 MOL1        -0.1947
       8    H3      18.645350   18.904384   20.905860 H          1 MOL1         0.0712
       9    H4      18.339631   19.680371   22.453321 H          1 MOL1         0.0712
      10    C4      20.250197   20.205203   21.563054 C.3        1 MOL1        -0.1921
      11    H5      19.835305   21.035607   20.975329 H          1 MOL1         0.0712
      12    H6      21.020900   19.736858   20.935146 H          1 MOL1         0.0712
      13    C5      20.900740   20.775978   22.841120 C.3        1 MOL1        -0.2936
      14    H7      20.145777   21.219067   23.503516 H          1 MOL1         0.0724
      15    H8      21.627556   21.557723   22.585241 H          1 MOL1         0.0724
      16    H9      21.435301   19.995888   23.398066 H          1 MOL1         0.0724
@<TRIPOS>BOND
    1     1     2    1
    2     1     3    2
    3     1     4    1
    4     4     5    1
    5     4     6    1
    6     4     7    1
    7     7     8    1
    8     7     9    1
    9     7    10    1
   10    10    11    1
   11    10    12    1
   12    10    13    1
   13    13    14    1
   14    13    15    1
   15    13    16    1
@<TRIPOS>SUBSTRUCTURE
       1 MOL1            1 RESIDUE      1      MOL     
@<SCITEGIC>MOL_PROPERTY
VConf Rank
SciTegic.value.IntegerValue
628

@<SCITEGIC>MOL_PROPERTY
Conf_Id
SciTegic.value.IntegerValue
39

@<SCITEGIC>MOL_PROPERTY
Delta U+W
SciTegic.value.DoubleValue
1.129

@<SCITEGIC>MOL_PROPERTY
U+W
SciTegic.value.DoubleValue
-55.775

@<SCITEGIC>MOL_PROPERTY
Grad RMS
SciTegic.value.DoubleValue
0.000000

@<SCITEGIC>MOL_PROPERTY
U
SciTegic.value.DoubleValue
9.718

@<SCITEGIC>MOL_PROPERTY
W
SciTegic.value.DoubleValue
-65.493

@<SCITEGIC>MOL_PROPERTY
W(PB)
SciTegic.value.DoubleValue
-67.361

@<SCITEGIC>MOL_PROPERTY
W(SA)
SciTegic.value.DoubleValue
1.869

@<SCITEGIC>MOL_PROPERTY
Valence
SciTegic.value.DoubleValue
7.002

@<SCITEGIC>MOL_PROPERTY
Coulomb
SciTegic.value.DoubleValue
2.402

@<SCITEGIC>MOL_PROPERTY
VdW
SciTegic.value.DoubleValue
0.314

@<SCITEGIC>MOL_PROPERTY
VdW6
SciTegic.value.DoubleValue
-5.861

@<SCITEGIC>MOL_PROPERTY
VdW12
SciTegic.value.DoubleValue
6.175

@<SCITEGIC>MOL_PROPERTY
Bond
SciTegic.value.DoubleValue
0.134

@<SCITEGIC>MOL_PROPERTY
Angle
SciTegic.value.DoubleValue
2.734

@<SCITEGIC>MOL_PROPERTY
Pdih
SciTegic.value.DoubleValue
4.133

@<SCITEGIC>MOL_PROPERTY
Idih
SciTegic.value.DoubleValue
0.002

@<SCITEGIC>MOL_PROPERTY
Tether
SciTegic.value.DoubleValue
0.000

@<TRIPOS>MOLECULE
guest-s18_confgen4.mol2 : confsearch ligand conformer 629
          16          15           1
SMALL
USER_CHARGES
 
@<TRIPOS>ATOM
       1    C1      18.290025   18.506299   21.237982 C.2        1 MOL1         0.6075
       2    O1      18.132657   17.303001   21.302241 O.co2      1 MOL1        -0.6830
       3    O2      18.253398   19.130687   20.195889 O.co2      1 MOL1        -0.6830
       4    C2      18.452087   19.282935   22.543443 C.3        1 MOL1        -0.2050
       5    H1      18.383730   18.583563   23.385574 H          1 MOL1         0.0710
       6    H2      17.583526   19.947706   22.617133 H          1 MOL1         0.0710
       7    C3      19.749042   20.133005   22.654220 C.3        1 MOL1        -0.1947
       8    H3      19.919445   20.680113   21.716577 H          1 MOL1         0.0712
       9    H4      19.588112   20.897864   23.425935 H          1 MOL1         0.0712
      10    C4      21.016294   19.332603   23.040216 C.3        1 MOL1        -0.1921
      11    H5      20.841188   18.785628   23.976905 H          1 MOL1         0.0712
      12    H6      21.827485   20.044609   23.245907 H          1 MOL1         0.0712
      13    C5      21.491788   18.352312   21.947869 C.3        1 MOL1        -0.2936
      14    H7      20.785781   17.522581   21.820981 H          1 MOL1         0.0724
      15    H8      22.464045   17.919810   22.216993 H          1 MOL1         0.0724
      16    H9      21.602687   18.862104   20.981876 H          1 MOL1         0.0724
@<TRIPOS>BOND
    1     1     2    1
    2     1     3    2
    3     1     4    1
    4     4     5    1
    5     4     6    1
    6     4     7    1
    7     7     8    1
    8     7     9    1
    9     7    10    1
   10    10    11    1
   11    10    12    1
   12    10    13    1
   13    13    14    1
   14    13    15    1
   15    13    16    1
@<TRIPOS>SUBSTRUCTURE
       1 MOL1            1 RESIDUE      1      MOL     
@<SCITEGIC>MOL_PROPERTY
VConf Rank
SciTegic.value.IntegerValue
629

@<SCITEGIC>MOL_PROPERTY
Conf_Id
SciTegic.value.IntegerValue
47

@<SCITEGIC>MOL_PROPERTY
Delta U+W
SciTegic.value.DoubleValue
2.301

@<SCITEGIC>MOL_PROPERTY
U+W
SciTegic.value.DoubleValue
-54.603

@<SCITEGIC>MOL_PROPERTY
Grad RMS
SciTegic.value.DoubleValue
0.000000

@<SCITEGIC>MOL_PROPERTY
U
SciTegic.value.DoubleValue
11.258

@<SCITEGIC>MOL_PROPERTY
W
SciTegic.value.DoubleValue
-65.861

@<SCITEGIC>MOL_PROPERTY
W(PB)
SciTegic.value.DoubleValue
-67.702

@<SCITEGIC>MOL_PROPERTY
W(SA)
SciTegic.value.DoubleValue
1.841

@<SCITEGIC>MOL_PROPERTY
Valence
SciTegic.value.DoubleValue
8.169

@<SCITEGIC>MOL_PROPERTY
Coulomb
SciTegic.value.DoubleValue
2.735

@<SCITEGIC>MOL_PROPERTY
VdW
SciTegic.value.DoubleValue
0.355

@<SCITEGIC>MOL_PROPERTY
VdW6
SciTegic.value.DoubleValue
-6.245

@<SCITEGIC>MOL_PROPERTY
VdW12
SciTegic.value.DoubleValue
6.600

@<SCITEGIC>MOL_PROPERTY
Bond
SciTegic.value.DoubleValue
0.149

@<SCITEGIC>MOL_PROPERTY
Angle
SciTegic.value.DoubleValue
3.168

@<SCITEGIC>MOL_PROPERTY
Pdih
SciTegic.value.DoubleValue
4.840

@<SCITEGIC>MOL_PROPERTY
Idih
SciTegic.value.DoubleValue
0.011

@<SCITEGIC>MOL_PROPERTY
Tether
SciTegic.value.DoubleValue
0.000

@<TRIPOS>MOLECULE
guest-s18_confgen4.mol2 : confsearch ligand conformer 630
          16          15           1
SMALL
USER_CHARGES
 
@<TRIPOS>ATOM
       1    C1      19.862915   19.918639   20.439936 C.2        1 MOL1         0.6075
       2    O1      20.802916   20.683325   20.346061 O.co2      1 MOL1        -0.6830
       3    O2      18.733438   20.201822   20.092218 O.co2      1 MOL1        -0.6830
       4    C2      20.130028   18.498676   20.935943 C.3        1 MOL1        -0.2050
       5    H1      20.820863   18.044880   20.215829 H          1 MOL1         0.0710
       6    H2      19.198952   17.921328   20.883548 H          1 MOL1         0.0710
       7    C3      20.746455   18.397098   22.359561 C.3        1 MOL1        -0.1947
       8    H3      21.218129   17.409747   22.455034 H          1 MOL1         0.0712
       9    H4      21.556341   19.131518   22.470245 H          1 MOL1         0.0712
      10    C4      19.730126   18.548402   23.517034 C.3        1 MOL1        -0.1921
      11    H5      20.238184   18.302252   24.459680 H          1 MOL1         0.0712
      12    H6      18.921255   17.813786   23.401716 H          1 MOL1         0.0712
      13    C5      19.131148   19.964862   23.640126 C.3        1 MOL1        -0.2936
      14    H7      18.530326   20.049470   24.554798 H          1 MOL1         0.0724
      15    H8      18.474948   20.196138   22.792239 H          1 MOL1         0.0724
      16    H9      19.922131   20.725074   23.681981 H          1 MOL1         0.0724
@<TRIPOS>BOND
    1     1     2    1
    2     1     3    2
    3     1     4    1
    4     4     5    1
    5     4     6    1
    6     4     7    1
    7     7     8    1
    8     7     9    1
    9     7    10    1
   10    10    11    1
   11    10    12    1
   12    10    13    1
   13    13    14    1
   14    13    15    1
   15    13    16    1
@<TRIPOS>SUBSTRUCTURE
       1 MOL1            1 RESIDUE      1      MOL     
@<SCITEGIC>MOL_PROPERTY
VConf Rank
SciTegic.value.IntegerValue
630

@<SCITEGIC>MOL_PROPERTY
Conf_Id
SciTegic.value.IntegerValue
45

@<SCITEGIC>MOL_PROPERTY
Delta U+W
SciTegic.value.DoubleValue
2.303

@<SCITEGIC>MOL_PROPERTY
U+W
SciTegic.value.DoubleValue
-54.601

@<SCITEGIC>MOL_PROPERTY
Grad RMS
SciTegic.value.DoubleValue
0.000000

@<SCITEGIC>MOL_PROPERTY
U
SciTegic.value.DoubleValue
11.258

@<SCITEGIC>MOL_PROPERTY
W
SciTegic.value.DoubleValue
-65.860

@<SCITEGIC>MOL_PROPERTY
W(PB)
SciTegic.value.DoubleValue
-67.709

@<SCITEGIC>MOL_PROPERTY
W(SA)
SciTegic.value.DoubleValue
1.849

@<SCITEGIC>MOL_PROPERTY
Valence
SciTegic.value.DoubleValue
8.169

@<SCITEGIC>MOL_PROPERTY
Coulomb
SciTegic.value.DoubleValue
2.735

@<SCITEGIC>MOL_PROPERTY
VdW
SciTegic.value.DoubleValue
0.355

@<SCITEGIC>MOL_PROPERTY
VdW6
SciTegic.value.DoubleValue
-6.245

@<SCITEGIC>MOL_PROPERTY
VdW12
SciTegic.value.DoubleValue
6.600

@<SCITEGIC>MOL_PROPERTY
Bond
SciTegic.value.DoubleValue
0.149

@<SCITEGIC>MOL_PROPERTY
Angle
SciTegic.value.DoubleValue
3.168

@<SCITEGIC>MOL_PROPERTY
Pdih
SciTegic.value.DoubleValue
4.840

@<SCITEGIC>MOL_PROPERTY
Idih
SciTegic.value.DoubleValue
0.011

@<SCITEGIC>MOL_PROPERTY
Tether
SciTegic.value.DoubleValue
0.000

@<TRIPOS>MOLECULE
guest-s18_confgen4.mol2 : confsearch ligand conformer 631
          16          15           1
SMALL
USER_CHARGES
 
@<TRIPOS>ATOM
       1    C1      19.354259   17.154039   23.753624 C.2        1 MOL1         0.6075
       2    O1      18.216868   17.548582   23.922303 O.co2      1 MOL1        -0.6830
       3    O2      19.810868   16.185127   24.326364 O.co2      1 MOL1        -0.6830
       4    C2      20.278111   17.890423   22.781960 C.3        1 MOL1        -0.2050
       5    H1      20.611305   17.163002   22.032294 H          1 MOL1         0.0710
       6    H2      21.166264   18.199705   23.345603 H          1 MOL1         0.0710
       7    C3      19.651881   19.121656   22.074676 C.3        1 MOL1        -0.1947
       8    H3      18.759549   18.806587   21.516156 H          1 MOL1         0.0712
       9    H4      19.315098   19.844359   22.830816 H          1 MOL1         0.0712
      10    C4      20.651202   19.801785   21.115490 C.3        1 MOL1        -0.1921
      11    H5      20.987468   19.080556   20.357694 H          1 MOL1         0.0712
      12    H6      21.543357   20.118953   21.673132 H          1 MOL1         0.0712
      13    C5      20.023513   21.023705   20.416163 C.3        1 MOL1        -0.2936
      14    H7      19.146192   20.730075   19.824929 H          1 MOL1         0.0724
      15    H8      20.746812   21.495291   19.738235 H          1 MOL1         0.0724
      16    H9      19.706180   21.776137   21.150067 H          1 MOL1         0.0724
@<TRIPOS>BOND
    1     1     2    1
    2     1     3    2
    3     1     4    1
    4     4     5    1
    5     4     6    1
    6     4     7    1
    7     7     8    1
    8     7     9    1
    9     7    10    1
   10    10    11    1
   11    10    12    1
   12    10    13    1
   13    13    14    1
   14    13    15    1
   15    13    16    1
@<TRIPOS>SUBSTRUCTURE
       1 MOL1            1 RESIDUE      1      MOL     
@<SCITEGIC>MOL_PROPERTY
VConf Rank
SciTegic.value.IntegerValue
631

@<SCITEGIC>MOL_PROPERTY
Conf_Id
SciTegic.value.IntegerValue
0

@<SCITEGIC>MOL_PROPERTY
Delta U+W
SciTegic.value.DoubleValue
0.000

@<SCITEGIC>MOL_PROPERTY
U+W
SciTegic.value.DoubleValue
-56.904

@<SCITEGIC>MOL_PROPERTY
Grad RMS
SciTegic.value.DoubleValue
0.000000

@<SCITEGIC>MOL_PROPERTY
U
SciTegic.value.DoubleValue
7.329

@<SCITEGIC>MOL_PROPERTY
W
SciTegic.value.DoubleValue
-64.233

@<SCITEGIC>MOL_PROPERTY
W(PB)
SciTegic.value.DoubleValue
-66.148

@<SCITEGIC>MOL_PROPERTY
W(SA)
SciTegic.value.DoubleValue
1.915

@<SCITEGIC>MOL_PROPERTY
Valence
SciTegic.value.DoubleValue
6.755

@<SCITEGIC>MOL_PROPERTY
Coulomb
SciTegic.value.DoubleValue
-0.421

@<SCITEGIC>MOL_PROPERTY
VdW
SciTegic.value.DoubleValue
0.995

@<SCITEGIC>MOL_PROPERTY
VdW6
SciTegic.value.DoubleValue
-4.495

@<SCITEGIC>MOL_PROPERTY
VdW12
SciTegic.value.DoubleValue
5.490

@<SCITEGIC>MOL_PROPERTY
Bond
SciTegic.value.DoubleValue
0.106

@<SCITEGIC>MOL_PROPERTY
Angle
SciTegic.value.DoubleValue
2.715

@<SCITEGIC>MOL_PROPERTY
Pdih
SciTegic.value.DoubleValue
3.934

@<SCITEGIC>MOL_PROPERTY
Idih
SciTegic.value.DoubleValue
0.000

@<SCITEGIC>MOL_PROPERTY
Tether
SciTegic.value.DoubleValue
0.000

@<TRIPOS>MOLECULE
guest-s18_confgen4.mol2 : confsearch ligand conformer 632
          16          15           1
SMALL
USER_CHARGES
 
@<TRIPOS>ATOM
       1    C1      19.827060   20.054482   19.381796 C.2        1 MOL1         0.6075
       2    O1      18.695331   20.317634   19.027135 O.co2      1 MOL1        -0.6830
       3    O2      20.812388   20.632130   18.967918 O.co2      1 MOL1        -0.6830
       4    C2      20.019881   18.951269   20.416360 C.3        1 MOL1        -0.2050
       5    H1      20.979872   18.460103   20.216303 H          1 MOL1         0.0710
       6    H2      19.234425   18.200894   20.265212 H          1 MOL1         0.0710
       7    C3      19.982577   19.477212   21.872401 C.3        1 MOL1        -0.1947
       8    H3      20.766277   20.236108   22.004466 H          1 MOL1         0.0712
       9    H4      19.020774   19.976951   22.053364 H          1 MOL1         0.0712
      10    C4      20.179897   18.341781   22.898279 C.3        1 MOL1        -0.1921
      11    H5      21.141929   17.842224   22.718071 H          1 MOL1         0.0712
      12    H6      19.395992   17.582976   22.766955 H          1 MOL1         0.0712
      13    C5      20.141600   18.872488   24.344994 C.3        1 MOL1        -0.2936
      14    H7      19.177279   19.350119   24.562768 H          1 MOL1         0.0724
      15    H8      20.936098   19.611301   24.513515 H          1 MOL1         0.0724
      16    H9      20.283364   18.052921   25.061486 H          1 MOL1         0.0724
@<TRIPOS>BOND
    1     1     2    1
    2     1     3    2
    3     1     4    1
    4     4     5    1
    5     4     6    1
    6     4     7    1
    7     7     8    1
    8     7     9    1
    9     7    10    1
   10    10    11    1
   11    10    12    1
   12    10    13    1
   13    13    14    1
   14    13    15    1
   15    13    16    1
@<TRIPOS>SUBSTRUCTURE
       1 MOL1            1 RESIDUE      1      MOL     
@<SCITEGIC>MOL_PROPERTY
VConf Rank
SciTegic.value.IntegerValue
632

@<SCITEGIC>MOL_PROPERTY
Conf_Id
SciTegic.value.IntegerValue
22

@<SCITEGIC>MOL_PROPERTY
Delta U+W
SciTegic.value.DoubleValue
-1.185

@<SCITEGIC>MOL_PROPERTY
U+W
SciTegic.value.DoubleValue
-58.089

@<SCITEGIC>MOL_PROPERTY
Grad RMS
SciTegic.value.DoubleValue
0.000000

@<SCITEGIC>MOL_PROPERTY
U
SciTegic.value.DoubleValue
6.298

@<SCITEGIC>MOL_PROPERTY
W
SciTegic.value.DoubleValue
-64.387

@<SCITEGIC>MOL_PROPERTY
W(PB)
SciTegic.value.DoubleValue
-66.329

@<SCITEGIC>MOL_PROPERTY
W(SA)
SciTegic.value.DoubleValue
1.942

@<SCITEGIC>MOL_PROPERTY
Valence
SciTegic.value.DoubleValue
6.246

@<SCITEGIC>MOL_PROPERTY
Coulomb
SciTegic.value.DoubleValue
-0.408

@<SCITEGIC>MOL_PROPERTY
VdW
SciTegic.value.DoubleValue
0.460

@<SCITEGIC>MOL_PROPERTY
VdW6
SciTegic.value.DoubleValue
-4.207

@<SCITEGIC>MOL_PROPERTY
VdW12
SciTegic.value.DoubleValue
4.667

@<SCITEGIC>MOL_PROPERTY
Bond
SciTegic.value.DoubleValue
0.072

@<SCITEGIC>MOL_PROPERTY
Angle
SciTegic.value.DoubleValue
2.246

@<SCITEGIC>MOL_PROPERTY
Pdih
SciTegic.value.DoubleValue
3.928

@<SCITEGIC>MOL_PROPERTY
Idih
SciTegic.value.DoubleValue
0.001

@<SCITEGIC>MOL_PROPERTY
Tether
SciTegic.value.DoubleValue
0.000

@<TRIPOS>MOLECULE
guest-s18_confgen4.mol2 : confsearch ligand conformer 633
          16          15           1
SMALL
USER_CHARGES
 
@<TRIPOS>ATOM
       1    C1      17.882076   18.807303   20.489337 C.2        1 MOL1         0.6075
       2    O1      16.960996   18.082652   20.809474 O.co2      1 MOL1        -0.6830
       3    O2      18.107600   19.139936   19.342841 O.co2      1 MOL1        -0.6830
       4    C2      18.817238   19.309974   21.583579 C.3        1 MOL1        -0.2050
       5    H1      18.232160   19.428853   22.503426 H          1 MOL1         0.0710
       6    H2      19.169277   20.305815   21.291198 H          1 MOL1         0.0710
       7    C3      20.016890   18.359283   21.832604 C.3        1 MOL1        -0.1947
       8    H3      19.631701   17.350798   22.037578 H          1 MOL1         0.0712
       9    H4      20.619265   18.281618   20.916950 H          1 MOL1         0.0712
      10    C4      20.914638   18.797399   23.012651 C.3        1 MOL1        -0.1921
      11    H5      21.669427   18.018886   23.190190 H          1 MOL1         0.0712
      12    H6      20.314787   18.863732   23.930889 H          1 MOL1         0.0712
      13    C5      21.633879   20.140505   22.764270 C.3        1 MOL1        -0.2936
      14    H7      20.919882   20.970568   22.693661 H          1 MOL1         0.0724
      15    H8      22.217665   20.107607   21.835098 H          1 MOL1         0.0724
      16    H9      22.323237   20.364643   23.588621 H          1 MOL1         0.0724
@<TRIPOS>BOND
    1     1     2    1
    2     1     3    2
    3     1     4    1
    4     4     5    1
    5     4     6    1
    6     4     7    1
    7     7     8    1
    8     7     9    1
    9     7    10    1
   10    10    11    1
   11    10    12    1
   12    10    13    1
   13    13    14    1
   14    13    15    1
   15    13    16    1
@<TRIPOS>SUBSTRUCTURE
       1 MOL1            1 RESIDUE      1      MOL     
@<SCITEGIC>MOL_PROPERTY
VConf Rank
SciTegic.value.IntegerValue
633

@<SCITEGIC>MOL_PROPERTY
Conf_Id
SciTegic.value.IntegerValue
36

@<SCITEGIC>MOL_PROPERTY
Delta U+W
SciTegic.value.DoubleValue
-0.427

@<SCITEGIC>MOL_PROPERTY
U+W
SciTegic.value.DoubleValue
-57.331

@<SCITEGIC>MOL_PROPERTY
Grad RMS
SciTegic.value.DoubleValue
0.000000

@<SCITEGIC>MOL_PROPERTY
U
SciTegic.value.DoubleValue
7.263

@<SCITEGIC>MOL_PROPERTY
W
SciTegic.value.DoubleValue
-64.594

@<SCITEGIC>MOL_PROPERTY
W(PB)
SciTegic.value.DoubleValue
-66.513

@<SCITEGIC>MOL_PROPERTY
W(SA)
SciTegic.value.DoubleValue
1.920

@<SCITEGIC>MOL_PROPERTY
Valence
SciTegic.value.DoubleValue
6.734

@<SCITEGIC>MOL_PROPERTY
Coulomb
SciTegic.value.DoubleValue
-0.068

@<SCITEGIC>MOL_PROPERTY
VdW
SciTegic.value.DoubleValue
0.598

@<SCITEGIC>MOL_PROPERTY
VdW6
SciTegic.value.DoubleValue
-4.819

@<SCITEGIC>MOL_PROPERTY
VdW12
SciTegic.value.DoubleValue
5.417

@<SCITEGIC>MOL_PROPERTY
Bond
SciTegic.value.DoubleValue
0.107

@<SCITEGIC>MOL_PROPERTY
Angle
SciTegic.value.DoubleValue
2.469

@<SCITEGIC>MOL_PROPERTY
Pdih
SciTegic.value.DoubleValue
4.157

@<SCITEGIC>MOL_PROPERTY
Idih
SciTegic.value.DoubleValue
0.001

@<SCITEGIC>MOL_PROPERTY
Tether
SciTegic.value.DoubleValue
0.000

@<TRIPOS>MOLECULE
guest-s18_confgen4.mol2 : confsearch ligand conformer 634
          16          15           1
SMALL
USER_CHARGES
 
@<TRIPOS>ATOM
       1    C1      22.028550   18.311692   23.312144 C.2        1 MOL1         0.6075
       2    O1      22.081230   17.098049   23.328053 O.co2      1 MOL1        -0.6830
       3    O2      22.624730   19.020075   24.098756 O.co2      1 MOL1        -0.6830
       4    C2      21.150979   18.981970   22.260873 C.3        1 MOL1        -0.2050
       5    H1      21.170232   18.356586   21.361072 H          1 MOL1         0.0710
       6    H2      21.608154   19.943600   21.998526 H          1 MOL1         0.0710
       7    C3      19.693060   19.197558   22.743561 C.3        1 MOL1        -0.1947
       8    H3      19.231783   18.224636   22.962552 H          1 MOL1         0.0712
       9    H4      19.713373   19.752274   23.691879 H          1 MOL1         0.0712
      10    C4      18.818591   19.974305   21.732437 C.3        1 MOL1        -0.1921
      11    H5      19.273638   20.952132   21.522275 H          1 MOL1         0.0712
      12    H6      17.842407   20.178578   22.193573 H          1 MOL1         0.0712
      13    C5      18.594156   19.211075   20.409546 C.3        1 MOL1        -0.2936
      14    H7      19.532921   19.083212   19.856235 H          1 MOL1         0.0724
      15    H8      17.899444   19.761740   19.762127 H          1 MOL1         0.0724
      16    H9      18.166039   18.217658   20.596870 H          1 MOL1         0.0724
@<TRIPOS>BOND
    1     1     2    1
    2     1     3    2
    3     1     4    1
    4     4     5    1
    5     4     6    1
    6     4     7    1
    7     7     8    1
    8     7     9    1
    9     7    10    1
   10    10    11    1
   11    10    12    1
   12    10    13    1
   13    13    14    1
   14    13    15    1
   15    13    16    1
@<TRIPOS>SUBSTRUCTURE
       1 MOL1            1 RESIDUE      1      MOL     
@<SCITEGIC>MOL_PROPERTY
VConf Rank
SciTegic.value.IntegerValue
634

@<SCITEGIC>MOL_PROPERTY
Conf_Id
SciTegic.value.IntegerValue
17

@<SCITEGIC>MOL_PROPERTY
Delta U+W
SciTegic.value.DoubleValue
-0.432

@<SCITEGIC>MOL_PROPERTY
U+W
SciTegic.value.DoubleValue
-57.336

@<SCITEGIC>MOL_PROPERTY
Grad RMS
SciTegic.value.DoubleValue
0.000000

@<SCITEGIC>MOL_PROPERTY
U
SciTegic.value.DoubleValue
7.263

@<SCITEGIC>MOL_PROPERTY
W
SciTegic.value.DoubleValue
-64.599

@<SCITEGIC>MOL_PROPERTY
W(PB)
SciTegic.value.DoubleValue
-66.503

@<SCITEGIC>MOL_PROPERTY
W(SA)
SciTegic.value.DoubleValue
1.904

@<SCITEGIC>MOL_PROPERTY
Valence
SciTegic.value.DoubleValue
6.734

@<SCITEGIC>MOL_PROPERTY
Coulomb
SciTegic.value.DoubleValue
-0.068

@<SCITEGIC>MOL_PROPERTY
VdW
SciTegic.value.DoubleValue
0.598

@<SCITEGIC>MOL_PROPERTY
VdW6
SciTegic.value.DoubleValue
-4.819

@<SCITEGIC>MOL_PROPERTY
VdW12
SciTegic.value.DoubleValue
5.417

@<SCITEGIC>MOL_PROPERTY
Bond
SciTegic.value.DoubleValue
0.107

@<SCITEGIC>MOL_PROPERTY
Angle
SciTegic.value.DoubleValue
2.469

@<SCITEGIC>MOL_PROPERTY
Pdih
SciTegic.value.DoubleValue
4.157

@<SCITEGIC>MOL_PROPERTY
Idih
SciTegic.value.DoubleValue
0.001

@<SCITEGIC>MOL_PROPERTY
Tether
SciTegic.value.DoubleValue
0.000

@<TRIPOS>MOLECULE
guest-s18_confgen4.mol2 : confsearch ligand conformer 635
          16          15           1
SMALL
USER_CHARGES
 
@<TRIPOS>ATOM
       1    C1      21.274441   19.571909   20.060955 C.2        1 MOL1         0.6075
       2    O1      22.397826   19.110377   20.024414 O.co2      1 MOL1        -0.6830
       3    O2      20.459577   19.425637   19.171651 O.co2      1 MOL1        -0.6830
       4    C2      20.875679   20.399731   21.279640 C.3        1 MOL1        -0.2050
       5    H1      20.006572   21.014927   21.016446 H          1 MOL1         0.0710
       6    H2      21.700483   21.090463   21.491347 H          1 MOL1         0.0710
       7    C3      20.570351   19.555969   22.544501 C.3        1 MOL1        -0.1947
       8    H3      21.438438   18.924333   22.779202 H          1 MOL1         0.0712
       9    H4      20.431078   20.232106   23.398902 H          1 MOL1         0.0712
      10    C4      19.312038   18.675982   22.381848 C.3        1 MOL1        -0.1921
      11    H5      19.448226   17.980635   21.541808 H          1 MOL1         0.0712
      12    H6      18.447458   19.307596   22.134985 H          1 MOL1         0.0712
      13    C5      19.012172   17.874171   23.663848 C.3        1 MOL1        -0.2936
      14    H7      19.849511   17.210466   23.916453 H          1 MOL1         0.0724
      15    H8      18.116151   17.253959   23.531181 H          1 MOL1         0.0724
      16    H9      18.837097   18.545019   24.515158 H          1 MOL1         0.0724
@<TRIPOS>BOND
    1     1     2    1
    2     1     3    2
    3     1     4    1
    4     4     5    1
    5     4     6    1
    6     4     7    1
    7     7     8    1
    8     7     9    1
    9     7    10    1
   10    10    11    1
   11    10    12    1
   12    10    13    1
   13    13    14    1
   14    13    15    1
   15    13    16    1
@<TRIPOS>SUBSTRUCTURE
       1 MOL1            1 RESIDUE      1      MOL     
@<SCITEGIC>MOL_PROPERTY
VConf Rank
SciTegic.value.IntegerValue
635

@<SCITEGIC>MOL_PROPERTY
Conf_Id
SciTegic.value.IntegerValue
19

@<SCITEGIC>MOL_PROPERTY
Delta U+W
SciTegic.value.DoubleValue
0.048

@<SCITEGIC>MOL_PROPERTY
U+W
SciTegic.value.DoubleValue
-56.856

@<SCITEGIC>MOL_PROPERTY
Grad RMS
SciTegic.value.DoubleValue
0.000000

@<SCITEGIC>MOL_PROPERTY
U
SciTegic.value.DoubleValue
8.276

@<SCITEGIC>MOL_PROPERTY
W
SciTegic.value.DoubleValue
-65.132

@<SCITEGIC>MOL_PROPERTY
W(PB)
SciTegic.value.DoubleValue
-67.031

@<SCITEGIC>MOL_PROPERTY
W(SA)
SciTegic.value.DoubleValue
1.899

@<SCITEGIC>MOL_PROPERTY
Valence
SciTegic.value.DoubleValue
6.513

@<SCITEGIC>MOL_PROPERTY
Coulomb
SciTegic.value.DoubleValue
1.428

@<SCITEGIC>MOL_PROPERTY
VdW
SciTegic.value.DoubleValue
0.335

@<SCITEGIC>MOL_PROPERTY
VdW6
SciTegic.value.DoubleValue
-5.021

@<SCITEGIC>MOL_PROPERTY
VdW12
SciTegic.value.DoubleValue
5.356

@<SCITEGIC>MOL_PROPERTY
Bond
SciTegic.value.DoubleValue
0.092

@<SCITEGIC>MOL_PROPERTY
Angle
SciTegic.value.DoubleValue
2.417

@<SCITEGIC>MOL_PROPERTY
Pdih
SciTegic.value.DoubleValue
4.003

@<SCITEGIC>MOL_PROPERTY
Idih
SciTegic.value.DoubleValue
0.001

@<SCITEGIC>MOL_PROPERTY
Tether
SciTegic.value.DoubleValue
0.000

@<TRIPOS>MOLECULE
guest-s18_confgen4.mol2 : confsearch ligand conformer 636
          16          15           1
SMALL
USER_CHARGES
 
@<TRIPOS>ATOM
       1    C1      21.567850   20.173714   20.793916 C.2        1 MOL1         0.6075
       2    O1      22.667002   19.686473   20.969423 O.co2      1 MOL1        -0.6830
       3    O2      21.352302   21.369237   20.816870 O.co2      1 MOL1        -0.6830
       4    C2      20.401050   19.232843   20.506102 C.3        1 MOL1        -0.2050
       5    H1      20.742855   18.504460   19.761210 H          1 MOL1         0.0710
       6    H2      19.593165   19.808986   20.038698 H          1 MOL1         0.0710
       7    C3      19.869947   18.483779   21.755853 C.3        1 MOL1        -0.1947
       8    H3      19.133887   17.733868   21.435842 H          1 MOL1         0.0712
       9    H4      20.695608   17.934585   22.229449 H          1 MOL1         0.0712
      10    C4      19.215630   19.432554   22.783416 C.3        1 MOL1        -0.1921
      11    H5      18.398333   19.989983   22.305215 H          1 MOL1         0.0712
      12    H6      19.949305   20.175393   23.126394 H          1 MOL1         0.0712
      13    C5      18.666781   18.659301   23.998815 C.3        1 MOL1        -0.2936
      14    H7      17.904530   17.931811   23.690354 H          1 MOL1         0.0724
      15    H8      18.206314   19.347840   24.719233 H          1 MOL1         0.0724
      16    H9      19.470237   18.116850   24.514233 H          1 MOL1         0.0724
@<TRIPOS>BOND
    1     1     2    1
    2     1     3    2
    3     1     4    1
    4     4     5    1
    5     4     6    1
    6     4     7    1
    7     7     8    1
    8     7     9    1
    9     7    10    1
   10    10    11    1
   11    10    12    1
   12    10    13    1
   13    13    14    1
   14    13    15    1
   15    13    16    1
@<TRIPOS>SUBSTRUCTURE
       1 MOL1            1 RESIDUE      1      MOL     
@<SCITEGIC>MOL_PROPERTY
VConf Rank
SciTegic.value.IntegerValue
636

@<SCITEGIC>MOL_PROPERTY
Conf_Id
SciTegic.value.IntegerValue
20

@<SCITEGIC>MOL_PROPERTY
Delta U+W
SciTegic.value.DoubleValue
-0.010

@<SCITEGIC>MOL_PROPERTY
U+W
SciTegic.value.DoubleValue
-56.914

@<SCITEGIC>MOL_PROPERTY
Grad RMS
SciTegic.value.DoubleValue
0.000000

@<SCITEGIC>MOL_PROPERTY
U
SciTegic.value.DoubleValue
8.277

@<SCITEGIC>MOL_PROPERTY
W
SciTegic.value.DoubleValue
-65.191

@<SCITEGIC>MOL_PROPERTY
W(PB)
SciTegic.value.DoubleValue
-67.081

@<SCITEGIC>MOL_PROPERTY
W(SA)
SciTegic.value.DoubleValue
1.890

@<SCITEGIC>MOL_PROPERTY
Valence
SciTegic.value.DoubleValue
6.513

@<SCITEGIC>MOL_PROPERTY
Coulomb
SciTegic.value.DoubleValue
1.429

@<SCITEGIC>MOL_PROPERTY
VdW
SciTegic.value.DoubleValue
0.335

@<SCITEGIC>MOL_PROPERTY
VdW6
SciTegic.value.DoubleValue
-5.021

@<SCITEGIC>MOL_PROPERTY
VdW12
SciTegic.value.DoubleValue
5.356

@<SCITEGIC>MOL_PROPERTY
Bond
SciTegic.value.DoubleValue
0.092

@<SCITEGIC>MOL_PROPERTY
Angle
SciTegic.value.DoubleValue
2.417

@<SCITEGIC>MOL_PROPERTY
Pdih
SciTegic.value.DoubleValue
4.002

@<SCITEGIC>MOL_PROPERTY
Idih
SciTegic.value.DoubleValue
0.001

@<SCITEGIC>MOL_PROPERTY
Tether
SciTegic.value.DoubleValue
0.000

@<TRIPOS>MOLECULE
guest-s18_confgen4.mol2 : confsearch ligand conformer 637
          16          15           1
SMALL
USER_CHARGES
 
@<TRIPOS>ATOM
       1    C1      21.121294   20.661555   21.286374 C.2        1 MOL1         0.6075
       2    O1      20.824954   21.264191   20.273557 O.co2      1 MOL1        -0.6830
       3    O2      22.217244   20.173893   21.479711 O.co2      1 MOL1        -0.6830
       4    C2      20.069874   20.541939   22.386352 C.3        1 MOL1        -0.2050
       5    H1      19.677103   21.548489   22.572010 H          1 MOL1         0.0710
       6    H2      20.563754   20.226210   23.312443 H          1 MOL1         0.0710
       7    C3      18.893457   19.588407   22.040668 C.3        1 MOL1        -0.1947
       8    H3      18.150308   19.625736   22.848572 H          1 MOL1         0.0712
       9    H4      18.388254   19.963625   21.139926 H          1 MOL1         0.0712
      10    C4      19.312947   18.118257   21.802599 C.3        1 MOL1        -0.1921
      11    H5      20.030952   18.063433   20.972502 H          1 MOL1         0.0712
      12    H6      18.429802   17.546678   21.485613 H          1 MOL1         0.0712
      13    C5      19.917291   17.447376   23.054450 C.3        1 MOL1        -0.2936
      14    H7      20.871370   17.912352   23.333768 H          1 MOL1         0.0724
      15    H8      20.110069   16.383652   22.864218 H          1 MOL1         0.0724
      16    H9      19.232930   17.519957   23.909697 H          1 MOL1         0.0724
@<TRIPOS>BOND
    1     1     2    1
    2     1     3    2
    3     1     4    1
    4     4     5    1
    5     4     6    1
    6     4     7    1
    7     7     8    1
    8     7     9    1
    9     7    10    1
   10    10    11    1
   11    10    12    1
   12    10    13    1
   13    13    14    1
   14    13    15    1
   15    13    16    1
@<TRIPOS>SUBSTRUCTURE
       1 MOL1            1 RESIDUE      1      MOL     
@<SCITEGIC>MOL_PROPERTY
VConf Rank
SciTegic.value.IntegerValue
637

@<SCITEGIC>MOL_PROPERTY
Conf_Id
SciTegic.value.IntegerValue
37

@<SCITEGIC>MOL_PROPERTY
Delta U+W
SciTegic.value.DoubleValue
1.063

@<SCITEGIC>MOL_PROPERTY
U+W
SciTegic.value.DoubleValue
-55.841

@<SCITEGIC>MOL_PROPERTY
Grad RMS
SciTegic.value.DoubleValue
0.000000

@<SCITEGIC>MOL_PROPERTY
U
SciTegic.value.DoubleValue
9.719

@<SCITEGIC>MOL_PROPERTY
W
SciTegic.value.DoubleValue
-65.560

@<SCITEGIC>MOL_PROPERTY
W(PB)
SciTegic.value.DoubleValue
-67.414

@<SCITEGIC>MOL_PROPERTY
W(SA)
SciTegic.value.DoubleValue
1.854

@<SCITEGIC>MOL_PROPERTY
Valence
SciTegic.value.DoubleValue
7.002

@<SCITEGIC>MOL_PROPERTY
Coulomb
SciTegic.value.DoubleValue
2.402

@<SCITEGIC>MOL_PROPERTY
VdW
SciTegic.value.DoubleValue
0.314

@<SCITEGIC>MOL_PROPERTY
VdW6
SciTegic.value.DoubleValue
-5.861

@<SCITEGIC>MOL_PROPERTY
VdW12
SciTegic.value.DoubleValue
6.175

@<SCITEGIC>MOL_PROPERTY
Bond
SciTegic.value.DoubleValue
0.134

@<SCITEGIC>MOL_PROPERTY
Angle
SciTegic.value.DoubleValue
2.733

@<SCITEGIC>MOL_PROPERTY
Pdih
SciTegic.value.DoubleValue
4.133

@<SCITEGIC>MOL_PROPERTY
Idih
SciTegic.value.DoubleValue
0.002

@<SCITEGIC>MOL_PROPERTY
Tether
SciTegic.value.DoubleValue
0.000

@<TRIPOS>MOLECULE
guest-s18_confgen4.mol2 : confsearch ligand conformer 638
          16          15           1
SMALL
USER_CHARGES
 
@<TRIPOS>ATOM
       1    C1      21.138465   20.977193   22.647381 C.2        1 MOL1         0.6075
       2    O1      21.255528   21.892992   21.857196 O.co2      1 MOL1        -0.6830
       3    O2      20.789933   21.128217   23.801512 O.co2      1 MOL1        -0.6830
       4    C2      21.481492   19.567982   22.171772 C.3        1 MOL1        -0.2050
       5    H1      21.590368   18.917786   23.047351 H          1 MOL1         0.0710
       6    H2      22.468299   19.616025   21.696604 H          1 MOL1         0.0710
       7    C3      20.458213   18.968635   21.168595 C.3        1 MOL1        -0.1947
       8    H3      20.413921   19.615226   20.281288 H          1 MOL1         0.0712
       9    H4      20.823963   17.993147   20.820714 H          1 MOL1         0.0712
      10    C4      19.029105   18.802777   21.737922 C.3        1 MOL1        -0.1921
      11    H5      18.367582   18.453227   20.933354 H          1 MOL1         0.0712
      12    H6      18.637853   19.778582   22.057803 H          1 MOL1         0.0712
      13    C5      18.954080   17.804906   22.913110 C.3        1 MOL1        -0.2936
      14    H7      19.372335   16.830268   22.629896 H          1 MOL1         0.0724
      15    H8      17.911280   17.650074   23.218812 H          1 MOL1         0.0724
      16    H9      19.503881   18.177112   23.786992 H          1 MOL1         0.0724
@<TRIPOS>BOND
    1     1     2    1
    2     1     3    2
    3     1     4    1
    4     4     5    1
    5     4     6    1
    6     4     7    1
    7     7     8    1
    8     7     9    1
    9     7    10    1
   10    10    11    1
   11    10    12    1
   12    10    13    1
   13    13    14    1
   14    13    15    1
   15    13    16    1
@<TRIPOS>SUBSTRUCTURE
       1 MOL1            1 RESIDUE      1      MOL     
@<SCITEGIC>MOL_PROPERTY
VConf Rank
SciTegic.value.IntegerValue
638

@<SCITEGIC>MOL_PROPERTY
Conf_Id
SciTegic.value.IntegerValue
39

@<SCITEGIC>MOL_PROPERTY
Delta U+W
SciTegic.value.DoubleValue
1.129

@<SCITEGIC>MOL_PROPERTY
U+W
SciTegic.value.DoubleValue
-55.775

@<SCITEGIC>MOL_PROPERTY
Grad RMS
SciTegic.value.DoubleValue
0.000000

@<SCITEGIC>MOL_PROPERTY
U
SciTegic.value.DoubleValue
9.718

@<SCITEGIC>MOL_PROPERTY
W
SciTegic.value.DoubleValue
-65.493

@<SCITEGIC>MOL_PROPERTY
W(PB)
SciTegic.value.DoubleValue
-67.361

@<SCITEGIC>MOL_PROPERTY
W(SA)
SciTegic.value.DoubleValue
1.869

@<SCITEGIC>MOL_PROPERTY
Valence
SciTegic.value.DoubleValue
7.002

@<SCITEGIC>MOL_PROPERTY
Coulomb
SciTegic.value.DoubleValue
2.402

@<SCITEGIC>MOL_PROPERTY
VdW
SciTegic.value.DoubleValue
0.314

@<SCITEGIC>MOL_PROPERTY
VdW6
SciTegic.value.DoubleValue
-5.861

@<SCITEGIC>MOL_PROPERTY
VdW12
SciTegic.value.DoubleValue
6.175

@<SCITEGIC>MOL_PROPERTY
Bond
SciTegic.value.DoubleValue
0.134

@<SCITEGIC>MOL_PROPERTY
Angle
SciTegic.value.DoubleValue
2.734

@<SCITEGIC>MOL_PROPERTY
Pdih
SciTegic.value.DoubleValue
4.133

@<SCITEGIC>MOL_PROPERTY
Idih
SciTegic.value.DoubleValue
0.002

@<SCITEGIC>MOL_PROPERTY
Tether
SciTegic.value.DoubleValue
0.000

@<TRIPOS>MOLECULE
guest-s18_confgen4.mol2 : confsearch ligand conformer 639
          16          15           1
SMALL
USER_CHARGES
 
@<TRIPOS>ATOM
       1    C1      19.374069   18.761501   24.167902 C.2        1 MOL1         0.6075
       2    O1      20.142985   19.307509   24.934363 O.co2      1 MOL1        -0.6830
       3    O2      19.022865   17.603854   24.284812 O.co2      1 MOL1        -0.6830
       4    C2      18.748861   19.600136   23.054591 C.3        1 MOL1        -0.2050
       5    H1      19.110014   20.632279   23.139618 H          1 MOL1         0.0710
       6    H2      17.671717   19.627610   23.256471 H          1 MOL1         0.0710
       7    C3      18.978556   19.067062   21.612351 C.3        1 MOL1        -0.1947
       8    H3      18.809244   17.981703   21.582864 H          1 MOL1         0.0712
       9    H4      18.213218   19.510544   20.961173 H          1 MOL1         0.0712
      10    C4      20.363803   19.405290   21.010477 C.3        1 MOL1        -0.1921
      11    H5      20.529994   20.490884   21.043605 H          1 MOL1         0.0712
      12    H6      20.358116   19.126482   19.947685 H          1 MOL1         0.0712
      13    C5      21.537640   18.679259   21.699878 C.3        1 MOL1        -0.2936
      14    H7      21.690027   19.047199   22.721836 H          1 MOL1         0.0724
      15    H8      22.470701   18.846605   21.146560 H          1 MOL1         0.0724
      16    H9      21.359480   17.596900   21.745555 H          1 MOL1         0.0724
@<TRIPOS>BOND
    1     1     2    1
    2     1     3    2
    3     1     4    1
    4     4     5    1
    5     4     6    1
    6     4     7    1
    7     7     8    1
    8     7     9    1
    9     7    10    1
   10    10    11    1
   11    10    12    1
   12    10    13    1
   13    13    14    1
   14    13    15    1
   15    13    16    1
@<TRIPOS>SUBSTRUCTURE
       1 MOL1            1 RESIDUE      1      MOL     
@<SCITEGIC>MOL_PROPERTY
VConf Rank
SciTegic.value.IntegerValue
639

@<SCITEGIC>MOL_PROPERTY
Conf_Id
SciTegic.value.IntegerValue
47

@<SCITEGIC>MOL_PROPERTY
Delta U+W
SciTegic.value.DoubleValue
2.301

@<SCITEGIC>MOL_PROPERTY
U+W
SciTegic.value.DoubleValue
-54.603

@<SCITEGIC>MOL_PROPERTY
Grad RMS
SciTegic.value.DoubleValue
0.000000

@<SCITEGIC>MOL_PROPERTY
U
SciTegic.value.DoubleValue
11.258

@<SCITEGIC>MOL_PROPERTY
W
SciTegic.value.DoubleValue
-65.861

@<SCITEGIC>MOL_PROPERTY
W(PB)
SciTegic.value.DoubleValue
-67.702

@<SCITEGIC>MOL_PROPERTY
W(SA)
SciTegic.value.DoubleValue
1.841

@<SCITEGIC>MOL_PROPERTY
Valence
SciTegic.value.DoubleValue
8.169

@<SCITEGIC>MOL_PROPERTY
Coulomb
SciTegic.value.DoubleValue
2.735

@<SCITEGIC>MOL_PROPERTY
VdW
SciTegic.value.DoubleValue
0.355

@<SCITEGIC>MOL_PROPERTY
VdW6
SciTegic.value.DoubleValue
-6.245

@<SCITEGIC>MOL_PROPERTY
VdW12
SciTegic.value.DoubleValue
6.600

@<SCITEGIC>MOL_PROPERTY
Bond
SciTegic.value.DoubleValue
0.149

@<SCITEGIC>MOL_PROPERTY
Angle
SciTegic.value.DoubleValue
3.168

@<SCITEGIC>MOL_PROPERTY
Pdih
SciTegic.value.DoubleValue
4.840

@<SCITEGIC>MOL_PROPERTY
Idih
SciTegic.value.DoubleValue
0.011

@<SCITEGIC>MOL_PROPERTY
Tether
SciTegic.value.DoubleValue
0.000

@<TRIPOS>MOLECULE
guest-s18_confgen4.mol2 : confsearch ligand conformer 640
          16          15           1
SMALL
USER_CHARGES
 
@<TRIPOS>ATOM
       1    C1      21.750388   18.434790   22.359350 C.2        1 MOL1         0.6075
       2    O1      22.329335   18.750507   21.338418 O.co2      1 MOL1        -0.6830
       3    O2      21.790198   17.315833   22.831757 O.co2      1 MOL1        -0.6830
       4    C2      21.008668   19.520083   23.137590 C.3        1 MOL1        -0.2050
       5    H1      21.762840   20.259399   23.431502 H          1 MOL1         0.0710
       6    H2      20.615171   19.087917   24.065691 H          1 MOL1         0.0710
       7    C3      19.873822   20.240109   22.356133 C.3        1 MOL1        -0.1947
       8    H3      19.674999   21.198836   22.853894 H          1 MOL1         0.0712
       9    H4      20.217451   20.490576   21.342858 H          1 MOL1         0.0712
      10    C4      18.539510   19.458854   22.286743 C.3        1 MOL1        -0.1921
      11    H5      17.772349   20.119090   21.859139 H          1 MOL1         0.0712
      12    H6      18.200379   19.208800   23.301481 H          1 MOL1         0.0712
      13    C5      18.611415   18.176007   21.432681 C.3        1 MOL1        -0.2936
      14    H7      17.610889   17.742997   21.305327 H          1 MOL1         0.0724
      15    H8      19.241965   17.414644   21.907795 H          1 MOL1         0.0724
      16    H9      19.018778   18.388575   20.435586 H          1 MOL1         0.0724
@<TRIPOS>BOND
    1     1     2    1
    2     1     3    2
    3     1     4    1
    4     4     5    1
    5     4     6    1
    6     4     7    1
    7     7     8    1
    8     7     9    1
    9     7    10    1
   10    10    11    1
   11    10    12    1
   12    10    13    1
   13    13    14    1
   14    13    15    1
   15    13    16    1
@<TRIPOS>SUBSTRUCTURE
       1 MOL1            1 RESIDUE      1      MOL     
@<SCITEGIC>MOL_PROPERTY
VConf Rank
SciTegic.value.IntegerValue
640

@<SCITEGIC>MOL_PROPERTY
Conf_Id
SciTegic.value.IntegerValue
45

@<SCITEGIC>MOL_PROPERTY
Delta U+W
SciTegic.value.DoubleValue
2.303

@<SCITEGIC>MOL_PROPERTY
U+W
SciTegic.value.DoubleValue
-54.601

@<SCITEGIC>MOL_PROPERTY
Grad RMS
SciTegic.value.DoubleValue
0.000000

@<SCITEGIC>MOL_PROPERTY
U
SciTegic.value.DoubleValue
11.258

@<SCITEGIC>MOL_PROPERTY
W
SciTegic.value.DoubleValue
-65.860

@<SCITEGIC>MOL_PROPERTY
W(PB)
SciTegic.value.DoubleValue
-67.709

@<SCITEGIC>MOL_PROPERTY
W(SA)
SciTegic.value.DoubleValue
1.849

@<SCITEGIC>MOL_PROPERTY
Valence
SciTegic.value.DoubleValue
8.169

@<SCITEGIC>MOL_PROPERTY
Coulomb
SciTegic.value.DoubleValue
2.735

@<SCITEGIC>MOL_PROPERTY
VdW
SciTegic.value.DoubleValue
0.355

@<SCITEGIC>MOL_PROPERTY
VdW6
SciTegic.value.DoubleValue
-6.245

@<SCITEGIC>MOL_PROPERTY
VdW12
SciTegic.value.DoubleValue
6.600

@<SCITEGIC>MOL_PROPERTY
Bond
SciTegic.value.DoubleValue
0.149

@<SCITEGIC>MOL_PROPERTY
Angle
SciTegic.value.DoubleValue
3.168

@<SCITEGIC>MOL_PROPERTY
Pdih
SciTegic.value.DoubleValue
4.840

@<SCITEGIC>MOL_PROPERTY
Idih
SciTegic.value.DoubleValue
0.011

@<SCITEGIC>MOL_PROPERTY
Tether
SciTegic.value.DoubleValue
0.000

@<TRIPOS>MOLECULE
guest-s18_confgen4.mol2 : confsearch ligand conformer 641
          16          15           1
SMALL
USER_CHARGES
 
@<TRIPOS>ATOM
       1    C1      17.817723   18.347735   20.424564 C.2        1 MOL1         0.6075
       2    O1      16.999996   18.803493   21.200054 O.co2      1 MOL1        -0.6830
       3    O2      17.510188   17.782667   19.394305 O.co2      1 MOL1        -0.6830
       4    C2      19.310704   18.475412   20.732132 C.3        1 MOL1        -0.2050
       5    H1      19.774484   19.002170   19.889757 H          1 MOL1         0.0710
       6    H2      19.729659   17.462283   20.746643 H          1 MOL1         0.0710
       7    C3      19.655263   19.203503   22.058597 C.3        1 MOL1        -0.1947
       8    H3      19.228351   20.215869   22.040441 H          1 MOL1         0.0712
       9    H4      19.183493   18.674388   22.898204 H          1 MOL1         0.0712
      10    C4      21.178968   19.286838   22.288025 C.3        1 MOL1        -0.1921
      11    H5      21.651804   19.817339   21.449875 H          1 MOL1         0.0712
      12    H6      21.606932   18.274938   22.308153 H          1 MOL1         0.0712
      13    C5      21.514786   20.010898   23.606776 C.3        1 MOL1        -0.2936
      14    H7      21.125180   21.037372   23.601441 H          1 MOL1         0.0724
      15    H8      22.601417   20.061482   23.754484 H          1 MOL1         0.0724
      16    H9      21.079980   19.483594   24.466056 H          1 MOL1         0.0724
@<TRIPOS>BOND
    1     1     2    1
    2     1     3    2
    3     1     4    1
    4     4     5    1
    5     4     6    1
    6     4     7    1
    7     7     8    1
    8     7     9    1
    9     7    10    1
   10    10    11    1
   11    10    12    1
   12    10    13    1
   13    13    14    1
   14    13    15    1
   15    13    16    1
@<TRIPOS>SUBSTRUCTURE
       1 MOL1            1 RESIDUE      1      MOL     
@<SCITEGIC>MOL_PROPERTY
VConf Rank
SciTegic.value.IntegerValue
641

@<SCITEGIC>MOL_PROPERTY
Conf_Id
SciTegic.value.IntegerValue
0

@<SCITEGIC>MOL_PROPERTY
Delta U+W
SciTegic.value.DoubleValue
0.000

@<SCITEGIC>MOL_PROPERTY
U+W
SciTegic.value.DoubleValue
-56.904

@<SCITEGIC>MOL_PROPERTY
Grad RMS
SciTegic.value.DoubleValue
0.000000

@<SCITEGIC>MOL_PROPERTY
U
SciTegic.value.DoubleValue
7.329

@<SCITEGIC>MOL_PROPERTY
W
SciTegic.value.DoubleValue
-64.233

@<SCITEGIC>MOL_PROPERTY
W(PB)
SciTegic.value.DoubleValue
-66.148

@<SCITEGIC>MOL_PROPERTY
W(SA)
SciTegic.value.DoubleValue
1.915

@<SCITEGIC>MOL_PROPERTY
Valence
SciTegic.value.DoubleValue
6.755

@<SCITEGIC>MOL_PROPERTY
Coulomb
SciTegic.value.DoubleValue
-0.421

@<SCITEGIC>MOL_PROPERTY
VdW
SciTegic.value.DoubleValue
0.995

@<SCITEGIC>MOL_PROPERTY
VdW6
SciTegic.value.DoubleValue
-4.495

@<SCITEGIC>MOL_PROPERTY
VdW12
SciTegic.value.DoubleValue
5.490

@<SCITEGIC>MOL_PROPERTY
Bond
SciTegic.value.DoubleValue
0.106

@<SCITEGIC>MOL_PROPERTY
Angle
SciTegic.value.DoubleValue
2.715

@<SCITEGIC>MOL_PROPERTY
Pdih
SciTegic.value.DoubleValue
3.934

@<SCITEGIC>MOL_PROPERTY
Idih
SciTegic.value.DoubleValue
0.000

@<SCITEGIC>MOL_PROPERTY
Tether
SciTegic.value.DoubleValue
0.000

@<TRIPOS>MOLECULE
guest-s18_confgen4.mol2 : confsearch ligand conformer 642
          16          15           1
SMALL
USER_CHARGES
 
@<TRIPOS>ATOM
       1    C1      22.199672   20.732652   22.387051 C.2        1 MOL1         0.6075
       2    O1      22.691854   20.629815   23.492955 O.co2      1 MOL1        -0.6830
       3    O2      22.836154   21.016723   21.392044 O.co2      1 MOL1        -0.6830
       4    C2      20.704791   20.473268   22.236609 C.3        1 MOL1        -0.2050
       5    H1      20.327412   21.111959   21.428829 H          1 MOL1         0.0710
       6    H2      20.208464   20.792852   23.160934 H          1 MOL1         0.0710
       7    C3      20.377399   18.988920   21.940661 C.3        1 MOL1        -0.1947
       8    H3      20.891187   18.680501   21.019548 H          1 MOL1         0.0712
       9    H4      20.772294   18.361364   22.751699 H          1 MOL1         0.0712
      10    C4      18.859621   18.754042   21.793205 C.3        1 MOL1        -0.1921
      11    H5      18.464462   19.380932   20.981789 H          1 MOL1         0.0712
      12    H6      18.345530   19.061750   22.714380 H          1 MOL1         0.0712
      13    C5      18.541279   17.274815   21.498847 C.3        1 MOL1        -0.2936
      14    H7      18.898130   16.627196   22.310461 H          1 MOL1         0.0724
      15    H8      19.017961   16.948729   20.565083 H          1 MOL1         0.0724
      16    H9      17.458533   17.125076   21.396928 H          1 MOL1         0.0724
@<TRIPOS>BOND
    1     1     2    1
    2     1     3    2
    3     1     4    1
    4     4     5    1
    5     4     6    1
    6     4     7    1
    7     7     8    1
    8     7     9    1
    9     7    10    1
   10    10    11    1
   11    10    12    1
   12    10    13    1
   13    13    14    1
   14    13    15    1
   15    13    16    1
@<TRIPOS>SUBSTRUCTURE
       1 MOL1            1 RESIDUE      1      MOL     
@<SCITEGIC>MOL_PROPERTY
VConf Rank
SciTegic.value.IntegerValue
642

@<SCITEGIC>MOL_PROPERTY
Conf_Id
SciTegic.value.IntegerValue
22

@<SCITEGIC>MOL_PROPERTY
Delta U+W
SciTegic.value.DoubleValue
-1.185

@<SCITEGIC>MOL_PROPERTY
U+W
SciTegic.value.DoubleValue
-58.089

@<SCITEGIC>MOL_PROPERTY
Grad RMS
SciTegic.value.DoubleValue
0.000000

@<SCITEGIC>MOL_PROPERTY
U
SciTegic.value.DoubleValue
6.298

@<SCITEGIC>MOL_PROPERTY
W
SciTegic.value.DoubleValue
-64.387

@<SCITEGIC>MOL_PROPERTY
W(PB)
SciTegic.value.DoubleValue
-66.329

@<SCITEGIC>MOL_PROPERTY
W(SA)
SciTegic.value.DoubleValue
1.942

@<SCITEGIC>MOL_PROPERTY
Valence
SciTegic.value.DoubleValue
6.246

@<SCITEGIC>MOL_PROPERTY
Coulomb
SciTegic.value.DoubleValue
-0.408

@<SCITEGIC>MOL_PROPERTY
VdW
SciTegic.value.DoubleValue
0.460

@<SCITEGIC>MOL_PROPERTY
VdW6
SciTegic.value.DoubleValue
-4.207

@<SCITEGIC>MOL_PROPERTY
VdW12
SciTegic.value.DoubleValue
4.667

@<SCITEGIC>MOL_PROPERTY
Bond
SciTegic.value.DoubleValue
0.072

@<SCITEGIC>MOL_PROPERTY
Angle
SciTegic.value.DoubleValue
2.246

@<SCITEGIC>MOL_PROPERTY
Pdih
SciTegic.value.DoubleValue
3.928

@<SCITEGIC>MOL_PROPERTY
Idih
SciTegic.value.DoubleValue
0.001

@<SCITEGIC>MOL_PROPERTY
Tether
SciTegic.value.DoubleValue
0.000

@<TRIPOS>MOLECULE
guest-s18_confgen4.mol2 : confsearch ligand conformer 643
          16          15           1
SMALL
USER_CHARGES
 
@<TRIPOS>ATOM
       1    C1      20.310511   17.080862   20.466936 C.2        1 MOL1         0.6075
       2    O1      19.387865   16.379072   20.103330 O.co2      1 MOL1        -0.6830
       3    O2      21.468415   16.713437   20.481577 O.co2      1 MOL1        -0.6830
       4    C2      19.995343   18.492235   20.949913 C.3        1 MOL1        -0.2050
       5    H1      19.128203   18.858864   20.387579 H          1 MOL1         0.0710
       6    H2      20.845935   19.132471   20.689706 H          1 MOL1         0.0710
       7    C3      19.710547   18.556793   22.472974 C.3        1 MOL1        -0.1947
       8    H3      18.912597   17.840734   22.713728 H          1 MOL1         0.0712
       9    H4      20.600758   18.227682   23.026615 H          1 MOL1         0.0712
      10    C4      19.282018   19.960228   22.959946 C.3        1 MOL1        -0.1921
      11    H5      18.995323   19.894415   24.018617 H          1 MOL1         0.0712
      12    H6      18.384862   20.284558   22.414693 H          1 MOL1         0.0712
      13    C5      20.392639   21.021841   22.810163 C.3        1 MOL1        -0.2936
      14    H7      20.633182   21.204319   21.755353 H          1 MOL1         0.0724
      15    H8      21.310111   20.705737   23.323556 H          1 MOL1         0.0724
      16    H9      20.072407   21.976323   23.247682 H          1 MOL1         0.0724
@<TRIPOS>BOND
    1     1     2    1
    2     1     3    2
    3     1     4    1
    4     4     5    1
    5     4     6    1
    6     4     7    1
    7     7     8    1
    8     7     9    1
    9     7    10    1
   10    10    11    1
   11    10    12    1
   12    10    13    1
   13    13    14    1
   14    13    15    1
   15    13    16    1
@<TRIPOS>SUBSTRUCTURE
       1 MOL1            1 RESIDUE      1      MOL     
@<SCITEGIC>MOL_PROPERTY
VConf Rank
SciTegic.value.IntegerValue
643

@<SCITEGIC>MOL_PROPERTY
Conf_Id
SciTegic.value.IntegerValue
36

@<SCITEGIC>MOL_PROPERTY
Delta U+W
SciTegic.value.DoubleValue
-0.427

@<SCITEGIC>MOL_PROPERTY
U+W
SciTegic.value.DoubleValue
-57.331

@<SCITEGIC>MOL_PROPERTY
Grad RMS
SciTegic.value.DoubleValue
0.000000

@<SCITEGIC>MOL_PROPERTY
U
SciTegic.value.DoubleValue
7.263

@<SCITEGIC>MOL_PROPERTY
W
SciTegic.value.DoubleValue
-64.594

@<SCITEGIC>MOL_PROPERTY
W(PB)
SciTegic.value.DoubleValue
-66.513

@<SCITEGIC>MOL_PROPERTY
W(SA)
SciTegic.value.DoubleValue
1.920

@<SCITEGIC>MOL_PROPERTY
Valence
SciTegic.value.DoubleValue
6.734

@<SCITEGIC>MOL_PROPERTY
Coulomb
SciTegic.value.DoubleValue
-0.068

@<SCITEGIC>MOL_PROPERTY
VdW
SciTegic.value.DoubleValue
0.598

@<SCITEGIC>MOL_PROPERTY
VdW6
SciTegic.value.DoubleValue
-4.819

@<SCITEGIC>MOL_PROPERTY
VdW12
SciTegic.value.DoubleValue
5.417

@<SCITEGIC>MOL_PROPERTY
Bond
SciTegic.value.DoubleValue
0.107

@<SCITEGIC>MOL_PROPERTY
Angle
SciTegic.value.DoubleValue
2.469

@<SCITEGIC>MOL_PROPERTY
Pdih
SciTegic.value.DoubleValue
4.157

@<SCITEGIC>MOL_PROPERTY
Idih
SciTegic.value.DoubleValue
0.001

@<SCITEGIC>MOL_PROPERTY
Tether
SciTegic.value.DoubleValue
0.000

@<TRIPOS>MOLECULE
guest-s18_confgen4.mol2 : confsearch ligand conformer 644
          16          15           1
SMALL
USER_CHARGES
 
@<TRIPOS>ATOM
       1    C1      20.156429   21.404209   23.231544 C.2        1 MOL1         0.6075
       2    O1      19.329006   21.490925   24.116873 O.co2      1 MOL1        -0.6830
       3    O2      20.731122   22.361854   22.753381 O.co2      1 MOL1        -0.6830
       4    C2      20.476583   20.020812   22.676308 C.3        1 MOL1        -0.2050
       5    H1      20.376897   19.300197   23.496000 H          1 MOL1         0.0710
       6    H2      21.527613   20.014330   22.363478 H          1 MOL1         0.0710
       7    C3      19.562962   19.623934   21.487705 C.3        1 MOL1        -0.1947
       8    H3      18.517316   19.592262   21.823759 H          1 MOL1         0.0712
       9    H4      19.619351   20.409348   20.721301 H          1 MOL1         0.0712
      10    C4      19.945247   18.271949   20.842412 C.3        1 MOL1        -0.1921
      11    H5      20.987320   18.307450   20.495708 H          1 MOL1         0.0712
      12    H6      19.325303   18.119613   19.948113 H          1 MOL1         0.0712
      13    C5      19.754451   17.069189   21.791041 C.3        1 MOL1        -0.2936
      14    H7      20.438980   17.121094   22.646909 H          1 MOL1         0.0724
      15    H8      19.954535   16.128193   21.262363 H          1 MOL1         0.0724
      16    H9      18.726172   17.029780   22.173583 H          1 MOL1         0.0724
@<TRIPOS>BOND
    1     1     2    1
    2     1     3    2
    3     1     4    1
    4     4     5    1
    5     4     6    1
    6     4     7    1
    7     7     8    1
    8     7     9    1
    9     7    10    1
   10    10    11    1
   11    10    12    1
   12    10    13    1
   13    13    14    1
   14    13    15    1
   15    13    16    1
@<TRIPOS>SUBSTRUCTURE
       1 MOL1            1 RESIDUE      1      MOL     
@<SCITEGIC>MOL_PROPERTY
VConf Rank
SciTegic.value.IntegerValue
644

@<SCITEGIC>MOL_PROPERTY
Conf_Id
SciTegic.value.IntegerValue
17

@<SCITEGIC>MOL_PROPERTY
Delta U+W
SciTegic.value.DoubleValue
-0.432

@<SCITEGIC>MOL_PROPERTY
U+W
SciTegic.value.DoubleValue
-57.336

@<SCITEGIC>MOL_PROPERTY
Grad RMS
SciTegic.value.DoubleValue
0.000000

@<SCITEGIC>MOL_PROPERTY
U
SciTegic.value.DoubleValue
7.263

@<SCITEGIC>MOL_PROPERTY
W
SciTegic.value.DoubleValue
-64.599

@<SCITEGIC>MOL_PROPERTY
W(PB)
SciTegic.value.DoubleValue
-66.503

@<SCITEGIC>MOL_PROPERTY
W(SA)
SciTegic.value.DoubleValue
1.904

@<SCITEGIC>MOL_PROPERTY
Valence
SciTegic.value.DoubleValue
6.734

@<SCITEGIC>MOL_PROPERTY
Coulomb
SciTegic.value.DoubleValue
-0.068

@<SCITEGIC>MOL_PROPERTY
VdW
SciTegic.value.DoubleValue
0.598

@<SCITEGIC>MOL_PROPERTY
VdW6
SciTegic.value.DoubleValue
-4.819

@<SCITEGIC>MOL_PROPERTY
VdW12
SciTegic.value.DoubleValue
5.417

@<SCITEGIC>MOL_PROPERTY
Bond
SciTegic.value.DoubleValue
0.107

@<SCITEGIC>MOL_PROPERTY
Angle
SciTegic.value.DoubleValue
2.469

@<SCITEGIC>MOL_PROPERTY
Pdih
SciTegic.value.DoubleValue
4.157

@<SCITEGIC>MOL_PROPERTY
Idih
SciTegic.value.DoubleValue
0.001

@<SCITEGIC>MOL_PROPERTY
Tether
SciTegic.value.DoubleValue
0.000

@<TRIPOS>MOLECULE
guest-s18_confgen4.mol2 : confsearch ligand conformer 645
          16          15           1
SMALL
USER_CHARGES
 
@<TRIPOS>ATOM
       1    C1      19.254695   16.963579   22.423511 C.2        1 MOL1         0.6075
       2    O1      19.924412   16.084330   21.918791 O.co2      1 MOL1        -0.6830
       3    O2      18.853489   16.927354   23.569802 O.co2      1 MOL1        -0.6830
       4    C2      18.878194   18.165954   21.562098 C.3        1 MOL1        -0.2050
       5    H1      18.019284   18.670755   22.020937 H          1 MOL1         0.0710
       6    H2      18.539296   17.781880   20.592630 H          1 MOL1         0.0710
       7    C3      20.036296   19.173776   21.342711 C.3        1 MOL1        -0.1947
       8    H3      20.898909   18.648601   20.909451 H          1 MOL1         0.0712
       9    H4      19.720531   19.924645   20.605794 H          1 MOL1         0.0712
      10    C4      20.458417   19.886220   22.645945 C.3        1 MOL1        -0.1921
      11    H5      20.796034   19.145602   23.384338 H          1 MOL1         0.0712
      12    H6      19.592080   20.400519   23.084503 H          1 MOL1         0.0712
      13    C5      21.586792   20.905846   22.393995 C.3        1 MOL1        -0.2936
      14    H7      22.477423   20.412087   21.983594 H          1 MOL1         0.0724
      15    H8      21.875289   21.402217   23.329678 H          1 MOL1         0.0724
      16    H9      21.265958   21.679917   21.684562 H          1 MOL1         0.0724
@<TRIPOS>BOND
    1     1     2    1
    2     1     3    2
    3     1     4    1
    4     4     5    1
    5     4     6    1
    6     4     7    1
    7     7     8    1
    8     7     9    1
    9     7    10    1
   10    10    11    1
   11    10    12    1
   12    10    13    1
   13    13    14    1
   14    13    15    1
   15    13    16    1
@<TRIPOS>SUBSTRUCTURE
       1 MOL1            1 RESIDUE      1      MOL     
@<SCITEGIC>MOL_PROPERTY
VConf Rank
SciTegic.value.IntegerValue
645

@<SCITEGIC>MOL_PROPERTY
Conf_Id
SciTegic.value.IntegerValue
19

@<SCITEGIC>MOL_PROPERTY
Delta U+W
SciTegic.value.DoubleValue
0.048

@<SCITEGIC>MOL_PROPERTY
U+W
SciTegic.value.DoubleValue
-56.856

@<SCITEGIC>MOL_PROPERTY
Grad RMS
SciTegic.value.DoubleValue
0.000000

@<SCITEGIC>MOL_PROPERTY
U
SciTegic.value.DoubleValue
8.276

@<SCITEGIC>MOL_PROPERTY
W
SciTegic.value.DoubleValue
-65.132

@<SCITEGIC>MOL_PROPERTY
W(PB)
SciTegic.value.DoubleValue
-67.031

@<SCITEGIC>MOL_PROPERTY
W(SA)
SciTegic.value.DoubleValue
1.899

@<SCITEGIC>MOL_PROPERTY
Valence
SciTegic.value.DoubleValue
6.513

@<SCITEGIC>MOL_PROPERTY
Coulomb
SciTegic.value.DoubleValue
1.428

@<SCITEGIC>MOL_PROPERTY
VdW
SciTegic.value.DoubleValue
0.335

@<SCITEGIC>MOL_PROPERTY
VdW6
SciTegic.value.DoubleValue
-5.021

@<SCITEGIC>MOL_PROPERTY
VdW12
SciTegic.value.DoubleValue
5.356

@<SCITEGIC>MOL_PROPERTY
Bond
SciTegic.value.DoubleValue
0.092

@<SCITEGIC>MOL_PROPERTY
Angle
SciTegic.value.DoubleValue
2.417

@<SCITEGIC>MOL_PROPERTY
Pdih
SciTegic.value.DoubleValue
4.003

@<SCITEGIC>MOL_PROPERTY
Idih
SciTegic.value.DoubleValue
0.001

@<SCITEGIC>MOL_PROPERTY
Tether
SciTegic.value.DoubleValue
0.000

@<TRIPOS>MOLECULE
guest-s18_confgen4.mol2 : confsearch ligand conformer 646
          16          15           1
SMALL
USER_CHARGES
 
@<TRIPOS>ATOM
       1    C1      19.740929   16.897138   21.408893 C.2        1 MOL1         0.6075
       2    O1      19.948069   16.106724   22.308160 O.co2      1 MOL1        -0.6830
       3    O2      20.282326   16.835118   20.322935 O.co2      1 MOL1        -0.6830
       4    C2      18.728378   18.013292   21.650636 C.3        1 MOL1        -0.2050
       5    H1      17.848226   17.561264   22.123117 H          1 MOL1         0.0710
       6    H2      18.400830   18.405738   20.680181 H          1 MOL1         0.0710
       7    C3      19.259024   19.165959   22.542162 C.3        1 MOL1        -0.1947
       8    H3      18.429260   19.846724   22.775848 H          1 MOL1         0.0712
       9    H4      19.609628   18.754496   23.498926 H          1 MOL1         0.0712
      10    C4      20.396406   19.963133   21.867576 C.3        1 MOL1        -0.1921
      11    H5      20.048243   20.363495   20.905354 H          1 MOL1         0.0712
      12    H6      21.241173   19.295576   21.647443 H          1 MOL1         0.0712
      13    C5      20.881944   21.122472   22.760067 C.3        1 MOL1        -0.2936
      14    H7      20.065569   21.826247   22.968987 H          1 MOL1         0.0724
      15    H8      21.690234   21.677776   22.266689 H          1 MOL1         0.0724
      16    H9      21.264557   20.746527   23.718046 H          1 MOL1         0.0724
@<TRIPOS>BOND
    1     1     2    1
    2     1     3    2
    3     1     4    1
    4     4     5    1
    5     4     6    1
    6     4     7    1
    7     7     8    1
    8     7     9    1
    9     7    10    1
   10    10    11    1
   11    10    12    1
   12    10    13    1
   13    13    14    1
   14    13    15    1
   15    13    16    1
@<TRIPOS>SUBSTRUCTURE
       1 MOL1            1 RESIDUE      1      MOL     
@<SCITEGIC>MOL_PROPERTY
VConf Rank
SciTegic.value.IntegerValue
646

@<SCITEGIC>MOL_PROPERTY
Conf_Id
SciTegic.value.IntegerValue
20

@<SCITEGIC>MOL_PROPERTY
Delta U+W
SciTegic.value.DoubleValue
-0.010

@<SCITEGIC>MOL_PROPERTY
U+W
SciTegic.value.DoubleValue
-56.914

@<SCITEGIC>MOL_PROPERTY
Grad RMS
SciTegic.value.DoubleValue
0.000000

@<SCITEGIC>MOL_PROPERTY
U
SciTegic.value.DoubleValue
8.277

@<SCITEGIC>MOL_PROPERTY
W
SciTegic.value.DoubleValue
-65.191

@<SCITEGIC>MOL_PROPERTY
W(PB)
SciTegic.value.DoubleValue
-67.081

@<SCITEGIC>MOL_PROPERTY
W(SA)
SciTegic.value.DoubleValue
1.890

@<SCITEGIC>MOL_PROPERTY
Valence
SciTegic.value.DoubleValue
6.513

@<SCITEGIC>MOL_PROPERTY
Coulomb
SciTegic.value.DoubleValue
1.429

@<SCITEGIC>MOL_PROPERTY
VdW
SciTegic.value.DoubleValue
0.335

@<SCITEGIC>MOL_PROPERTY
VdW6
SciTegic.value.DoubleValue
-5.021

@<SCITEGIC>MOL_PROPERTY
VdW12
SciTegic.value.DoubleValue
5.356

@<SCITEGIC>MOL_PROPERTY
Bond
SciTegic.value.DoubleValue
0.092

@<SCITEGIC>MOL_PROPERTY
Angle
SciTegic.value.DoubleValue
2.417

@<SCITEGIC>MOL_PROPERTY
Pdih
SciTegic.value.DoubleValue
4.002

@<SCITEGIC>MOL_PROPERTY
Idih
SciTegic.value.DoubleValue
0.001

@<SCITEGIC>MOL_PROPERTY
Tether
SciTegic.value.DoubleValue
0.000

@<TRIPOS>MOLECULE
guest-s18_confgen4.mol2 : confsearch ligand conformer 647
          16          15           1
SMALL
USER_CHARGES
 
@<TRIPOS>ATOM
       1    C1      19.189559   18.232960   23.989753 C.2        1 MOL1         0.6075
       2    O1      19.946690   17.826825   24.849167 O.co2      1 MOL1        -0.6830
       3    O2      18.242807   17.594610   23.574457 O.co2      1 MOL1        -0.6830
       4    C2      19.422561   19.633123   23.428508 C.3        1 MOL1        -0.2050
       5    H1      19.524732   20.313168   24.282312 H          1 MOL1         0.0710
       6    H2      18.523905   19.949020   22.886406 H          1 MOL1         0.0710
       7    C3      20.679007   19.754509   22.523364 C.3        1 MOL1        -0.1947
       8    H3      20.812930   20.805047   22.232147 H          1 MOL1         0.0712
       9    H4      21.565792   19.482795   23.112548 H          1 MOL1         0.0712
      10    C4      20.635761   18.875234   21.250966 C.3        1 MOL1        -0.1921
      11    H5      20.536892   17.817011   21.530225 H          1 MOL1         0.0712
      12    H6      21.596340   18.967841   20.725762 H          1 MOL1         0.0712
      13    C5      19.498856   19.262823   20.281603 C.3        1 MOL1        -0.2936
      14    H7      18.514023   19.067667   20.724892 H          1 MOL1         0.0724
      15    H8      19.567699   18.676976   19.355912 H          1 MOL1         0.0724
      16    H9      19.554049   20.326140   20.014439 H          1 MOL1         0.0724
@<TRIPOS>BOND
    1     1     2    1
    2     1     3    2
    3     1     4    1
    4     4     5    1
    5     4     6    1
    6     4     7    1
    7     7     8    1
    8     7     9    1
    9     7    10    1
   10    10    11    1
   11    10    12    1
   12    10    13    1
   13    13    14    1
   14    13    15    1
   15    13    16    1
@<TRIPOS>SUBSTRUCTURE
       1 MOL1            1 RESIDUE      1      MOL     
@<SCITEGIC>MOL_PROPERTY
VConf Rank
SciTegic.value.IntegerValue
647

@<SCITEGIC>MOL_PROPERTY
Conf_Id
SciTegic.value.IntegerValue
37

@<SCITEGIC>MOL_PROPERTY
Delta U+W
SciTegic.value.DoubleValue
1.063

@<SCITEGIC>MOL_PROPERTY
U+W
SciTegic.value.DoubleValue
-55.841

@<SCITEGIC>MOL_PROPERTY
Grad RMS
SciTegic.value.DoubleValue
0.000000

@<SCITEGIC>MOL_PROPERTY
U
SciTegic.value.DoubleValue
9.719

@<SCITEGIC>MOL_PROPERTY
W
SciTegic.value.DoubleValue
-65.560

@<SCITEGIC>MOL_PROPERTY
W(PB)
SciTegic.value.DoubleValue
-67.414

@<SCITEGIC>MOL_PROPERTY
W(SA)
SciTegic.value.DoubleValue
1.854

@<SCITEGIC>MOL_PROPERTY
Valence
SciTegic.value.DoubleValue
7.002

@<SCITEGIC>MOL_PROPERTY
Coulomb
SciTegic.value.DoubleValue
2.402

@<SCITEGIC>MOL_PROPERTY
VdW
SciTegic.value.DoubleValue
0.314

@<SCITEGIC>MOL_PROPERTY
VdW6
SciTegic.value.DoubleValue
-5.861

@<SCITEGIC>MOL_PROPERTY
VdW12
SciTegic.value.DoubleValue
6.175

@<SCITEGIC>MOL_PROPERTY
Bond
SciTegic.value.DoubleValue
0.134

@<SCITEGIC>MOL_PROPERTY
Angle
SciTegic.value.DoubleValue
2.733

@<SCITEGIC>MOL_PROPERTY
Pdih
SciTegic.value.DoubleValue
4.133

@<SCITEGIC>MOL_PROPERTY
Idih
SciTegic.value.DoubleValue
0.002

@<SCITEGIC>MOL_PROPERTY
Tether
SciTegic.value.DoubleValue
0.000

@<TRIPOS>MOLECULE
guest-s18_confgen4.mol2 : confsearch ligand conformer 648
          16          15           1
SMALL
USER_CHARGES
 
@<TRIPOS>ATOM
       1    C1      18.986041   20.297524   23.567052 C.2        1 MOL1         0.6075
       2    O1      19.284879   21.428472   23.896352 O.co2      1 MOL1        -0.6830
       3    O2      17.859592   19.965896   23.254906 O.co2      1 MOL1        -0.6830
       4    C2      20.078454   19.231599   23.580633 C.3        1 MOL1        -0.2050
       5    H1      19.606685   18.243529   23.531631 H          1 MOL1         0.0710
       6    H2      20.577194   19.289082   24.555228 H          1 MOL1         0.0710
       7    C3      21.135654   19.390034   22.453733 C.3        1 MOL1        -0.1947
       8    H3      21.625937   20.367087   22.564843 H          1 MOL1         0.0712
       9    H4      21.921277   18.634318   22.588128 H          1 MOL1         0.0712
      10    C4      20.562187   19.278722   21.020995 C.3        1 MOL1        -0.1921
      11    H5      21.366866   19.486006   20.302209 H          1 MOL1         0.0712
      12    H6      19.798684   20.052926   20.862035 H          1 MOL1         0.0712
      13    C5      19.963290   17.890263   20.711246 C.3        1 MOL1        -0.2936
      14    H7      20.696470   17.094531   20.896513 H          1 MOL1         0.0724
      15    H8      19.657387   17.830640   19.658759 H          1 MOL1         0.0724
      16    H9      19.075703   17.693519   21.326037 H          1 MOL1         0.0724
@<TRIPOS>BOND
    1     1     2    1
    2     1     3    2
    3     1     4    1
    4     4     5    1
    5     4     6    1
    6     4     7    1
    7     7     8    1
    8     7     9    1
    9     7    10    1
   10    10    11    1
   11    10    12    1
   12    10    13    1
   13    13    14    1
   14    13    15    1
   15    13    16    1
@<TRIPOS>SUBSTRUCTURE
       1 MOL1            1 RESIDUE      1      MOL     
@<SCITEGIC>MOL_PROPERTY
VConf Rank
SciTegic.value.IntegerValue
648

@<SCITEGIC>MOL_PROPERTY
Conf_Id
SciTegic.value.IntegerValue
39

@<SCITEGIC>MOL_PROPERTY
Delta U+W
SciTegic.value.DoubleValue
1.129

@<SCITEGIC>MOL_PROPERTY
U+W
SciTegic.value.DoubleValue
-55.775

@<SCITEGIC>MOL_PROPERTY
Grad RMS
SciTegic.value.DoubleValue
0.000000

@<SCITEGIC>MOL_PROPERTY
U
SciTegic.value.DoubleValue
9.718

@<SCITEGIC>MOL_PROPERTY
W
SciTegic.value.DoubleValue
-65.493

@<SCITEGIC>MOL_PROPERTY
W(PB)
SciTegic.value.DoubleValue
-67.361

@<SCITEGIC>MOL_PROPERTY
W(SA)
SciTegic.value.DoubleValue
1.869

@<SCITEGIC>MOL_PROPERTY
Valence
SciTegic.value.DoubleValue
7.002

@<SCITEGIC>MOL_PROPERTY
Coulomb
SciTegic.value.DoubleValue
2.402

@<SCITEGIC>MOL_PROPERTY
VdW
SciTegic.value.DoubleValue
0.314

@<SCITEGIC>MOL_PROPERTY
VdW6
SciTegic.value.DoubleValue
-5.861

@<SCITEGIC>MOL_PROPERTY
VdW12
SciTegic.value.DoubleValue
6.175

@<SCITEGIC>MOL_PROPERTY
Bond
SciTegic.value.DoubleValue
0.134

@<SCITEGIC>MOL_PROPERTY
Angle
SciTegic.value.DoubleValue
2.734

@<SCITEGIC>MOL_PROPERTY
Pdih
SciTegic.value.DoubleValue
4.133

@<SCITEGIC>MOL_PROPERTY
Idih
SciTegic.value.DoubleValue
0.002

@<SCITEGIC>MOL_PROPERTY
Tether
SciTegic.value.DoubleValue
0.000

@<TRIPOS>MOLECULE
guest-s18_confgen4.mol2 : confsearch ligand conformer 649
          16          15           1
SMALL
USER_CHARGES
 
@<TRIPOS>ATOM
       1    C1      18.708547   19.966787   23.603090 C.2        1 MOL1         0.6075
       2    O1      18.622075   21.160199   23.390697 O.co2      1 MOL1        -0.6830
       3    O2      18.937842   19.497901   24.700691 O.co2      1 MOL1        -0.6830
       4    C2      18.425220   19.006735   22.449104 C.3        1 MOL1        -0.2050
       5    H1      18.159903   19.588429   21.557916 H          1 MOL1         0.0710
       6    H2      17.530078   18.440324   22.731324 H          1 MOL1         0.0710
       7    C3      19.570544   18.008738   22.118624 C.3        1 MOL1        -0.1947
       8    H3      19.971698   17.578386   23.046747 H          1 MOL1         0.0712
       9    H4      19.137397   17.169203   21.558253 H          1 MOL1         0.0712
      10    C4      20.719577   18.601252   21.267616 C.3        1 MOL1        -0.1921
      11    H5      20.314212   19.032133   20.341738 H          1 MOL1         0.0712
      12    H6      21.383389   17.781026   20.961225 H          1 MOL1         0.0712
      13    C5      21.561772   19.660926   22.007944 C.3        1 MOL1        -0.2936
      14    H7      20.983070   20.574463   22.191119 H          1 MOL1         0.0724
      15    H8      22.438847   19.940454   21.410137 H          1 MOL1         0.0724
      16    H9      21.917118   19.277863   22.973513 H          1 MOL1         0.0724
@<TRIPOS>BOND
    1     1     2    1
    2     1     3    2
    3     1     4    1
    4     4     5    1
    5     4     6    1
    6     4     7    1
    7     7     8    1
    8     7     9    1
    9     7    10    1
   10    10    11    1
   11    10    12    1
   12    10    13    1
   13    13    14    1
   14    13    15    1
   15    13    16    1
@<TRIPOS>SUBSTRUCTURE
       1 MOL1            1 RESIDUE      1      MOL     
@<SCITEGIC>MOL_PROPERTY
VConf Rank
SciTegic.value.IntegerValue
649

@<SCITEGIC>MOL_PROPERTY
Conf_Id
SciTegic.value.IntegerValue
47

@<SCITEGIC>MOL_PROPERTY
Delta U+W
SciTegic.value.DoubleValue
2.301

@<SCITEGIC>MOL_PROPERTY
U+W
SciTegic.value.DoubleValue
-54.603

@<SCITEGIC>MOL_PROPERTY
Grad RMS
SciTegic.value.DoubleValue
0.000000

@<SCITEGIC>MOL_PROPERTY
U
SciTegic.value.DoubleValue
11.258

@<SCITEGIC>MOL_PROPERTY
W
SciTegic.value.DoubleValue
-65.861

@<SCITEGIC>MOL_PROPERTY
W(PB)
SciTegic.value.DoubleValue
-67.702

@<SCITEGIC>MOL_PROPERTY
W(SA)
SciTegic.value.DoubleValue
1.841

@<SCITEGIC>MOL_PROPERTY
Valence
SciTegic.value.DoubleValue
8.169

@<SCITEGIC>MOL_PROPERTY
Coulomb
SciTegic.value.DoubleValue
2.735

@<SCITEGIC>MOL_PROPERTY
VdW
SciTegic.value.DoubleValue
0.355

@<SCITEGIC>MOL_PROPERTY
VdW6
SciTegic.value.DoubleValue
-6.245

@<SCITEGIC>MOL_PROPERTY
VdW12
SciTegic.value.DoubleValue
6.600

@<SCITEGIC>MOL_PROPERTY
Bond
SciTegic.value.DoubleValue
0.149

@<SCITEGIC>MOL_PROPERTY
Angle
SciTegic.value.DoubleValue
3.168

@<SCITEGIC>MOL_PROPERTY
Pdih
SciTegic.value.DoubleValue
4.840

@<SCITEGIC>MOL_PROPERTY
Idih
SciTegic.value.DoubleValue
0.011

@<SCITEGIC>MOL_PROPERTY
Tether
SciTegic.value.DoubleValue
0.000

@<TRIPOS>MOLECULE
guest-s18_confgen4.mol2 : confsearch ligand conformer 650
          16          15           1
SMALL
USER_CHARGES
 
@<TRIPOS>ATOM
       1    C1      18.475702   18.953752   20.852930 C.2        1 MOL1         0.6075
       2    O1      17.405945   19.281024   21.327980 O.co2      1 MOL1        -0.6830
       3    O2      18.632758   17.948056   20.189057 O.co2      1 MOL1        -0.6830
       4    C2      19.663783   19.899038   21.021942 C.3        1 MOL1        -0.2050
       5    H1      19.385115   20.836764   20.527208 H          1 MOL1         0.0710
       6    H2      20.521594   19.496309   20.469722 H          1 MOL1         0.0710
       7    C3      20.066020   20.204360   22.492307 C.3        1 MOL1        -0.1947
       8    H3      20.652182   21.133252   22.497459 H          1 MOL1         0.0712
       9    H4      19.167933   20.409742   23.091303 H          1 MOL1         0.0712
      10    C4      20.917882   19.105107   23.171672 C.3        1 MOL1        -0.1921
      11    H5      21.276295   19.490097   24.136357 H          1 MOL1         0.0712
      12    H6      21.813662   18.901450   22.568900 H          1 MOL1         0.0712
      13    C5      20.152322   17.789698   23.424459 C.3        1 MOL1        -0.2936
      14    H7      20.758445   17.102853   24.029131 H          1 MOL1         0.0724
      15    H8      19.914971   17.278508   22.483528 H          1 MOL1         0.0724
      16    H9      19.213545   17.977009   23.961991 H          1 MOL1         0.0724
@<TRIPOS>BOND
    1     1     2    1
    2     1     3    2
    3     1     4    1
    4     4     5    1
    5     4     6    1
    6     4     7    1
    7     7     8    1
    8     7     9    1
    9     7    10    1
   10    10    11    1
   11    10    12    1
   12    10    13    1
   13    13    14    1
   14    13    15    1
   15    13    16    1
@<TRIPOS>SUBSTRUCTURE
       1 MOL1            1 RESIDUE      1      MOL     
@<SCITEGIC>MOL_PROPERTY
VConf Rank
SciTegic.value.IntegerValue
650

@<SCITEGIC>MOL_PROPERTY
Conf_Id
SciTegic.value.IntegerValue
45

@<SCITEGIC>MOL_PROPERTY
Delta U+W
SciTegic.value.DoubleValue
2.303

@<SCITEGIC>MOL_PROPERTY
U+W
SciTegic.value.DoubleValue
-54.601

@<SCITEGIC>MOL_PROPERTY
Grad RMS
SciTegic.value.DoubleValue
0.000000

@<SCITEGIC>MOL_PROPERTY
U
SciTegic.value.DoubleValue
11.258

@<SCITEGIC>MOL_PROPERTY
W
SciTegic.value.DoubleValue
-65.860

@<SCITEGIC>MOL_PROPERTY
W(PB)
SciTegic.value.DoubleValue
-67.709

@<SCITEGIC>MOL_PROPERTY
W(SA)
SciTegic.value.DoubleValue
1.849

@<SCITEGIC>MOL_PROPERTY
Valence
SciTegic.value.DoubleValue
8.169

@<SCITEGIC>MOL_PROPERTY
Coulomb
SciTegic.value.DoubleValue
2.735

@<SCITEGIC>MOL_PROPERTY
VdW
SciTegic.value.DoubleValue
0.355

@<SCITEGIC>MOL_PROPERTY
VdW6
SciTegic.value.DoubleValue
-6.245

@<SCITEGIC>MOL_PROPERTY
VdW12
SciTegic.value.DoubleValue
6.600

@<SCITEGIC>MOL_PROPERTY
Bond
SciTegic.value.DoubleValue
0.149

@<SCITEGIC>MOL_PROPERTY
Angle
SciTegic.value.DoubleValue
3.168

@<SCITEGIC>MOL_PROPERTY
Pdih
SciTegic.value.DoubleValue
4.840

@<SCITEGIC>MOL_PROPERTY
Idih
SciTegic.value.DoubleValue
0.011

@<SCITEGIC>MOL_PROPERTY
Tether
SciTegic.value.DoubleValue
0.000

@<TRIPOS>MOLECULE
guest-s18_confgen4.mol2 : confsearch ligand conformer 651
          16          15           1
SMALL
USER_CHARGES
 
@<TRIPOS>ATOM
       1    C1      20.532430   21.310628   23.521118 C.2        1 MOL1         0.6075
       2    O1      21.720365   21.328466   23.263691 O.co2      1 MOL1        -0.6830
       3    O2      20.004645   22.109863   24.268098 O.co2      1 MOL1        -0.6830
       4    C2      19.634030   20.244695   22.891389 C.3        1 MOL1        -0.2050
       5    H1      18.840527   20.767185   22.344107 H          1 MOL1         0.0710
       6    H2      19.152077   19.697517   23.710218 H          1 MOL1         0.0710
       7    C3      20.352123   19.245749   21.945452 C.3        1 MOL1        -0.1947
       8    H3      20.837568   19.800109   21.130285 H          1 MOL1         0.0712
       9    H4      21.149423   18.729333   22.497808 H          1 MOL1         0.0712
      10    C4      19.372978   18.208549   21.356598 C.3        1 MOL1        -0.1921
      11    H5      18.576056   18.723637   20.802432 H          1 MOL1         0.0712
      12    H6      18.888090   17.652212   22.170767 H          1 MOL1         0.0712
      13    C5      20.091973   17.219392   20.418111 C.3        1 MOL1        -0.2936
      14    H7      20.560168   17.746362   19.576348 H          1 MOL1         0.0724
      15    H8      19.381971   16.489255   20.008309 H          1 MOL1         0.0724
      16    H9      20.874505   16.667029   20.954774 H          1 MOL1         0.0724
@<TRIPOS>BOND
    1     1     2    1
    2     1     3    2
    3     1     4    1
    4     4     5    1
    5     4     6    1
    6     4     7    1
    7     7     8    1
    8     7     9    1
    9     7    10    1
   10    10    11    1
   11    10    12    1
   12    10    13    1
   13    13    14    1
   14    13    15    1
   15    13    16    1
@<TRIPOS>SUBSTRUCTURE
       1 MOL1            1 RESIDUE      1      MOL     
@<SCITEGIC>MOL_PROPERTY
VConf Rank
SciTegic.value.IntegerValue
651

@<SCITEGIC>MOL_PROPERTY
Conf_Id
SciTegic.value.IntegerValue
0

@<SCITEGIC>MOL_PROPERTY
Delta U+W
SciTegic.value.DoubleValue
0.000

@<SCITEGIC>MOL_PROPERTY
U+W
SciTegic.value.DoubleValue
-56.904

@<SCITEGIC>MOL_PROPERTY
Grad RMS
SciTegic.value.DoubleValue
0.000000

@<SCITEGIC>MOL_PROPERTY
U
SciTegic.value.DoubleValue
7.329

@<SCITEGIC>MOL_PROPERTY
W
SciTegic.value.DoubleValue
-64.233

@<SCITEGIC>MOL_PROPERTY
W(PB)
SciTegic.value.DoubleValue
-66.148

@<SCITEGIC>MOL_PROPERTY
W(SA)
SciTegic.value.DoubleValue
1.915

@<SCITEGIC>MOL_PROPERTY
Valence
SciTegic.value.DoubleValue
6.755

@<SCITEGIC>MOL_PROPERTY
Coulomb
SciTegic.value.DoubleValue
-0.421

@<SCITEGIC>MOL_PROPERTY
VdW
SciTegic.value.DoubleValue
0.995

@<SCITEGIC>MOL_PROPERTY
VdW6
SciTegic.value.DoubleValue
-4.495

@<SCITEGIC>MOL_PROPERTY
VdW12
SciTegic.value.DoubleValue
5.490

@<SCITEGIC>MOL_PROPERTY
Bond
SciTegic.value.DoubleValue
0.106

@<SCITEGIC>MOL_PROPERTY
Angle
SciTegic.value.DoubleValue
2.715

@<SCITEGIC>MOL_PROPERTY
Pdih
SciTegic.value.DoubleValue
3.934

@<SCITEGIC>MOL_PROPERTY
Idih
SciTegic.value.DoubleValue
0.000

@<SCITEGIC>MOL_PROPERTY
Tether
SciTegic.value.DoubleValue
0.000

@<TRIPOS>MOLECULE
guest-s18_confgen4.mol2 : confsearch ligand conformer 652
          16          15           1
SMALL
USER_CHARGES
 
@<TRIPOS>ATOM
       1    C1      20.474970   21.807475   22.199706 C.2        1 MOL1         0.6075
       2    O1      20.588621   22.407829   21.149706 O.co2      1 MOL1        -0.6830
       3    O2      20.019097   22.302754   23.211003 O.co2      1 MOL1        -0.6830
       4    C2      20.911485   20.347370   22.245880 C.3        1 MOL1        -0.2050
       5    H1      21.284840   20.134765   23.254967 H          1 MOL1         0.0710
       6    H2      21.754281   20.221362   21.555470 H          1 MOL1         0.0710
       7    C3      19.770999   19.365492   21.880822 C.3        1 MOL1        -0.1947
       8    H3      18.930131   19.512319   22.572871 H          1 MOL1         0.0712
       9    H4      19.399541   19.598962   20.873318 H          1 MOL1         0.0712
      10    C4      20.238876   17.896240   21.935149 C.3        1 MOL1        -0.1921
      11    H5      20.609782   17.662180   22.942711 H          1 MOL1         0.0712
      12    H6      21.079344   17.748852   21.242743 H          1 MOL1         0.0712
      13    C5      19.098831   16.924853   21.570721 C.3        1 MOL1        -0.2936
      14    H7      18.729479   17.116225   20.554638 H          1 MOL1         0.0724
      15    H8      18.256438   17.028930   22.267150 H          1 MOL1         0.0724
      16    H9      19.448028   15.884985   21.614168 H          1 MOL1         0.0724
@<TRIPOS>BOND
    1     1     2    1
    2     1     3    2
    3     1     4    1
    4     4     5    1
    5     4     6    1
    6     4     7    1
    7     7     8    1
    8     7     9    1
    9     7    10    1
   10    10    11    1
   11    10    12    1
   12    10    13    1
   13    13    14    1
   14    13    15    1
   15    13    16    1
@<TRIPOS>SUBSTRUCTURE
       1 MOL1            1 RESIDUE      1      MOL     
@<SCITEGIC>MOL_PROPERTY
VConf Rank
SciTegic.value.IntegerValue
652

@<SCITEGIC>MOL_PROPERTY
Conf_Id
SciTegic.value.IntegerValue
22

@<SCITEGIC>MOL_PROPERTY
Delta U+W
SciTegic.value.DoubleValue
-1.185

@<SCITEGIC>MOL_PROPERTY
U+W
SciTegic.value.DoubleValue
-58.089

@<SCITEGIC>MOL_PROPERTY
Grad RMS
SciTegic.value.DoubleValue
0.000000

@<SCITEGIC>MOL_PROPERTY
U
SciTegic.value.DoubleValue
6.298

@<SCITEGIC>MOL_PROPERTY
W
SciTegic.value.DoubleValue
-64.387

@<SCITEGIC>MOL_PROPERTY
W(PB)
SciTegic.value.DoubleValue
-66.329

@<SCITEGIC>MOL_PROPERTY
W(SA)
SciTegic.value.DoubleValue
1.942

@<SCITEGIC>MOL_PROPERTY
Valence
SciTegic.value.DoubleValue
6.246

@<SCITEGIC>MOL_PROPERTY
Coulomb
SciTegic.value.DoubleValue
-0.408

@<SCITEGIC>MOL_PROPERTY
VdW
SciTegic.value.DoubleValue
0.460

@<SCITEGIC>MOL_PROPERTY
VdW6
SciTegic.value.DoubleValue
-4.207

@<SCITEGIC>MOL_PROPERTY
VdW12
SciTegic.value.DoubleValue
4.667

@<SCITEGIC>MOL_PROPERTY
Bond
SciTegic.value.DoubleValue
0.072

@<SCITEGIC>MOL_PROPERTY
Angle
SciTegic.value.DoubleValue
2.246

@<SCITEGIC>MOL_PROPERTY
Pdih
SciTegic.value.DoubleValue
3.928

@<SCITEGIC>MOL_PROPERTY
Idih
SciTegic.value.DoubleValue
0.001

@<SCITEGIC>MOL_PROPERTY
Tether
SciTegic.value.DoubleValue
0.000

@<TRIPOS>MOLECULE
guest-s18_confgen4.mol2 : confsearch ligand conformer 653
          16          15           1
SMALL
USER_CHARGES
 
@<TRIPOS>ATOM
       1    C1      20.667620   19.847491   19.598890 C.2        1 MOL1         0.6075
       2    O1      20.934691   19.036126   18.734971 O.co2      1 MOL1        -0.6830
       3    O2      21.039185   21.003854   19.572042 O.co2      1 MOL1        -0.6830
       4    C2      19.838099   19.383789   20.791134 C.3        1 MOL1        -0.2050
       5    H1      19.147990   18.605563   20.443744 H          1 MOL1         0.0710
       6    H2      19.229917   20.231976   21.125515 H          1 MOL1         0.0710
       7    C3      20.708627   18.844707   21.955850 C.3        1 MOL1        -0.1947
       8    H3      21.367671   18.055500   21.568240 H          1 MOL1         0.0712
       9    H4      21.365423   19.645180   22.323507 H          1 MOL1         0.0712
      10    C4      19.880524   18.269139   23.127761 C.3        1 MOL1        -0.1921
      11    H5      20.566763   17.812746   23.854460 H          1 MOL1         0.0712
      12    H6      19.232208   17.460667   22.762466 H          1 MOL1         0.0712
      13    C5      19.026571   19.333184   23.849915 C.3        1 MOL1        -0.2936
      14    H7      18.248231   19.737505   23.190754 H          1 MOL1         0.0724
      15    H8      19.650086   20.166577   24.199108 H          1 MOL1         0.0724
      16    H9      18.527111   18.895568   24.724009 H          1 MOL1         0.0724
@<TRIPOS>BOND
    1     1     2    1
    2     1     3    2
    3     1     4    1
    4     4     5    1
    5     4     6    1
    6     4     7    1
    7     7     8    1
    8     7     9    1
    9     7    10    1
   10    10    11    1
   11    10    12    1
   12    10    13    1
   13    13    14    1
   14    13    15    1
   15    13    16    1
@<TRIPOS>SUBSTRUCTURE
       1 MOL1            1 RESIDUE      1      MOL     
@<SCITEGIC>MOL_PROPERTY
VConf Rank
SciTegic.value.IntegerValue
653

@<SCITEGIC>MOL_PROPERTY
Conf_Id
SciTegic.value.IntegerValue
36

@<SCITEGIC>MOL_PROPERTY
Delta U+W
SciTegic.value.DoubleValue
-0.427

@<SCITEGIC>MOL_PROPERTY
U+W
SciTegic.value.DoubleValue
-57.331

@<SCITEGIC>MOL_PROPERTY
Grad RMS
SciTegic.value.DoubleValue
0.000000

@<SCITEGIC>MOL_PROPERTY
U
SciTegic.value.DoubleValue
7.263

@<SCITEGIC>MOL_PROPERTY
W
SciTegic.value.DoubleValue
-64.594

@<SCITEGIC>MOL_PROPERTY
W(PB)
SciTegic.value.DoubleValue
-66.513

@<SCITEGIC>MOL_PROPERTY
W(SA)
SciTegic.value.DoubleValue
1.920

@<SCITEGIC>MOL_PROPERTY
Valence
SciTegic.value.DoubleValue
6.734

@<SCITEGIC>MOL_PROPERTY
Coulomb
SciTegic.value.DoubleValue
-0.068

@<SCITEGIC>MOL_PROPERTY
VdW
SciTegic.value.DoubleValue
0.598

@<SCITEGIC>MOL_PROPERTY
VdW6
SciTegic.value.DoubleValue
-4.819

@<SCITEGIC>MOL_PROPERTY
VdW12
SciTegic.value.DoubleValue
5.417

@<SCITEGIC>MOL_PROPERTY
Bond
SciTegic.value.DoubleValue
0.107

@<SCITEGIC>MOL_PROPERTY
Angle
SciTegic.value.DoubleValue
2.469

@<SCITEGIC>MOL_PROPERTY
Pdih
SciTegic.value.DoubleValue
4.157

@<SCITEGIC>MOL_PROPERTY
Idih
SciTegic.value.DoubleValue
0.001

@<SCITEGIC>MOL_PROPERTY
Tether
SciTegic.value.DoubleValue
0.000

@<TRIPOS>MOLECULE
guest-s18_confgen4.mol2 : confsearch ligand conformer 654
          16          15           1
SMALL
USER_CHARGES
 
@<TRIPOS>ATOM
       1    C1      21.123237   20.957384   20.554450 C.2        1 MOL1         0.6075
       2    O1      21.942084   21.575282   21.205334 O.co2      1 MOL1        -0.6830
       3    O2      20.649019   21.363413   19.512216 O.co2      1 MOL1        -0.6830
       4    C2      20.649841   19.608351   21.084145 C.3        1 MOL1        -0.2050
       5    H1      21.489045   19.144219   21.614650 H          1 MOL1         0.0710
       6    H2      20.414395   18.968802   20.225012 H          1 MOL1         0.0710
       7    C3      19.415543   19.727771   22.015404 C.3        1 MOL1        -0.1947
       8    H3      19.676087   20.335027   22.893280 H          1 MOL1         0.0712
       9    H4      18.623652   20.273596   21.483979 H          1 MOL1         0.0712
      10    C4      18.855608   18.361291   22.473239 C.3        1 MOL1        -0.1921
      11    H5      18.584035   17.758409   21.595650 H          1 MOL1         0.0712
      12    H6      17.925808   18.530483   23.033734 H          1 MOL1         0.0712
      13    C5      19.836491   17.569115   23.363888 C.3        1 MOL1        -0.2936
      14    H7      20.736785   17.278108   22.808399 H          1 MOL1         0.0724
      15    H8      19.362724   16.650363   23.733275 H          1 MOL1         0.0724
      16    H9      20.144935   18.163523   24.233826 H          1 MOL1         0.0724
@<TRIPOS>BOND
    1     1     2    1
    2     1     3    2
    3     1     4    1
    4     4     5    1
    5     4     6    1
    6     4     7    1
    7     7     8    1
    8     7     9    1
    9     7    10    1
   10    10    11    1
   11    10    12    1
   12    10    13    1
   13    13    14    1
   14    13    15    1
   15    13    16    1
@<TRIPOS>SUBSTRUCTURE
       1 MOL1            1 RESIDUE      1      MOL     
@<SCITEGIC>MOL_PROPERTY
VConf Rank
SciTegic.value.IntegerValue
654

@<SCITEGIC>MOL_PROPERTY
Conf_Id
SciTegic.value.IntegerValue
17

@<SCITEGIC>MOL_PROPERTY
Delta U+W
SciTegic.value.DoubleValue
-0.432

@<SCITEGIC>MOL_PROPERTY
U+W
SciTegic.value.DoubleValue
-57.336

@<SCITEGIC>MOL_PROPERTY
Grad RMS
SciTegic.value.DoubleValue
0.000000

@<SCITEGIC>MOL_PROPERTY
U
SciTegic.value.DoubleValue
7.263

@<SCITEGIC>MOL_PROPERTY
W
SciTegic.value.DoubleValue
-64.599

@<SCITEGIC>MOL_PROPERTY
W(PB)
SciTegic.value.DoubleValue
-66.503

@<SCITEGIC>MOL_PROPERTY
W(SA)
SciTegic.value.DoubleValue
1.904

@<SCITEGIC>MOL_PROPERTY
Valence
SciTegic.value.DoubleValue
6.734

@<SCITEGIC>MOL_PROPERTY
Coulomb
SciTegic.value.DoubleValue
-0.068

@<SCITEGIC>MOL_PROPERTY
VdW
SciTegic.value.DoubleValue
0.598

@<SCITEGIC>MOL_PROPERTY
VdW6
SciTegic.value.DoubleValue
-4.819

@<SCITEGIC>MOL_PROPERTY
VdW12
SciTegic.value.DoubleValue
5.417

@<SCITEGIC>MOL_PROPERTY
Bond
SciTegic.value.DoubleValue
0.107

@<SCITEGIC>MOL_PROPERTY
Angle
SciTegic.value.DoubleValue
2.469

@<SCITEGIC>MOL_PROPERTY
Pdih
SciTegic.value.DoubleValue
4.157

@<SCITEGIC>MOL_PROPERTY
Idih
SciTegic.value.DoubleValue
0.001

@<SCITEGIC>MOL_PROPERTY
Tether
SciTegic.value.DoubleValue
0.000

@<TRIPOS>MOLECULE
guest-s18_confgen4.mol2 : confsearch ligand conformer 655
          16          15           1
SMALL
USER_CHARGES
 
@<TRIPOS>ATOM
       1    C1      21.435283   20.848617   23.083048 C.2        1 MOL1         0.6075
       2    O1      20.871231   21.420886   23.994474 O.co2      1 MOL1        -0.6830
       3    O2      22.569227   20.419049   23.159884 O.co2      1 MOL1        -0.6830
       4    C2      20.685877   20.682830   21.763806 C.3        1 MOL1        -0.2050
       5    H1      21.414836   20.480972   20.969479 H          1 MOL1         0.0710
       6    H2      20.219092   21.646581   21.528160 H          1 MOL1         0.0710
       7    C3      19.600852   19.575055   21.788096 C.3        1 MOL1        -0.1947
       8    H3      18.894699   19.774824   22.606059 H          1 MOL1         0.0712
       9    H4      19.024135   19.620505   20.854345 H          1 MOL1         0.0712
      10    C4      20.199571   18.160769   21.947820 C.3        1 MOL1        -0.1921
      11    H5      20.762341   18.097277   22.889618 H          1 MOL1         0.0712
      12    H6      20.914665   17.967222   21.136305 H          1 MOL1         0.0712
      13    C5      19.103383   17.077003   21.934928 C.3        1 MOL1        -0.2936
      14    H7      18.391224   17.229390   22.756547 H          1 MOL1         0.0724
      15    H8      19.545349   16.078758   22.050214 H          1 MOL1         0.0724
      16    H9      18.545337   17.093544   20.989557 H          1 MOL1         0.0724
@<TRIPOS>BOND
    1     1     2    1
    2     1     3    2
    3     1     4    1
    4     4     5    1
    5     4     6    1
    6     4     7    1
    7     7     8    1
    8     7     9    1
    9     7    10    1
   10    10    11    1
   11    10    12    1
   12    10    13    1
   13    13    14    1
   14    13    15    1
   15    13    16    1
@<TRIPOS>SUBSTRUCTURE
       1 MOL1            1 RESIDUE      1      MOL     
@<SCITEGIC>MOL_PROPERTY
VConf Rank
SciTegic.value.IntegerValue
655

@<SCITEGIC>MOL_PROPERTY
Conf_Id
SciTegic.value.IntegerValue
19

@<SCITEGIC>MOL_PROPERTY
Delta U+W
SciTegic.value.DoubleValue
0.048

@<SCITEGIC>MOL_PROPERTY
U+W
SciTegic.value.DoubleValue
-56.856

@<SCITEGIC>MOL_PROPERTY
Grad RMS
SciTegic.value.DoubleValue
0.000000

@<SCITEGIC>MOL_PROPERTY
U
SciTegic.value.DoubleValue
8.276

@<SCITEGIC>MOL_PROPERTY
W
SciTegic.value.DoubleValue
-65.132

@<SCITEGIC>MOL_PROPERTY
W(PB)
SciTegic.value.DoubleValue
-67.031

@<SCITEGIC>MOL_PROPERTY
W(SA)
SciTegic.value.DoubleValue
1.899

@<SCITEGIC>MOL_PROPERTY
Valence
SciTegic.value.DoubleValue
6.513

@<SCITEGIC>MOL_PROPERTY
Coulomb
SciTegic.value.DoubleValue
1.428

@<SCITEGIC>MOL_PROPERTY
VdW
SciTegic.value.DoubleValue
0.335

@<SCITEGIC>MOL_PROPERTY
VdW6
SciTegic.value.DoubleValue
-5.021

@<SCITEGIC>MOL_PROPERTY
VdW12
SciTegic.value.DoubleValue
5.356

@<SCITEGIC>MOL_PROPERTY
Bond
SciTegic.value.DoubleValue
0.092

@<SCITEGIC>MOL_PROPERTY
Angle
SciTegic.value.DoubleValue
2.417

@<SCITEGIC>MOL_PROPERTY
Pdih
SciTegic.value.DoubleValue
4.003

@<SCITEGIC>MOL_PROPERTY
Idih
SciTegic.value.DoubleValue
0.001

@<SCITEGIC>MOL_PROPERTY
Tether
SciTegic.value.DoubleValue
0.000

@<TRIPOS>MOLECULE
guest-s18_confgen4.mol2 : confsearch ligand conformer 656
          16          15           1
SMALL
USER_CHARGES
 
@<TRIPOS>ATOM
       1    C1      21.356291   19.711593   23.844920 C.2        1 MOL1         0.6075
       2    O1      22.495353   19.908931   23.470838 O.co2      1 MOL1        -0.6830
       3    O2      21.072337   18.986229   24.777379 O.co2      1 MOL1        -0.6830
       4    C2      20.224729   20.432998   23.117844 C.3        1 MOL1        -0.2050
       5    H1      20.529137   21.478931   22.992958 H          1 MOL1         0.0710
       6    H2      19.338416   20.435745   23.764009 H          1 MOL1         0.0710
       7    C3      19.875509   19.827381   21.733533 C.3        1 MOL1        -0.1947
       8    H3      19.156475   20.485837   21.227583 H          1 MOL1         0.0712
       9    H4      20.778488   19.804837   21.107639 H          1 MOL1         0.0712
      10    C4      19.277542   18.407780   21.840115 C.3        1 MOL1        -0.1921
      11    H5      18.381877   18.429698   22.476261 H          1 MOL1         0.0712
      12    H6      19.997072   17.734677   22.326871 H          1 MOL1         0.0712
      13    C5      18.908532   17.843213   20.453953 C.3        1 MOL1        -0.2936
      14    H7      18.163370   18.477906   19.956647 H          1 MOL1         0.0724
      15    H8      18.486170   16.834258   20.547429 H          1 MOL1         0.0724
      16    H9      19.793498   17.781664   19.807040 H          1 MOL1         0.0724
@<TRIPOS>BOND
    1     1     2    1
    2     1     3    2
    3     1     4    1
    4     4     5    1
    5     4     6    1
    6     4     7    1
    7     7     8    1
    8     7     9    1
    9     7    10    1
   10    10    11    1
   11    10    12    1
   12    10    13    1
   13    13    14    1
   14    13    15    1
   15    13    16    1
@<TRIPOS>SUBSTRUCTURE
       1 MOL1            1 RESIDUE      1      MOL     
@<SCITEGIC>MOL_PROPERTY
VConf Rank
SciTegic.value.IntegerValue
656

@<SCITEGIC>MOL_PROPERTY
Conf_Id
SciTegic.value.IntegerValue
20

@<SCITEGIC>MOL_PROPERTY
Delta U+W
SciTegic.value.DoubleValue
-0.010

@<SCITEGIC>MOL_PROPERTY
U+W
SciTegic.value.DoubleValue
-56.914

@<SCITEGIC>MOL_PROPERTY
Grad RMS
SciTegic.value.DoubleValue
0.000000

@<SCITEGIC>MOL_PROPERTY
U
SciTegic.value.DoubleValue
8.277

@<SCITEGIC>MOL_PROPERTY
W
SciTegic.value.DoubleValue
-65.191

@<SCITEGIC>MOL_PROPERTY
W(PB)
SciTegic.value.DoubleValue
-67.081

@<SCITEGIC>MOL_PROPERTY
W(SA)
SciTegic.value.DoubleValue
1.890

@<SCITEGIC>MOL_PROPERTY
Valence
SciTegic.value.DoubleValue
6.513

@<SCITEGIC>MOL_PROPERTY
Coulomb
SciTegic.value.DoubleValue
1.429

@<SCITEGIC>MOL_PROPERTY
VdW
SciTegic.value.DoubleValue
0.335

@<SCITEGIC>MOL_PROPERTY
VdW6
SciTegic.value.DoubleValue
-5.021

@<SCITEGIC>MOL_PROPERTY
VdW12
SciTegic.value.DoubleValue
5.356

@<SCITEGIC>MOL_PROPERTY
Bond
SciTegic.value.DoubleValue
0.092

@<SCITEGIC>MOL_PROPERTY
Angle
SciTegic.value.DoubleValue
2.417

@<SCITEGIC>MOL_PROPERTY
Pdih
SciTegic.value.DoubleValue
4.002

@<SCITEGIC>MOL_PROPERTY
Idih
SciTegic.value.DoubleValue
0.001

@<SCITEGIC>MOL_PROPERTY
Tether
SciTegic.value.DoubleValue
0.000

@<TRIPOS>MOLECULE
guest-s18_confgen4.mol2 : confsearch ligand conformer 657
          16          15           1
SMALL
USER_CHARGES
 
@<TRIPOS>ATOM
       1    C1      19.453077   20.197439   24.010289 C.2        1 MOL1         0.6075
       2    O1      19.129426   21.367895   24.055785 O.co2      1 MOL1        -0.6830
       3    O2      20.296537   19.706674   24.734185 O.co2      1 MOL1        -0.6830
       4    C2      18.736221   19.290749   23.013407 C.3        1 MOL1        -0.2050
       5    H1      17.659338   19.444721   23.149410 H          1 MOL1         0.0710
       6    H2      18.936233   18.246715   23.280304 H          1 MOL1         0.0710
       7    C3      19.108692   19.557464   21.529221 C.3        1 MOL1        -0.1947
       8    H3      18.490666   18.919980   20.882669 H          1 MOL1         0.0712
       9    H4      18.845951   20.595005   21.280563 H          1 MOL1         0.0712
      10    C4      20.601561   19.326123   21.194837 C.3        1 MOL1        -0.1921
      11    H5      21.229730   19.984145   21.811286 H          1 MOL1         0.0712
      12    H6      20.778403   19.619206   20.150827 H          1 MOL1         0.0712
      13    C5      21.047413   17.860420   21.382914 C.3        1 MOL1        -0.2936
      14    H7      21.003478   17.563386   22.438531 H          1 MOL1         0.0724
      15    H8      22.083065   17.728085   21.044133 H          1 MOL1         0.0724
      16    H9      20.411810   17.177741   20.804101 H          1 MOL1         0.0724
@<TRIPOS>BOND
    1     1     2    1
    2     1     3    2
    3     1     4    1
    4     4     5    1
    5     4     6    1
    6     4     7    1
    7     7     8    1
    8     7     9    1
    9     7    10    1
   10    10    11    1
   11    10    12    1
   12    10    13    1
   13    13    14    1
   14    13    15    1
   15    13    16    1
@<TRIPOS>SUBSTRUCTURE
       1 MOL1            1 RESIDUE      1      MOL     
@<SCITEGIC>MOL_PROPERTY
VConf Rank
SciTegic.value.IntegerValue
657

@<SCITEGIC>MOL_PROPERTY
Conf_Id
SciTegic.value.IntegerValue
37

@<SCITEGIC>MOL_PROPERTY
Delta U+W
SciTegic.value.DoubleValue
1.063

@<SCITEGIC>MOL_PROPERTY
U+W
SciTegic.value.DoubleValue
-55.841

@<SCITEGIC>MOL_PROPERTY
Grad RMS
SciTegic.value.DoubleValue
0.000000

@<SCITEGIC>MOL_PROPERTY
U
SciTegic.value.DoubleValue
9.719

@<SCITEGIC>MOL_PROPERTY
W
SciTegic.value.DoubleValue
-65.560

@<SCITEGIC>MOL_PROPERTY
W(PB)
SciTegic.value.DoubleValue
-67.414

@<SCITEGIC>MOL_PROPERTY
W(SA)
SciTegic.value.DoubleValue
1.854

@<SCITEGIC>MOL_PROPERTY
Valence
SciTegic.value.DoubleValue
7.002

@<SCITEGIC>MOL_PROPERTY
Coulomb
SciTegic.value.DoubleValue
2.402

@<SCITEGIC>MOL_PROPERTY
VdW
SciTegic.value.DoubleValue
0.314

@<SCITEGIC>MOL_PROPERTY
VdW6
SciTegic.value.DoubleValue
-5.861

@<SCITEGIC>MOL_PROPERTY
VdW12
SciTegic.value.DoubleValue
6.175

@<SCITEGIC>MOL_PROPERTY
Bond
SciTegic.value.DoubleValue
0.134

@<SCITEGIC>MOL_PROPERTY
Angle
SciTegic.value.DoubleValue
2.733

@<SCITEGIC>MOL_PROPERTY
Pdih
SciTegic.value.DoubleValue
4.133

@<SCITEGIC>MOL_PROPERTY
Idih
SciTegic.value.DoubleValue
0.002

@<SCITEGIC>MOL_PROPERTY
Tether
SciTegic.value.DoubleValue
0.000

@<TRIPOS>MOLECULE
guest-s18_confgen4.mol2 : confsearch ligand conformer 658
          16          15           1
SMALL
USER_CHARGES
 
@<TRIPOS>ATOM
       1    C1      20.690027   18.430136   24.126113 C.2        1 MOL1         0.6075
       2    O1      21.835992   18.177819   24.442157 O.co2      1 MOL1        -0.6830
       3    O2      19.930833   19.077997   24.819079 O.co2      1 MOL1        -0.6830
       4    C2      20.168805   17.873115   22.804069 C.3        1 MOL1        -0.2050
       5    H1      19.075488   17.949600   22.796565 H          1 MOL1         0.0710
       6    H2      20.404881   16.802681   22.786227 H          1 MOL1         0.0710
       7    C3      20.773831   18.552456   21.545054 C.3        1 MOL1        -0.1947
       8    H3      21.863353   18.410481   21.556828 H          1 MOL1         0.0712
       9    H4      20.406096   18.038509   20.646722 H          1 MOL1         0.0712
      10    C4      20.468162   20.064635   21.427264 C.3        1 MOL1        -0.1921
      11    H5      21.004540   20.465826   20.556360 H          1 MOL1         0.0712
      12    H6      20.862398   20.595842   22.304757 H          1 MOL1         0.0712
      13    C5      18.963569   20.371048   21.269935 C.3        1 MOL1        -0.2936
      14    H7      18.536642   19.823510   20.419639 H          1 MOL1         0.0724
      15    H8      18.806727   21.443348   21.095484 H          1 MOL1         0.0724
      16    H9      18.404957   20.097146   22.174046 H          1 MOL1         0.0724
@<TRIPOS>BOND
    1     1     2    1
    2     1     3    2
    3     1     4    1
    4     4     5    1
    5     4     6    1
    6     4     7    1
    7     7     8    1
    8     7     9    1
    9     7    10    1
   10    10    11    1
   11    10    12    1
   12    10    13    1
   13    13    14    1
   14    13    15    1
   15    13    16    1
@<TRIPOS>SUBSTRUCTURE
       1 MOL1            1 RESIDUE      1      MOL     
@<SCITEGIC>MOL_PROPERTY
VConf Rank
SciTegic.value.IntegerValue
658

@<SCITEGIC>MOL_PROPERTY
Conf_Id
SciTegic.value.IntegerValue
39

@<SCITEGIC>MOL_PROPERTY
Delta U+W
SciTegic.value.DoubleValue
1.129

@<SCITEGIC>MOL_PROPERTY
U+W
SciTegic.value.DoubleValue
-55.775

@<SCITEGIC>MOL_PROPERTY
Grad RMS
SciTegic.value.DoubleValue
0.000000

@<SCITEGIC>MOL_PROPERTY
U
SciTegic.value.DoubleValue
9.718

@<SCITEGIC>MOL_PROPERTY
W
SciTegic.value.DoubleValue
-65.493

@<SCITEGIC>MOL_PROPERTY
W(PB)
SciTegic.value.DoubleValue
-67.361

@<SCITEGIC>MOL_PROPERTY
W(SA)
SciTegic.value.DoubleValue
1.869

@<SCITEGIC>MOL_PROPERTY
Valence
SciTegic.value.DoubleValue
7.002

@<SCITEGIC>MOL_PROPERTY
Coulomb
SciTegic.value.DoubleValue
2.402

@<SCITEGIC>MOL_PROPERTY
VdW
SciTegic.value.DoubleValue
0.314

@<SCITEGIC>MOL_PROPERTY
VdW6
SciTegic.value.DoubleValue
-5.861

@<SCITEGIC>MOL_PROPERTY
VdW12
SciTegic.value.DoubleValue
6.175

@<SCITEGIC>MOL_PROPERTY
Bond
SciTegic.value.DoubleValue
0.134

@<SCITEGIC>MOL_PROPERTY
Angle
SciTegic.value.DoubleValue
2.734

@<SCITEGIC>MOL_PROPERTY
Pdih
SciTegic.value.DoubleValue
4.133

@<SCITEGIC>MOL_PROPERTY
Idih
SciTegic.value.DoubleValue
0.002

@<SCITEGIC>MOL_PROPERTY
Tether
SciTegic.value.DoubleValue
0.000

@<TRIPOS>MOLECULE
guest-s18_confgen4.mol2 : confsearch ligand conformer 659
          16          15           1
SMALL
USER_CHARGES
 
@<TRIPOS>ATOM
       1    C1      19.159604   20.575513   21.174207 C.2        1 MOL1         0.6075
       2    O1      17.991126   20.778772   21.439094 O.co2      1 MOL1        -0.6830
       3    O2      19.579067   20.469542   20.038434 O.co2      1 MOL1        -0.6830
       4    C2      20.164296   20.541718   22.324471 C.3        1 MOL1        -0.2050
       5    H1      19.634989   20.730988   23.266272 H          1 MOL1         0.0710
       6    H2      20.840289   21.390620   22.169070 H          1 MOL1         0.0710
       7    C3      21.006359   19.239371   22.433116 C.3        1 MOL1        -0.1947
       8    H3      21.367193   18.942650   21.438482 H          1 MOL1         0.0712
       9    H4      21.903365   19.464178   23.025817 H          1 MOL1         0.0712
      10    C4      20.278630   18.052917   23.110094 C.3        1 MOL1        -0.1921
      11    H5      19.917799   18.354190   24.103204 H          1 MOL1         0.0712
      12    H6      21.007891   17.248371   23.277953 H          1 MOL1         0.0712
      13    C5      19.106869   17.485476   22.282281 C.3        1 MOL1        -0.2936
      14    H7      18.275538   18.198696   22.225661 H          1 MOL1         0.0724
      15    H8      18.721889   16.566083   22.741928 H          1 MOL1         0.0724
      16    H9      19.426385   17.245732   21.259656 H          1 MOL1         0.0724
@<TRIPOS>BOND
    1     1     2    1
    2     1     3    2
    3     1     4    1
    4     4     5    1
    5     4     6    1
    6     4     7    1
    7     7     8    1
    8     7     9    1
    9     7    10    1
   10    10    11    1
   11    10    12    1
   12    10    13    1
   13    13    14    1
   14    13    15    1
   15    13    16    1
@<TRIPOS>SUBSTRUCTURE
       1 MOL1            1 RESIDUE      1      MOL     
@<SCITEGIC>MOL_PROPERTY
VConf Rank
SciTegic.value.IntegerValue
659

@<SCITEGIC>MOL_PROPERTY
Conf_Id
SciTegic.value.IntegerValue
47

@<SCITEGIC>MOL_PROPERTY
Delta U+W
SciTegic.value.DoubleValue
2.301

@<SCITEGIC>MOL_PROPERTY
U+W
SciTegic.value.DoubleValue
-54.603

@<SCITEGIC>MOL_PROPERTY
Grad RMS
SciTegic.value.DoubleValue
0.000000

@<SCITEGIC>MOL_PROPERTY
U
SciTegic.value.DoubleValue
11.258

@<SCITEGIC>MOL_PROPERTY
W
SciTegic.value.DoubleValue
-65.861

@<SCITEGIC>MOL_PROPERTY
W(PB)
SciTegic.value.DoubleValue
-67.702

@<SCITEGIC>MOL_PROPERTY
W(SA)
SciTegic.value.DoubleValue
1.841

@<SCITEGIC>MOL_PROPERTY
Valence
SciTegic.value.DoubleValue
8.169

@<SCITEGIC>MOL_PROPERTY
Coulomb
SciTegic.value.DoubleValue
2.735

@<SCITEGIC>MOL_PROPERTY
VdW
SciTegic.value.DoubleValue
0.355

@<SCITEGIC>MOL_PROPERTY
VdW6
SciTegic.value.DoubleValue
-6.245

@<SCITEGIC>MOL_PROPERTY
VdW12
SciTegic.value.DoubleValue
6.600

@<SCITEGIC>MOL_PROPERTY
Bond
SciTegic.value.DoubleValue
0.149

@<SCITEGIC>MOL_PROPERTY
Angle
SciTegic.value.DoubleValue
3.168

@<SCITEGIC>MOL_PROPERTY
Pdih
SciTegic.value.DoubleValue
4.840

@<SCITEGIC>MOL_PROPERTY
Idih
SciTegic.value.DoubleValue
0.011

@<SCITEGIC>MOL_PROPERTY
Tether
SciTegic.value.DoubleValue
0.000

@<TRIPOS>MOLECULE
guest-s18_confgen4.mol2 : confsearch ligand conformer 660
          16          15           1
SMALL
USER_CHARGES
 
@<TRIPOS>ATOM
       1    C1      18.052617   19.275359   23.059064 C.2        1 MOL1         0.6075
       2    O1      17.232078   19.201197   22.165547 O.co2      1 MOL1        -0.6830
       3    O2      18.023730   20.128366   23.924143 O.co2      1 MOL1        -0.6830
       4    C2      19.122594   18.189081   23.152967 C.3        1 MOL1        -0.2050
       5    H1      18.589873   17.243379   23.306605 H          1 MOL1         0.0710
       6    H2      19.725499   18.358943   24.053317 H          1 MOL1         0.0710
       7    C3      20.042758   18.053351   21.907229 C.3        1 MOL1        -0.1947
       8    H3      20.498947   17.054438   21.930018 H          1 MOL1         0.0712
       9    H4      19.438875   18.089560   20.989867 H          1 MOL1         0.0712
      10    C4      21.186896   19.092959   21.831571 C.3        1 MOL1        -0.1921
      11    H5      21.860744   18.808693   21.011561 H          1 MOL1         0.0712
      12    H6      21.787029   19.054856   22.751147 H          1 MOL1         0.0712
      13    C5      20.702345   20.537234   21.587516 C.3        1 MOL1        -0.2936
      14    H7      21.555777   21.202713   21.404320 H          1 MOL1         0.0724
      15    H8      20.159769   20.928762   22.456606 H          1 MOL1         0.0724
      16    H9      20.038622   20.588125   20.714468 H          1 MOL1         0.0724
@<TRIPOS>BOND
    1     1     2    1
    2     1     3    2
    3     1     4    1
    4     4     5    1
    5     4     6    1
    6     4     7    1
    7     7     8    1
    8     7     9    1
    9     7    10    1
   10    10    11    1
   11    10    12    1
   12    10    13    1
   13    13    14    1
   14    13    15    1
   15    13    16    1
@<TRIPOS>SUBSTRUCTURE
       1 MOL1            1 RESIDUE      1      MOL     
@<SCITEGIC>MOL_PROPERTY
VConf Rank
SciTegic.value.IntegerValue
660

@<SCITEGIC>MOL_PROPERTY
Conf_Id
SciTegic.value.IntegerValue
45

@<SCITEGIC>MOL_PROPERTY
Delta U+W
SciTegic.value.DoubleValue
2.303

@<SCITEGIC>MOL_PROPERTY
U+W
SciTegic.value.DoubleValue
-54.601

@<SCITEGIC>MOL_PROPERTY
Grad RMS
SciTegic.value.DoubleValue
0.000000

@<SCITEGIC>MOL_PROPERTY
U
SciTegic.value.DoubleValue
11.258

@<SCITEGIC>MOL_PROPERTY
W
SciTegic.value.DoubleValue
-65.860

@<SCITEGIC>MOL_PROPERTY
W(PB)
SciTegic.value.DoubleValue
-67.709

@<SCITEGIC>MOL_PROPERTY
W(SA)
SciTegic.value.DoubleValue
1.849

@<SCITEGIC>MOL_PROPERTY
Valence
SciTegic.value.DoubleValue
8.169

@<SCITEGIC>MOL_PROPERTY
Coulomb
SciTegic.value.DoubleValue
2.735

@<SCITEGIC>MOL_PROPERTY
VdW
SciTegic.value.DoubleValue
0.355

@<SCITEGIC>MOL_PROPERTY
VdW6
SciTegic.value.DoubleValue
-6.245

@<SCITEGIC>MOL_PROPERTY
VdW12
SciTegic.value.DoubleValue
6.600

@<SCITEGIC>MOL_PROPERTY
Bond
SciTegic.value.DoubleValue
0.149

@<SCITEGIC>MOL_PROPERTY
Angle
SciTegic.value.DoubleValue
3.168

@<SCITEGIC>MOL_PROPERTY
Pdih
SciTegic.value.DoubleValue
4.840

@<SCITEGIC>MOL_PROPERTY
Idih
SciTegic.value.DoubleValue
0.011

@<SCITEGIC>MOL_PROPERTY
Tether
SciTegic.value.DoubleValue
0.000

@<TRIPOS>MOLECULE
guest-s18_confgen4.mol2 : confsearch ligand conformer 661
          16          15           1
SMALL
USER_CHARGES
 
@<TRIPOS>ATOM
       1    C1      17.884643   20.575337   22.945466 C.2        1 MOL1         0.6075
       2    O1      17.036826   19.945397   22.343670 O.co2      1 MOL1        -0.6830
       3    O2      17.620299   21.498617   23.689099 O.co2      1 MOL1        -0.6830
       4    C2      19.361539   20.213227   22.779489 C.3        1 MOL1        -0.2050
       5    H1      19.756930   19.986389   23.776670 H          1 MOL1         0.0710
       6    H2      19.880937   21.111525   22.425299 H          1 MOL1         0.0710
       7    C3      19.650703   19.028545   21.819665 C.3        1 MOL1        -0.1947
       8    H3      19.123411   18.132976   22.176581 H          1 MOL1         0.0712
       9    H4      19.247560   19.259281   20.823820 H          1 MOL1         0.0712
      10    C4      21.161465   18.733035   21.712284 C.3        1 MOL1        -0.1921
      11    H5      21.565549   18.500393   22.707319 H          1 MOL1         0.0712
      12    H6      21.689785   19.627368   21.353749 H          1 MOL1         0.0712
      13    C5      21.442225   17.555653   20.757776 C.3        1 MOL1        -0.2936
      14    H7      20.950811   16.639048   21.109652 H          1 MOL1         0.0724
      15    H8      22.520279   17.358857   20.692876 H          1 MOL1         0.0724
      16    H9      21.075965   17.774332   19.746093 H          1 MOL1         0.0724
@<TRIPOS>BOND
    1     1     2    1
    2     1     3    2
    3     1     4    1
    4     4     5    1
    5     4     6    1
    6     4     7    1
    7     7     8    1
    8     7     9    1
    9     7    10    1
   10    10    11    1
   11    10    12    1
   12    10    13    1
   13    13    14    1
   14    13    15    1
   15    13    16    1
@<TRIPOS>SUBSTRUCTURE
       1 MOL1            1 RESIDUE      1      MOL     
@<SCITEGIC>MOL_PROPERTY
VConf Rank
SciTegic.value.IntegerValue
661

@<SCITEGIC>MOL_PROPERTY
Conf_Id
SciTegic.value.IntegerValue
0

@<SCITEGIC>MOL_PROPERTY
Delta U+W
SciTegic.value.DoubleValue
0.000

@<SCITEGIC>MOL_PROPERTY
U+W
SciTegic.value.DoubleValue
-56.904

@<SCITEGIC>MOL_PROPERTY
Grad RMS
SciTegic.value.DoubleValue
0.000000

@<SCITEGIC>MOL_PROPERTY
U
SciTegic.value.DoubleValue
7.329

@<SCITEGIC>MOL_PROPERTY
W
SciTegic.value.DoubleValue
-64.233

@<SCITEGIC>MOL_PROPERTY
W(PB)
SciTegic.value.DoubleValue
-66.148

@<SCITEGIC>MOL_PROPERTY
W(SA)
SciTegic.value.DoubleValue
1.915

@<SCITEGIC>MOL_PROPERTY
Valence
SciTegic.value.DoubleValue
6.755

@<SCITEGIC>MOL_PROPERTY
Coulomb
SciTegic.value.DoubleValue
-0.421

@<SCITEGIC>MOL_PROPERTY
VdW
SciTegic.value.DoubleValue
0.995

@<SCITEGIC>MOL_PROPERTY
VdW6
SciTegic.value.DoubleValue
-4.495

@<SCITEGIC>MOL_PROPERTY
VdW12
SciTegic.value.DoubleValue
5.490

@<SCITEGIC>MOL_PROPERTY
Bond
SciTegic.value.DoubleValue
0.106

@<SCITEGIC>MOL_PROPERTY
Angle
SciTegic.value.DoubleValue
2.715

@<SCITEGIC>MOL_PROPERTY
Pdih
SciTegic.value.DoubleValue
3.934

@<SCITEGIC>MOL_PROPERTY
Idih
SciTegic.value.DoubleValue
0.000

@<SCITEGIC>MOL_PROPERTY
Tether
SciTegic.value.DoubleValue
0.000

@<TRIPOS>MOLECULE
guest-s18_confgen4.mol2 : confsearch ligand conformer 662
          16          15           1
SMALL
USER_CHARGES
 
@<TRIPOS>ATOM
       1    C1      18.207470   18.027926   23.651038 C.2        1 MOL1         0.6075
       2    O1      18.081267   16.823224   23.558254 O.co2      1 MOL1        -0.6830
       3    O2      18.046744   18.642635   24.686482 O.co2      1 MOL1        -0.6830
       4    C2      18.607104   18.808803   22.404000 C.3        1 MOL1        -0.2050
       5    H1      18.147158   19.802752   22.462014 H          1 MOL1         0.0710
       6    H2      18.175736   18.302699   21.531859 H          1 MOL1         0.0710
       7    C3      20.141478   18.939376   22.240573 C.3        1 MOL1        -0.1947
       8    H3      20.559941   19.436629   23.126676 H          1 MOL1         0.0712
       9    H4      20.588537   17.936504   22.196547 H          1 MOL1         0.0712
      10    C4      20.518363   19.732984   20.972225 C.3        1 MOL1        -0.1921
      11    H5      20.072044   20.736181   21.016192 H          1 MOL1         0.0712
      12    H6      20.100612   19.235686   20.085819 H          1 MOL1         0.0712
      13    C5      22.046714   19.858909   20.816063 C.3        1 MOL1        -0.2936
      14    H7      22.516417   18.869582   20.738067 H          1 MOL1         0.0724
      15    H8      22.487641   20.381140   21.675325 H          1 MOL1         0.0724
      16    H9      22.297518   20.425562   19.909889 H          1 MOL1         0.0724
@<TRIPOS>BOND
    1     1     2    1
    2     1     3    2
    3     1     4    1
    4     4     5    1
    5     4     6    1
    6     4     7    1
    7     7     8    1
    8     7     9    1
    9     7    10    1
   10    10    11    1
   11    10    12    1
   12    10    13    1
   13    13    14    1
   14    13    15    1
   15    13    16    1
@<TRIPOS>SUBSTRUCTURE
       1 MOL1            1 RESIDUE      1      MOL     
@<SCITEGIC>MOL_PROPERTY
VConf Rank
SciTegic.value.IntegerValue
662

@<SCITEGIC>MOL_PROPERTY
Conf_Id
SciTegic.value.IntegerValue
22

@<SCITEGIC>MOL_PROPERTY
Delta U+W
SciTegic.value.DoubleValue
-1.185

@<SCITEGIC>MOL_PROPERTY
U+W
SciTegic.value.DoubleValue
-58.089

@<SCITEGIC>MOL_PROPERTY
Grad RMS
SciTegic.value.DoubleValue
0.000000

@<SCITEGIC>MOL_PROPERTY
U
SciTegic.value.DoubleValue
6.298

@<SCITEGIC>MOL_PROPERTY
W
SciTegic.value.DoubleValue
-64.387

@<SCITEGIC>MOL_PROPERTY
W(PB)
SciTegic.value.DoubleValue
-66.329

@<SCITEGIC>MOL_PROPERTY
W(SA)
SciTegic.value.DoubleValue
1.942

@<SCITEGIC>MOL_PROPERTY
Valence
SciTegic.value.DoubleValue
6.246

@<SCITEGIC>MOL_PROPERTY
Coulomb
SciTegic.value.DoubleValue
-0.408

@<SCITEGIC>MOL_PROPERTY
VdW
SciTegic.value.DoubleValue
0.460

@<SCITEGIC>MOL_PROPERTY
VdW6
SciTegic.value.DoubleValue
-4.207

@<SCITEGIC>MOL_PROPERTY
VdW12
SciTegic.value.DoubleValue
4.667

@<SCITEGIC>MOL_PROPERTY
Bond
SciTegic.value.DoubleValue
0.072

@<SCITEGIC>MOL_PROPERTY
Angle
SciTegic.value.DoubleValue
2.246

@<SCITEGIC>MOL_PROPERTY
Pdih
SciTegic.value.DoubleValue
3.928

@<SCITEGIC>MOL_PROPERTY
Idih
SciTegic.value.DoubleValue
0.001

@<SCITEGIC>MOL_PROPERTY
Tether
SciTegic.value.DoubleValue
0.000

@<TRIPOS>MOLECULE
guest-s18_confgen4.mol2 : confsearch ligand conformer 663
          16          15           1
SMALL
USER_CHARGES
 
@<TRIPOS>ATOM
       1    C1      18.401197   19.796872   23.946310 C.2        1 MOL1         0.6075
       2    O1      17.190621   19.751257   23.854553 O.co2      1 MOL1        -0.6830
       3    O2      18.987220   20.468586   24.771740 O.co2      1 MOL1        -0.6830
       4    C2      19.229773   18.982513   22.958964 C.3        1 MOL1        -0.2050
       5    H1      18.665745   18.076396   22.707191 H          1 MOL1         0.0710
       6    H2      20.144130   18.664139   23.472489 H          1 MOL1         0.0710
       7    C3      19.575573   19.772026   21.669746 C.3        1 MOL1        -0.1947
       8    H3      18.643923   20.150535   21.226815 H          1 MOL1         0.0712
       9    H4      20.176563   20.654211   21.930263 H          1 MOL1         0.0712
      10    C4      20.320898   18.926382   20.611547 C.3        1 MOL1        -0.1921
      11    H5      20.429203   19.522869   19.695151 H          1 MOL1         0.0712
      12    H6      19.714799   18.050323   20.342206 H          1 MOL1         0.0712
      13    C5      21.720006   18.467133   21.074712 C.3        1 MOL1        -0.2936
      14    H7      21.654126   17.774232   21.922845 H          1 MOL1         0.0724
      15    H8      22.334987   19.324871   21.376929 H          1 MOL1         0.0724
      16    H9      22.241954   17.947229   20.260908 H          1 MOL1         0.0724
@<TRIPOS>BOND
    1     1     2    1
    2     1     3    2
    3     1     4    1
    4     4     5    1
    5     4     6    1
    6     4     7    1
    7     7     8    1
    8     7     9    1
    9     7    10    1
   10    10    11    1
   11    10    12    1
   12    10    13    1
   13    13    14    1
   14    13    15    1
   15    13    16    1
@<TRIPOS>SUBSTRUCTURE
       1 MOL1            1 RESIDUE      1      MOL     
@<SCITEGIC>MOL_PROPERTY
VConf Rank
SciTegic.value.IntegerValue
663

@<SCITEGIC>MOL_PROPERTY
Conf_Id
SciTegic.value.IntegerValue
36

@<SCITEGIC>MOL_PROPERTY
Delta U+W
SciTegic.value.DoubleValue
-0.427

@<SCITEGIC>MOL_PROPERTY
U+W
SciTegic.value.DoubleValue
-57.331

@<SCITEGIC>MOL_PROPERTY
Grad RMS
SciTegic.value.DoubleValue
0.000000

@<SCITEGIC>MOL_PROPERTY
U
SciTegic.value.DoubleValue
7.263

@<SCITEGIC>MOL_PROPERTY
W
SciTegic.value.DoubleValue
-64.594

@<SCITEGIC>MOL_PROPERTY
W(PB)
SciTegic.value.DoubleValue
-66.513

@<SCITEGIC>MOL_PROPERTY
W(SA)
SciTegic.value.DoubleValue
1.920

@<SCITEGIC>MOL_PROPERTY
Valence
SciTegic.value.DoubleValue
6.734

@<SCITEGIC>MOL_PROPERTY
Coulomb
SciTegic.value.DoubleValue
-0.068

@<SCITEGIC>MOL_PROPERTY
VdW
SciTegic.value.DoubleValue
0.598

@<SCITEGIC>MOL_PROPERTY
VdW6
SciTegic.value.DoubleValue
-4.819

@<SCITEGIC>MOL_PROPERTY
VdW12
SciTegic.value.DoubleValue
5.417

@<SCITEGIC>MOL_PROPERTY
Bond
SciTegic.value.DoubleValue
0.107

@<SCITEGIC>MOL_PROPERTY
Angle
SciTegic.value.DoubleValue
2.469

@<SCITEGIC>MOL_PROPERTY
Pdih
SciTegic.value.DoubleValue
4.157

@<SCITEGIC>MOL_PROPERTY
Idih
SciTegic.value.DoubleValue
0.001

@<SCITEGIC>MOL_PROPERTY
Tether
SciTegic.value.DoubleValue
0.000

@<TRIPOS>MOLECULE
guest-s18_confgen4.mol2 : confsearch ligand conformer 664
          16          15           1
SMALL
USER_CHARGES
 
@<TRIPOS>ATOM
       1    C1      18.510733   21.282722   21.946184 C.2        1 MOL1         0.6075
       2    O1      17.342886   21.025211   22.160145 O.co2      1 MOL1        -0.6830
       3    O2      18.886353   22.313329   21.423927 O.co2      1 MOL1        -0.6830
       4    C2      19.560699   20.248119   22.335724 C.3        1 MOL1        -0.2050
       5    H1      19.200966   19.727039   23.230254 H          1 MOL1         0.0710
       6    H2      20.476759   20.781649   22.616342 H          1 MOL1         0.0710
       7    C3      19.858660   19.236543   21.198653 C.3        1 MOL1        -0.1947
       8    H3      18.943970   18.678340   20.955629 H          1 MOL1         0.0712
       9    H4      20.132242   19.794405   20.292358 H          1 MOL1         0.0712
      10    C4      20.998891   18.248711   21.536985 C.3        1 MOL1        -0.1921
      11    H5      21.916852   18.806453   21.768611 H          1 MOL1         0.0712
      12    H6      21.218865   17.644654   20.645898 H          1 MOL1         0.0712
      13    C5      20.657019   17.302455   22.707735 C.3        1 MOL1        -0.2936
      14    H7      20.539919   17.854723   23.648517 H          1 MOL1         0.0724
      15    H8      21.458280   16.566203   22.852380 H          1 MOL1         0.0724
      16    H9      19.726193   16.754584   22.511137 H          1 MOL1         0.0724
@<TRIPOS>BOND
    1     1     2    1
    2     1     3    2
    3     1     4    1
    4     4     5    1
    5     4     6    1
    6     4     7    1
    7     7     8    1
    8     7     9    1
    9     7    10    1
   10    10    11    1
   11    10    12    1
   12    10    13    1
   13    13    14    1
   14    13    15    1
   15    13    16    1
@<TRIPOS>SUBSTRUCTURE
       1 MOL1            1 RESIDUE      1      MOL     
@<SCITEGIC>MOL_PROPERTY
VConf Rank
SciTegic.value.IntegerValue
664

@<SCITEGIC>MOL_PROPERTY
Conf_Id
SciTegic.value.IntegerValue
17

@<SCITEGIC>MOL_PROPERTY
Delta U+W
SciTegic.value.DoubleValue
-0.432

@<SCITEGIC>MOL_PROPERTY
U+W
SciTegic.value.DoubleValue
-57.336

@<SCITEGIC>MOL_PROPERTY
Grad RMS
SciTegic.value.DoubleValue
0.000000

@<SCITEGIC>MOL_PROPERTY
U
SciTegic.value.DoubleValue
7.263

@<SCITEGIC>MOL_PROPERTY
W
SciTegic.value.DoubleValue
-64.599

@<SCITEGIC>MOL_PROPERTY
W(PB)
SciTegic.value.DoubleValue
-66.503

@<SCITEGIC>MOL_PROPERTY
W(SA)
SciTegic.value.DoubleValue
1.904

@<SCITEGIC>MOL_PROPERTY
Valence
SciTegic.value.DoubleValue
6.734

@<SCITEGIC>MOL_PROPERTY
Coulomb
SciTegic.value.DoubleValue
-0.068

@<SCITEGIC>MOL_PROPERTY
VdW
SciTegic.value.DoubleValue
0.598

@<SCITEGIC>MOL_PROPERTY
VdW6
SciTegic.value.DoubleValue
-4.819

@<SCITEGIC>MOL_PROPERTY
VdW12
SciTegic.value.DoubleValue
5.417

@<SCITEGIC>MOL_PROPERTY
Bond
SciTegic.value.DoubleValue
0.107

@<SCITEGIC>MOL_PROPERTY
Angle
SciTegic.value.DoubleValue
2.469

@<SCITEGIC>MOL_PROPERTY
Pdih
SciTegic.value.DoubleValue
4.157

@<SCITEGIC>MOL_PROPERTY
Idih
SciTegic.value.DoubleValue
0.001

@<SCITEGIC>MOL_PROPERTY
Tether
SciTegic.value.DoubleValue
0.000

@<TRIPOS>MOLECULE
guest-s18_confgen4.mol2 : confsearch ligand conformer 665
          16          15           1
SMALL
USER_CHARGES
 
@<TRIPOS>ATOM
       1    C1      18.258501   18.327514   23.285583 C.2        1 MOL1         0.6075
       2    O1      17.798952   17.298556   22.831270 O.co2      1 MOL1        -0.6830
       3    O2      18.505485   18.489276   24.464181 O.co2      1 MOL1        -0.6830
       4    C2      18.516076   19.486110   22.325998 C.3        1 MOL1        -0.2050
       5    H1      18.586072   20.413716   22.907145 H          1 MOL1         0.0710
       6    H2      17.633705   19.581329   21.682113 H          1 MOL1         0.0710
       7    C3      19.781142   19.309195   21.446597 C.3        1 MOL1        -0.1947
       8    H3      19.710050   18.362865   20.892495 H          1 MOL1         0.0712
       9    H4      19.810007   20.112507   20.697989 H          1 MOL1         0.0712
      10    C4      21.086187   19.335453   22.271430 C.3        1 MOL1        -0.1921
      11    H5      21.077480   18.522468   23.010824 H          1 MOL1         0.0712
      12    H6      21.149846   20.276863   22.834521 H          1 MOL1         0.0712
      13    C5      22.328626   19.191697   21.370306 C.3        1 MOL1        -0.2936
      14    H7      22.305329   18.242939   20.818250 H          1 MOL1         0.0724
      15    H8      23.246761   19.211427   21.971766 H          1 MOL1         0.0724
      16    H9      22.382881   20.011367   20.641874 H          1 MOL1         0.0724
@<TRIPOS>BOND
    1     1     2    1
    2     1     3    2
    3     1     4    1
    4     4     5    1
    5     4     6    1
    6     4     7    1
    7     7     8    1
    8     7     9    1
    9     7    10    1
   10    10    11    1
   11    10    12    1
   12    10    13    1
   13    13    14    1
   14    13    15    1
   15    13    16    1
@<TRIPOS>SUBSTRUCTURE
       1 MOL1            1 RESIDUE      1      MOL     
@<SCITEGIC>MOL_PROPERTY
VConf Rank
SciTegic.value.IntegerValue
665

@<SCITEGIC>MOL_PROPERTY
Conf_Id
SciTegic.value.IntegerValue
19

@<SCITEGIC>MOL_PROPERTY
Delta U+W
SciTegic.value.DoubleValue
0.048

@<SCITEGIC>MOL_PROPERTY
U+W
SciTegic.value.DoubleValue
-56.856

@<SCITEGIC>MOL_PROPERTY
Grad RMS
SciTegic.value.DoubleValue
0.000000

@<SCITEGIC>MOL_PROPERTY
U
SciTegic.value.DoubleValue
8.276

@<SCITEGIC>MOL_PROPERTY
W
SciTegic.value.DoubleValue
-65.132

@<SCITEGIC>MOL_PROPERTY
W(PB)
SciTegic.value.DoubleValue
-67.031

@<SCITEGIC>MOL_PROPERTY
W(SA)
SciTegic.value.DoubleValue
1.899

@<SCITEGIC>MOL_PROPERTY
Valence
SciTegic.value.DoubleValue
6.513

@<SCITEGIC>MOL_PROPERTY
Coulomb
SciTegic.value.DoubleValue
1.428

@<SCITEGIC>MOL_PROPERTY
VdW
SciTegic.value.DoubleValue
0.335

@<SCITEGIC>MOL_PROPERTY
VdW6
SciTegic.value.DoubleValue
-5.021

@<SCITEGIC>MOL_PROPERTY
VdW12
SciTegic.value.DoubleValue
5.356

@<SCITEGIC>MOL_PROPERTY
Bond
SciTegic.value.DoubleValue
0.092

@<SCITEGIC>MOL_PROPERTY
Angle
SciTegic.value.DoubleValue
2.417

@<SCITEGIC>MOL_PROPERTY
Pdih
SciTegic.value.DoubleValue
4.003

@<SCITEGIC>MOL_PROPERTY
Idih
SciTegic.value.DoubleValue
0.001

@<SCITEGIC>MOL_PROPERTY
Tether
SciTegic.value.DoubleValue
0.000

@<TRIPOS>MOLECULE
guest-s18_confgen4.mol2 : confsearch ligand conformer 666
          16          15           1
SMALL
USER_CHARGES
 
@<TRIPOS>ATOM
       1    C1      20.409768   21.464990   22.040703 C.2        1 MOL1         0.6075
       2    O1      21.605303   21.681872   22.041441 O.co2      1 MOL1        -0.6830
       3    O2      19.626688   22.019443   22.786108 O.co2      1 MOL1        -0.6830
       4    C2      19.861379   20.458868   21.032494 C.3        1 MOL1        -0.2050
       5    H1      20.323531   20.680449   20.063188 H          1 MOL1         0.0710
       6    H2      18.784194   20.630189   20.916704 H          1 MOL1         0.0710
       7    C3      20.130226   18.978155   21.406997 C.3        1 MOL1        -0.1947
       8    H3      19.828857   18.337708   20.567019 H          1 MOL1         0.0712
       9    H4      21.209768   18.828313   21.547562 H          1 MOL1         0.0712
      10    C4      19.371538   18.539972   22.678445 C.3        1 MOL1        -0.1921
      11    H5      18.293453   18.701933   22.541046 H          1 MOL1         0.0712
      12    H6      19.680466   19.161100   23.530788 H          1 MOL1         0.0712
      13    C5      19.629416   17.056483   23.008766 C.3        1 MOL1        -0.2936
      14    H7      19.298058   16.407526   22.187504 H          1 MOL1         0.0724
      15    H8      19.084125   16.761745   23.914804 H          1 MOL1         0.0724
      16    H9      20.698031   16.872929   23.181451 H          1 MOL1         0.0724
@<TRIPOS>BOND
    1     1     2    1
    2     1     3    2
    3     1     4    1
    4     4     5    1
    5     4     6    1
    6     4     7    1
    7     7     8    1
    8     7     9    1
    9     7    10    1
   10    10    11    1
   11    10    12    1
   12    10    13    1
   13    13    14    1
   14    13    15    1
   15    13    16    1
@<TRIPOS>SUBSTRUCTURE
       1 MOL1            1 RESIDUE      1      MOL     
@<SCITEGIC>MOL_PROPERTY
VConf Rank
SciTegic.value.IntegerValue
666

@<SCITEGIC>MOL_PROPERTY
Conf_Id
SciTegic.value.IntegerValue
20

@<SCITEGIC>MOL_PROPERTY
Delta U+W
SciTegic.value.DoubleValue
-0.010

@<SCITEGIC>MOL_PROPERTY
U+W
SciTegic.value.DoubleValue
-56.914

@<SCITEGIC>MOL_PROPERTY
Grad RMS
SciTegic.value.DoubleValue
0.000000

@<SCITEGIC>MOL_PROPERTY
U
SciTegic.value.DoubleValue
8.277

@<SCITEGIC>MOL_PROPERTY
W
SciTegic.value.DoubleValue
-65.191

@<SCITEGIC>MOL_PROPERTY
W(PB)
SciTegic.value.DoubleValue
-67.081

@<SCITEGIC>MOL_PROPERTY
W(SA)
SciTegic.value.DoubleValue
1.890

@<SCITEGIC>MOL_PROPERTY
Valence
SciTegic.value.DoubleValue
6.513

@<SCITEGIC>MOL_PROPERTY
Coulomb
SciTegic.value.DoubleValue
1.429

@<SCITEGIC>MOL_PROPERTY
VdW
SciTegic.value.DoubleValue
0.335

@<SCITEGIC>MOL_PROPERTY
VdW6
SciTegic.value.DoubleValue
-5.021

@<SCITEGIC>MOL_PROPERTY
VdW12
SciTegic.value.DoubleValue
5.356

@<SCITEGIC>MOL_PROPERTY
Bond
SciTegic.value.DoubleValue
0.092

@<SCITEGIC>MOL_PROPERTY
Angle
SciTegic.value.DoubleValue
2.417

@<SCITEGIC>MOL_PROPERTY
Pdih
SciTegic.value.DoubleValue
4.002

@<SCITEGIC>MOL_PROPERTY
Idih
SciTegic.value.DoubleValue
0.001

@<SCITEGIC>MOL_PROPERTY
Tether
SciTegic.value.DoubleValue
0.000

@<TRIPOS>MOLECULE
guest-s18_confgen4.mol2 : confsearch ligand conformer 667
          16          15           1
SMALL
USER_CHARGES
 
@<TRIPOS>ATOM
       1    C1      20.721468   17.834464   20.716573 C.2        1 MOL1         0.6075
       2    O1      21.318687   18.223852   19.732453 O.co2      1 MOL1        -0.6830
       3    O2      19.875854   16.962510   20.686014 O.co2      1 MOL1        -0.6830
       4    C2      21.078869   18.451284   22.066218 C.3        1 MOL1        -0.2050
       5    H1      22.169619   18.405414   22.166426 H          1 MOL1         0.0710
       6    H2      20.667639   17.819535   22.861849 H          1 MOL1         0.0710
       7    C3      20.609846   19.922125   22.237453 C.3        1 MOL1        -0.1947
       8    H3      20.977390   20.307822   23.197933 H          1 MOL1         0.0712
       9    H4      21.082123   20.535985   21.458040 H          1 MOL1         0.0712
      10    C4      19.076397   20.115114   22.164797 C.3        1 MOL1        -0.1921
      11    H5      18.700464   19.764673   21.193477 H          1 MOL1         0.0712
      12    H6      18.853788   21.189947   22.212833 H          1 MOL1         0.0712
      13    C5      18.318127   19.398246   23.302149 C.3        1 MOL1        -0.2936
      14    H7      18.413043   18.308076   23.218425 H          1 MOL1         0.0724
      15    H8      17.248550   19.641846   23.263108 H          1 MOL1         0.0724
      16    H9      18.699737   19.704856   24.284713 H          1 MOL1         0.0724
@<TRIPOS>BOND
    1     1     2    1
    2     1     3    2
    3     1     4    1
    4     4     5    1
    5     4     6    1
    6     4     7    1
    7     7     8    1
    8     7     9    1
    9     7    10    1
   10    10    11    1
   11    10    12    1
   12    10    13    1
   13    13    14    1
   14    13    15    1
   15    13    16    1
@<TRIPOS>SUBSTRUCTURE
       1 MOL1            1 RESIDUE      1      MOL     
@<SCITEGIC>MOL_PROPERTY
VConf Rank
SciTegic.value.IntegerValue
667

@<SCITEGIC>MOL_PROPERTY
Conf_Id
SciTegic.value.IntegerValue
37

@<SCITEGIC>MOL_PROPERTY
Delta U+W
SciTegic.value.DoubleValue
1.063

@<SCITEGIC>MOL_PROPERTY
U+W
SciTegic.value.DoubleValue
-55.841

@<SCITEGIC>MOL_PROPERTY
Grad RMS
SciTegic.value.DoubleValue
0.000000

@<SCITEGIC>MOL_PROPERTY
U
SciTegic.value.DoubleValue
9.719

@<SCITEGIC>MOL_PROPERTY
W
SciTegic.value.DoubleValue
-65.560

@<SCITEGIC>MOL_PROPERTY
W(PB)
SciTegic.value.DoubleValue
-67.414

@<SCITEGIC>MOL_PROPERTY
W(SA)
SciTegic.value.DoubleValue
1.854

@<SCITEGIC>MOL_PROPERTY
Valence
SciTegic.value.DoubleValue
7.002

@<SCITEGIC>MOL_PROPERTY
Coulomb
SciTegic.value.DoubleValue
2.402

@<SCITEGIC>MOL_PROPERTY
VdW
SciTegic.value.DoubleValue
0.314

@<SCITEGIC>MOL_PROPERTY
VdW6
SciTegic.value.DoubleValue
-5.861

@<SCITEGIC>MOL_PROPERTY
VdW12
SciTegic.value.DoubleValue
6.175

@<SCITEGIC>MOL_PROPERTY
Bond
SciTegic.value.DoubleValue
0.134

@<SCITEGIC>MOL_PROPERTY
Angle
SciTegic.value.DoubleValue
2.733

@<SCITEGIC>MOL_PROPERTY
Pdih
SciTegic.value.DoubleValue
4.133

@<SCITEGIC>MOL_PROPERTY
Idih
SciTegic.value.DoubleValue
0.002

@<SCITEGIC>MOL_PROPERTY
Tether
SciTegic.value.DoubleValue
0.000

@<TRIPOS>MOLECULE
guest-s18_confgen4.mol2 : confsearch ligand conformer 668
          16          15           1
SMALL
USER_CHARGES
 
@<TRIPOS>ATOM
       1    C1      20.616744   19.295990   20.084560 C.2        1 MOL1         0.6075
       2    O1      20.296898   20.247775   19.400025 O.co2      1 MOL1        -0.6830
       3    O2      21.728766   18.806500   20.074196 O.co2      1 MOL1        -0.6830
       4    C2      19.553621   18.662310   20.977849 C.3        1 MOL1        -0.2050
       5    H1      19.910391   17.679524   21.306630 H          1 MOL1         0.0710
       6    H2      18.671175   18.478962   20.353707 H          1 MOL1         0.0710
       7    C3      19.146520   19.533254   22.197851 C.3        1 MOL1        -0.1947
       8    H3      18.744023   20.487706   21.831283 H          1 MOL1         0.0712
       9    H4      18.325872   19.039166   22.735239 H          1 MOL1         0.0712
      10    C4      20.300135   19.824321   23.187014 C.3        1 MOL1        -0.1921
      11    H5      19.934028   20.510012   23.963495 H          1 MOL1         0.0712
      12    H6      21.113996   20.350347   22.668821 H          1 MOL1         0.0712
      13    C5      20.854964   18.553976   23.865859 C.3        1 MOL1        -0.2936
      14    H7      20.054099   17.990355   24.361855 H          1 MOL1         0.0724
      15    H8      21.602147   18.819829   24.624740 H          1 MOL1         0.0724
      16    H9      21.342921   17.894122   23.137176 H          1 MOL1         0.0724
@<TRIPOS>BOND
    1     1     2    1
    2     1     3    2
    3     1     4    1
    4     4     5    1
    5     4     6    1
    6     4     7    1
    7     7     8    1
    8     7     9    1
    9     7    10    1
   10    10    11    1
   11    10    12    1
   12    10    13    1
   13    13    14    1
   14    13    15    1
   15    13    16    1
@<TRIPOS>SUBSTRUCTURE
       1 MOL1            1 RESIDUE      1      MOL     
@<SCITEGIC>MOL_PROPERTY
VConf Rank
SciTegic.value.IntegerValue
668

@<SCITEGIC>MOL_PROPERTY
Conf_Id
SciTegic.value.IntegerValue
39

@<SCITEGIC>MOL_PROPERTY
Delta U+W
SciTegic.value.DoubleValue
1.129

@<SCITEGIC>MOL_PROPERTY
U+W
SciTegic.value.DoubleValue
-55.775

@<SCITEGIC>MOL_PROPERTY
Grad RMS
SciTegic.value.DoubleValue
0.000000

@<SCITEGIC>MOL_PROPERTY
U
SciTegic.value.DoubleValue
9.718

@<SCITEGIC>MOL_PROPERTY
W
SciTegic.value.DoubleValue
-65.493

@<SCITEGIC>MOL_PROPERTY
W(PB)
SciTegic.value.DoubleValue
-67.361

@<SCITEGIC>MOL_PROPERTY
W(SA)
SciTegic.value.DoubleValue
1.869

@<SCITEGIC>MOL_PROPERTY
Valence
SciTegic.value.DoubleValue
7.002

@<SCITEGIC>MOL_PROPERTY
Coulomb
SciTegic.value.DoubleValue
2.402

@<SCITEGIC>MOL_PROPERTY
VdW
SciTegic.value.DoubleValue
0.314

@<SCITEGIC>MOL_PROPERTY
VdW6
SciTegic.value.DoubleValue
-5.861

@<SCITEGIC>MOL_PROPERTY
VdW12
SciTegic.value.DoubleValue
6.175

@<SCITEGIC>MOL_PROPERTY
Bond
SciTegic.value.DoubleValue
0.134

@<SCITEGIC>MOL_PROPERTY
Angle
SciTegic.value.DoubleValue
2.734

@<SCITEGIC>MOL_PROPERTY
Pdih
SciTegic.value.DoubleValue
4.133

@<SCITEGIC>MOL_PROPERTY
Idih
SciTegic.value.DoubleValue
0.002

@<SCITEGIC>MOL_PROPERTY
Tether
SciTegic.value.DoubleValue
0.000

@<TRIPOS>MOLECULE
guest-s18_confgen4.mol2 : confsearch ligand conformer 669
          16          15           1
SMALL
USER_CHARGES
 
@<TRIPOS>ATOM
       1    C1      19.343844   20.996880   22.255658 C.2        1 MOL1         0.6075
       2    O1      20.011055   21.653521   23.030560 O.co2      1 MOL1        -0.6830
       3    O2      18.130587   21.049739   22.206962 O.co2      1 MOL1        -0.6830
       4    C2      20.073671   20.129747   21.231408 C.3        1 MOL1        -0.2050
       5    H1      21.155194   20.257514   21.361649 H          1 MOL1         0.0710
       6    H2      19.826113   20.541351   20.245991 H          1 MOL1         0.0710
       7    C3      19.703766   18.619916   21.255093 C.3        1 MOL1        -0.1947
       8    H3      18.613820   18.502526   21.331108 H          1 MOL1         0.0712
       9    H4      19.988083   18.186056   20.286908 H          1 MOL1         0.0712
      10    C4      20.405209   17.799208   22.364137 C.3        1 MOL1        -0.1921
      11    H5      21.494396   17.920784   22.285898 H          1 MOL1         0.0712
      12    H6      20.200526   16.733835   22.189846 H          1 MOL1         0.0712
      13    C5      19.944147   18.158188   23.792018 C.3        1 MOL1        -0.2936
      14    H7      20.273289   19.164948   24.076797 H          1 MOL1         0.0724
      15    H8      20.367344   17.454520   24.520389 H          1 MOL1         0.0724
      16    H9      18.850246   18.116086   23.875319 H          1 MOL1         0.0724
@<TRIPOS>BOND
    1     1     2    1
    2     1     3    2
    3     1     4    1
    4     4     5    1
    5     4     6    1
    6     4     7    1
    7     7     8    1
    8     7     9    1
    9     7    10    1
   10    10    11    1
   11    10    12    1
   12    10    13    1
   13    13    14    1
   14    13    15    1
   15    13    16    1
@<TRIPOS>SUBSTRUCTURE
       1 MOL1            1 RESIDUE      1      MOL     
@<SCITEGIC>MOL_PROPERTY
VConf Rank
SciTegic.value.IntegerValue
669

@<SCITEGIC>MOL_PROPERTY
Conf_Id
SciTegic.value.IntegerValue
47

@<SCITEGIC>MOL_PROPERTY
Delta U+W
SciTegic.value.DoubleValue
2.301

@<SCITEGIC>MOL_PROPERTY
U+W
SciTegic.value.DoubleValue
-54.603

@<SCITEGIC>MOL_PROPERTY
Grad RMS
SciTegic.value.DoubleValue
0.000000

@<SCITEGIC>MOL_PROPERTY
U
SciTegic.value.DoubleValue
11.258

@<SCITEGIC>MOL_PROPERTY
W
SciTegic.value.DoubleValue
-65.861

@<SCITEGIC>MOL_PROPERTY
W(PB)
SciTegic.value.DoubleValue
-67.702

@<SCITEGIC>MOL_PROPERTY
W(SA)
SciTegic.value.DoubleValue
1.841

@<SCITEGIC>MOL_PROPERTY
Valence
SciTegic.value.DoubleValue
8.169

@<SCITEGIC>MOL_PROPERTY
Coulomb
SciTegic.value.DoubleValue
2.735

@<SCITEGIC>MOL_PROPERTY
VdW
SciTegic.value.DoubleValue
0.355

@<SCITEGIC>MOL_PROPERTY
VdW6
SciTegic.value.DoubleValue
-6.245

@<SCITEGIC>MOL_PROPERTY
VdW12
SciTegic.value.DoubleValue
6.600

@<SCITEGIC>MOL_PROPERTY
Bond
SciTegic.value.DoubleValue
0.149

@<SCITEGIC>MOL_PROPERTY
Angle
SciTegic.value.DoubleValue
3.168

@<SCITEGIC>MOL_PROPERTY
Pdih
SciTegic.value.DoubleValue
4.840

@<SCITEGIC>MOL_PROPERTY
Idih
SciTegic.value.DoubleValue
0.011

@<SCITEGIC>MOL_PROPERTY
Tether
SciTegic.value.DoubleValue
0.000

@<TRIPOS>MOLECULE
guest-s18_confgen4.mol2 : confsearch ligand conformer 670
          16          15           1
SMALL
USER_CHARGES
 
@<TRIPOS>ATOM
       1    C1      18.713273   17.772868   23.178338 C.2        1 MOL1         0.6075
       2    O1      19.415288   16.879924   23.610756 O.co2      1 MOL1        -0.6830
       3    O2      17.692162   17.575584   22.549665 O.co2      1 MOL1        -0.6830
       4    C2      19.083339   19.215456   23.518419 C.3        1 MOL1        -0.2050
       5    H1      19.039977   19.296048   24.610835 H          1 MOL1         0.0710
       6    H2      18.309296   19.884911   23.123873 H          1 MOL1         0.0710
       7    C3      20.487993   19.672927   23.034005 C.3        1 MOL1        -0.1947
       8    H3      20.781853   20.549901   23.626471 H          1 MOL1         0.0712
       9    H4      21.232042   18.895064   23.255047 H          1 MOL1         0.0712
      10    C4      20.560058   20.067696   21.539173 C.3        1 MOL1        -0.1921
      11    H5      21.542023   20.521612   21.346821 H          1 MOL1         0.0712
      12    H6      19.813561   20.844082   21.321922 H          1 MOL1         0.0712
      13    C5      20.371955   18.881388   20.570888 C.3        1 MOL1        -0.2936
      14    H7      20.571123   19.193825   19.537697 H          1 MOL1         0.0724
      15    H8      19.345872   18.495531   20.606497 H          1 MOL1         0.0724
      16    H9      21.058338   18.060198   20.815540 H          1 MOL1         0.0724
@<TRIPOS>BOND
    1     1     2    1
    2     1     3    2
    3     1     4    1
    4     4     5    1
    5     4     6    1
    6     4     7    1
    7     7     8    1
    8     7     9    1
    9     7    10    1
   10    10    11    1
   11    10    12    1
   12    10    13    1
   13    13    14    1
   14    13    15    1
   15    13    16    1
@<TRIPOS>SUBSTRUCTURE
       1 MOL1            1 RESIDUE      1      MOL     
@<SCITEGIC>MOL_PROPERTY
VConf Rank
SciTegic.value.IntegerValue
670

@<SCITEGIC>MOL_PROPERTY
Conf_Id
SciTegic.value.IntegerValue
45

@<SCITEGIC>MOL_PROPERTY
Delta U+W
SciTegic.value.DoubleValue
2.303

@<SCITEGIC>MOL_PROPERTY
U+W
SciTegic.value.DoubleValue
-54.601

@<SCITEGIC>MOL_PROPERTY
Grad RMS
SciTegic.value.DoubleValue
0.000000

@<SCITEGIC>MOL_PROPERTY
U
SciTegic.value.DoubleValue
11.258

@<SCITEGIC>MOL_PROPERTY
W
SciTegic.value.DoubleValue
-65.860

@<SCITEGIC>MOL_PROPERTY
W(PB)
SciTegic.value.DoubleValue
-67.709

@<SCITEGIC>MOL_PROPERTY
W(SA)
SciTegic.value.DoubleValue
1.849

@<SCITEGIC>MOL_PROPERTY
Valence
SciTegic.value.DoubleValue
8.169

@<SCITEGIC>MOL_PROPERTY
Coulomb
SciTegic.value.DoubleValue
2.735

@<SCITEGIC>MOL_PROPERTY
VdW
SciTegic.value.DoubleValue
0.355

@<SCITEGIC>MOL_PROPERTY
VdW6
SciTegic.value.DoubleValue
-6.245

@<SCITEGIC>MOL_PROPERTY
VdW12
SciTegic.value.DoubleValue
6.600

@<SCITEGIC>MOL_PROPERTY
Bond
SciTegic.value.DoubleValue
0.149

@<SCITEGIC>MOL_PROPERTY
Angle
SciTegic.value.DoubleValue
3.168

@<SCITEGIC>MOL_PROPERTY
Pdih
SciTegic.value.DoubleValue
4.840

@<SCITEGIC>MOL_PROPERTY
Idih
SciTegic.value.DoubleValue
0.011

@<SCITEGIC>MOL_PROPERTY
Tether
SciTegic.value.DoubleValue
0.000

@<TRIPOS>MOLECULE
guest-s18_confgen4.mol2 : confsearch ligand conformer 671
          16          15           1
SMALL
USER_CHARGES
 
@<TRIPOS>ATOM
       1    C1      20.608072   20.576763   24.192351 C.2        1 MOL1         0.6075
       2    O1      21.569787   21.129143   23.694598 O.co2      1 MOL1        -0.6830
       3    O2      20.246643   20.777783   25.334399 O.co2      1 MOL1        -0.6830
       4    C2      19.795066   19.576750   23.368405 C.3        1 MOL1        -0.2050
       5    H1      18.758152   19.932702   23.351993 H          1 MOL1         0.0710
       6    H2      19.798764   18.624851   23.912498 H          1 MOL1         0.0710
       7    C3      20.294440   19.351787   21.916384 C.3        1 MOL1        -0.1947
       8    H3      20.293700   20.309695   21.377977 H          1 MOL1         0.0712
       9    H4      21.335372   19.000483   21.939063 H          1 MOL1         0.0712
      10    C4      19.418472   18.330826   21.160357 C.3        1 MOL1        -0.1921
      11    H5      18.377473   18.681825   21.135422 H          1 MOL1         0.0712
      12    H6      19.419761   17.371823   21.696837 H          1 MOL1         0.0712
      13    C5      19.919367   18.111696   19.719098 C.3        1 MOL1        -0.2936
      14    H7      19.898958   19.049998   19.149325 H          1 MOL1         0.0724
      15    H8      19.285964   17.383527   19.195923 H          1 MOL1         0.0724
      16    H9      20.948936   17.730330   19.714876 H          1 MOL1         0.0724
@<TRIPOS>BOND
    1     1     2    1
    2     1     3    2
    3     1     4    1
    4     4     5    1
    5     4     6    1
    6     4     7    1
    7     7     8    1
    8     7     9    1
    9     7    10    1
   10    10    11    1
   11    10    12    1
   12    10    13    1
   13    13    14    1
   14    13    15    1
   15    13    16    1
@<TRIPOS>SUBSTRUCTURE
       1 MOL1            1 RESIDUE      1      MOL     
@<SCITEGIC>MOL_PROPERTY
VConf Rank
SciTegic.value.IntegerValue
671

@<SCITEGIC>MOL_PROPERTY
Conf_Id
SciTegic.value.IntegerValue
0

@<SCITEGIC>MOL_PROPERTY
Delta U+W
SciTegic.value.DoubleValue
0.000

@<SCITEGIC>MOL_PROPERTY
U+W
SciTegic.value.DoubleValue
-56.904

@<SCITEGIC>MOL_PROPERTY
Grad RMS
SciTegic.value.DoubleValue
0.000000

@<SCITEGIC>MOL_PROPERTY
U
SciTegic.value.DoubleValue
7.329

@<SCITEGIC>MOL_PROPERTY
W
SciTegic.value.DoubleValue
-64.233

@<SCITEGIC>MOL_PROPERTY
W(PB)
SciTegic.value.DoubleValue
-66.148

@<SCITEGIC>MOL_PROPERTY
W(SA)
SciTegic.value.DoubleValue
1.915

@<SCITEGIC>MOL_PROPERTY
Valence
SciTegic.value.DoubleValue
6.755

@<SCITEGIC>MOL_PROPERTY
Coulomb
SciTegic.value.DoubleValue
-0.421

@<SCITEGIC>MOL_PROPERTY
VdW
SciTegic.value.DoubleValue
0.995

@<SCITEGIC>MOL_PROPERTY
VdW6
SciTegic.value.DoubleValue
-4.495

@<SCITEGIC>MOL_PROPERTY
VdW12
SciTegic.value.DoubleValue
5.490

@<SCITEGIC>MOL_PROPERTY
Bond
SciTegic.value.DoubleValue
0.106

@<SCITEGIC>MOL_PROPERTY
Angle
SciTegic.value.DoubleValue
2.715

@<SCITEGIC>MOL_PROPERTY
Pdih
SciTegic.value.DoubleValue
3.934

@<SCITEGIC>MOL_PROPERTY
Idih
SciTegic.value.DoubleValue
0.000

@<SCITEGIC>MOL_PROPERTY
Tether
SciTegic.value.DoubleValue
0.000

@<TRIPOS>MOLECULE
guest-s18_confgen4.mol2 : confsearch ligand conformer 672
          16          15           1
SMALL
USER_CHARGES
 
@<TRIPOS>ATOM
       1    C1      21.188069   16.654561   21.714941 C.2        1 MOL1         0.6075
       2    O1      21.921109   16.521028   20.755429 O.co2      1 MOL1        -0.6830
       3    O2      21.344186   16.067045   22.766748 O.co2      1 MOL1        -0.6830
       4    C2      20.018876   17.626208   21.598884 C.3        1 MOL1        -0.2050
       5    H1      19.196467   17.245547   22.216614 H          1 MOL1         0.0710
       6    H2      19.672188   17.619928   20.558394 H          1 MOL1         0.0710
       7    C3      20.387583   19.067134   22.029986 C.3        1 MOL1        -0.1947
       8    H3      20.744356   19.055065   23.069273 H          1 MOL1         0.0712
       9    H4      21.220150   19.429445   21.411023 H          1 MOL1         0.0712
      10    C4      19.188028   20.029165   21.903002 C.3        1 MOL1        -0.1921
      11    H5      18.355468   19.667554   22.522373 H          1 MOL1         0.0712
      12    H6      18.831358   20.042002   20.863695 H          1 MOL1         0.0712
      13    C5      19.562266   21.461154   22.333647 C.3        1 MOL1        -0.2936
      14    H7      20.372645   21.859929   21.709360 H          1 MOL1         0.0724
      15    H8      19.893263   21.482711   23.380283 H          1 MOL1         0.0724
      16    H9      18.698731   22.132116   22.237371 H          1 MOL1         0.0724
@<TRIPOS>BOND
    1     1     2    1
    2     1     3    2
    3     1     4    1
    4     4     5    1
    5     4     6    1
    6     4     7    1
    7     7     8    1
    8     7     9    1
    9     7    10    1
   10    10    11    1
   11    10    12    1
   12    10    13    1
   13    13    14    1
   14    13    15    1
   15    13    16    1
@<TRIPOS>SUBSTRUCTURE
       1 MOL1            1 RESIDUE      1      MOL     
@<SCITEGIC>MOL_PROPERTY
VConf Rank
SciTegic.value.IntegerValue
672

@<SCITEGIC>MOL_PROPERTY
Conf_Id
SciTegic.value.IntegerValue
22

@<SCITEGIC>MOL_PROPERTY
Delta U+W
SciTegic.value.DoubleValue
-1.185

@<SCITEGIC>MOL_PROPERTY
U+W
SciTegic.value.DoubleValue
-58.089

@<SCITEGIC>MOL_PROPERTY
Grad RMS
SciTegic.value.DoubleValue
0.000000

@<SCITEGIC>MOL_PROPERTY
U
SciTegic.value.DoubleValue
6.298

@<SCITEGIC>MOL_PROPERTY
W
SciTegic.value.DoubleValue
-64.387

@<SCITEGIC>MOL_PROPERTY
W(PB)
SciTegic.value.DoubleValue
-66.329

@<SCITEGIC>MOL_PROPERTY
W(SA)
SciTegic.value.DoubleValue
1.942

@<SCITEGIC>MOL_PROPERTY
Valence
SciTegic.value.DoubleValue
6.246

@<SCITEGIC>MOL_PROPERTY
Coulomb
SciTegic.value.DoubleValue
-0.408

@<SCITEGIC>MOL_PROPERTY
VdW
SciTegic.value.DoubleValue
0.460

@<SCITEGIC>MOL_PROPERTY
VdW6
SciTegic.value.DoubleValue
-4.207

@<SCITEGIC>MOL_PROPERTY
VdW12
SciTegic.value.DoubleValue
4.667

@<SCITEGIC>MOL_PROPERTY
Bond
SciTegic.value.DoubleValue
0.072

@<SCITEGIC>MOL_PROPERTY
Angle
SciTegic.value.DoubleValue
2.246

@<SCITEGIC>MOL_PROPERTY
Pdih
SciTegic.value.DoubleValue
3.928

@<SCITEGIC>MOL_PROPERTY
Idih
SciTegic.value.DoubleValue
0.001

@<SCITEGIC>MOL_PROPERTY
Tether
SciTegic.value.DoubleValue
0.000

@<TRIPOS>MOLECULE
guest-s18_confgen4.mol2 : confsearch ligand conformer 673
          16          15           1
SMALL
USER_CHARGES
 
@<TRIPOS>ATOM
       1    C1      19.928432   20.252156   24.328453 C.2        1 MOL1         0.6075
       2    O1      19.150351   19.911404   25.197057 O.co2      1 MOL1        -0.6830
       3    O2      20.487129   21.330847   24.312880 O.co2      1 MOL1        -0.6830
       4    C2      20.202903   19.280997   23.185611 C.3        1 MOL1        -0.2050
       5    H1      20.130825   18.260706   23.581057 H          1 MOL1         0.0710
       6    H2      21.238693   19.431272   22.860539 H          1 MOL1         0.0710
       7    C3      19.226229   19.462636   21.994767 C.3        1 MOL1        -0.1947
       8    H3      18.195617   19.392464   22.369391 H          1 MOL1         0.0712
       9    H4      19.337887   20.474017   21.580102 H          1 MOL1         0.0712
      10    C4      19.419966   18.414692   20.874639 C.3        1 MOL1        -0.1921
      11    H5      18.624618   18.544890   20.127793 H          1 MOL1         0.0712
      12    H6      19.296697   17.403574   21.286737 H          1 MOL1         0.0712
      13    C5      20.788375   18.524284   20.168678 C.3        1 MOL1        -0.2936
      14    H7      21.612723   18.288942   20.853402 H          1 MOL1         0.0724
      15    H8      20.946535   19.536144   19.773237 H          1 MOL1         0.0724
      16    H9      20.843737   17.820547   19.328026 H          1 MOL1         0.0724
@<TRIPOS>BOND
    1     1     2    1
    2     1     3    2
    3     1     4    1
    4     4     5    1
    5     4     6    1
    6     4     7    1
    7     7     8    1
    8     7     9    1
    9     7    10    1
   10    10    11    1
   11    10    12    1
   12    10    13    1
   13    13    14    1
   14    13    15    1
   15    13    16    1
@<TRIPOS>SUBSTRUCTURE
       1 MOL1            1 RESIDUE      1      MOL     
@<SCITEGIC>MOL_PROPERTY
VConf Rank
SciTegic.value.IntegerValue
673

@<SCITEGIC>MOL_PROPERTY
Conf_Id
SciTegic.value.IntegerValue
36

@<SCITEGIC>MOL_PROPERTY
Delta U+W
SciTegic.value.DoubleValue
-0.427

@<SCITEGIC>MOL_PROPERTY
U+W
SciTegic.value.DoubleValue
-57.331

@<SCITEGIC>MOL_PROPERTY
Grad RMS
SciTegic.value.DoubleValue
0.000000

@<SCITEGIC>MOL_PROPERTY
U
SciTegic.value.DoubleValue
7.263

@<SCITEGIC>MOL_PROPERTY
W
SciTegic.value.DoubleValue
-64.594

@<SCITEGIC>MOL_PROPERTY
W(PB)
SciTegic.value.DoubleValue
-66.513

@<SCITEGIC>MOL_PROPERTY
W(SA)
SciTegic.value.DoubleValue
1.920

@<SCITEGIC>MOL_PROPERTY
Valence
SciTegic.value.DoubleValue
6.734

@<SCITEGIC>MOL_PROPERTY
Coulomb
SciTegic.value.DoubleValue
-0.068

@<SCITEGIC>MOL_PROPERTY
VdW
SciTegic.value.DoubleValue
0.598

@<SCITEGIC>MOL_PROPERTY
VdW6
SciTegic.value.DoubleValue
-4.819

@<SCITEGIC>MOL_PROPERTY
VdW12
SciTegic.value.DoubleValue
5.417

@<SCITEGIC>MOL_PROPERTY
Bond
SciTegic.value.DoubleValue
0.107

@<SCITEGIC>MOL_PROPERTY
Angle
SciTegic.value.DoubleValue
2.469

@<SCITEGIC>MOL_PROPERTY
Pdih
SciTegic.value.DoubleValue
4.157

@<SCITEGIC>MOL_PROPERTY
Idih
SciTegic.value.DoubleValue
0.001

@<SCITEGIC>MOL_PROPERTY
Tether
SciTegic.value.DoubleValue
0.000

@<TRIPOS>MOLECULE
guest-s18_confgen4.mol2 : confsearch ligand conformer 674
          16          15           1
SMALL
USER_CHARGES
 
@<TRIPOS>ATOM
       1    C1      22.529980   19.307145   22.288348 C.2        1 MOL1         0.6075
       2    O1      23.065207   19.710126   21.274891 O.co2      1 MOL1        -0.6830
       3    O2      23.121164   18.718315   23.171398 O.co2      1 MOL1        -0.6830
       4    C2      21.031344   19.534776   22.452196 C.3        1 MOL1        -0.2050
       5    H1      20.781316   20.482069   21.961033 H          1 MOL1         0.0710
       6    H2      20.820398   19.657087   23.521359 H          1 MOL1         0.0710
       7    C3      20.180169   18.377157   21.868746 C.3        1 MOL1        -0.1947
       8    H3      20.367892   18.292030   20.789477 H          1 MOL1         0.0712
       9    H4      20.514685   17.431715   22.317820 H          1 MOL1         0.0712
      10    C4      18.663891   18.539095   22.123865 C.3        1 MOL1        -0.1921
      11    H5      18.474804   18.612452   23.203794 H          1 MOL1         0.0712
      12    H6      18.148875   17.631747   21.779212 H          1 MOL1         0.0712
      13    C5      18.052971   19.761352   21.405676 C.3        1 MOL1        -0.2936
      14    H7      18.457709   20.701763   21.800132 H          1 MOL1         0.0724
      15    H8      16.964405   19.783794   21.545417 H          1 MOL1         0.0724
      16    H9      18.254478   19.724515   20.327117 H          1 MOL1         0.0724
@<TRIPOS>BOND
    1     1     2    1
    2     1     3    2
    3     1     4    1
    4     4     5    1
    5     4     6    1
    6     4     7    1
    7     7     8    1
    8     7     9    1
    9     7    10    1
   10    10    11    1
   11    10    12    1
   12    10    13    1
   13    13    14    1
   14    13    15    1
   15    13    16    1
@<TRIPOS>SUBSTRUCTURE
       1 MOL1            1 RESIDUE      1      MOL     
@<SCITEGIC>MOL_PROPERTY
VConf Rank
SciTegic.value.IntegerValue
674

@<SCITEGIC>MOL_PROPERTY
Conf_Id
SciTegic.value.IntegerValue
17

@<SCITEGIC>MOL_PROPERTY
Delta U+W
SciTegic.value.DoubleValue
-0.432

@<SCITEGIC>MOL_PROPERTY
U+W
SciTegic.value.DoubleValue
-57.336

@<SCITEGIC>MOL_PROPERTY
Grad RMS
SciTegic.value.DoubleValue
0.000000

@<SCITEGIC>MOL_PROPERTY
U
SciTegic.value.DoubleValue
7.263

@<SCITEGIC>MOL_PROPERTY
W
SciTegic.value.DoubleValue
-64.599

@<SCITEGIC>MOL_PROPERTY
W(PB)
SciTegic.value.DoubleValue
-66.503

@<SCITEGIC>MOL_PROPERTY
W(SA)
SciTegic.value.DoubleValue
1.904

@<SCITEGIC>MOL_PROPERTY
Valence
SciTegic.value.DoubleValue
6.734

@<SCITEGIC>MOL_PROPERTY
Coulomb
SciTegic.value.DoubleValue
-0.068

@<SCITEGIC>MOL_PROPERTY
VdW
SciTegic.value.DoubleValue
0.598

@<SCITEGIC>MOL_PROPERTY
VdW6
SciTegic.value.DoubleValue
-4.819

@<SCITEGIC>MOL_PROPERTY
VdW12
SciTegic.value.DoubleValue
5.417

@<SCITEGIC>MOL_PROPERTY
Bond
SciTegic.value.DoubleValue
0.107

@<SCITEGIC>MOL_PROPERTY
Angle
SciTegic.value.DoubleValue
2.469

@<SCITEGIC>MOL_PROPERTY
Pdih
SciTegic.value.DoubleValue
4.157

@<SCITEGIC>MOL_PROPERTY
Idih
SciTegic.value.DoubleValue
0.001

@<SCITEGIC>MOL_PROPERTY
Tether
SciTegic.value.DoubleValue
0.000

@<TRIPOS>MOLECULE
guest-s18_confgen4.mol2 : confsearch ligand conformer 675
          16          15           1
SMALL
USER_CHARGES
 
@<TRIPOS>ATOM
       1    C1      19.258637   17.082266   22.877662 C.2        1 MOL1         0.6075
       2    O1      18.374591   16.630678   22.177038 O.co2      1 MOL1        -0.6830
       3    O2      20.207097   16.429392   23.265529 O.co2      1 MOL1        -0.6830
       4    C2      19.157771   18.541815   23.312443 C.3        1 MOL1        -0.2050
       5    H1      19.802430   18.692467   24.186973 H          1 MOL1         0.0710
       6    H2      18.127297   18.714803   23.644755 H          1 MOL1         0.0710
       7    C3      19.519789   19.559343   22.199513 C.3        1 MOL1        -0.1947
       8    H3      18.886126   19.378045   21.320180 H          1 MOL1         0.0712
       9    H4      19.286814   20.572709   22.553590 H          1 MOL1         0.0712
      10    C4      21.008237   19.491756   21.794375 C.3        1 MOL1        -0.1921
      11    H5      21.248178   18.487189   21.418877 H          1 MOL1         0.0712
      12    H6      21.640600   19.660880   22.676923 H          1 MOL1         0.0712
      13    C5      21.348451   20.535298   20.711961 C.3        1 MOL1        -0.2936
      14    H7      20.751172   20.369693   19.805714 H          1 MOL1         0.0724
      15    H8      22.408912   20.473341   20.435014 H          1 MOL1         0.0724
      16    H9      21.150997   21.553605   21.071792 H          1 MOL1         0.0724
@<TRIPOS>BOND
    1     1     2    1
    2     1     3    2
    3     1     4    1
    4     4     5    1
    5     4     6    1
    6     4     7    1
    7     7     8    1
    8     7     9    1
    9     7    10    1
   10    10    11    1
   11    10    12    1
   12    10    13    1
   13    13    14    1
   14    13    15    1
   15    13    16    1
@<TRIPOS>SUBSTRUCTURE
       1 MOL1            1 RESIDUE      1      MOL     
@<SCITEGIC>MOL_PROPERTY
VConf Rank
SciTegic.value.IntegerValue
675

@<SCITEGIC>MOL_PROPERTY
Conf_Id
SciTegic.value.IntegerValue
19

@<SCITEGIC>MOL_PROPERTY
Delta U+W
SciTegic.value.DoubleValue
0.048

@<SCITEGIC>MOL_PROPERTY
U+W
SciTegic.value.DoubleValue
-56.856

@<SCITEGIC>MOL_PROPERTY
Grad RMS
SciTegic.value.DoubleValue
0.000000

@<SCITEGIC>MOL_PROPERTY
U
SciTegic.value.DoubleValue
8.276

@<SCITEGIC>MOL_PROPERTY
W
SciTegic.value.DoubleValue
-65.132

@<SCITEGIC>MOL_PROPERTY
W(PB)
SciTegic.value.DoubleValue
-67.031

@<SCITEGIC>MOL_PROPERTY
W(SA)
SciTegic.value.DoubleValue
1.899

@<SCITEGIC>MOL_PROPERTY
Valence
SciTegic.value.DoubleValue
6.513

@<SCITEGIC>MOL_PROPERTY
Coulomb
SciTegic.value.DoubleValue
1.428

@<SCITEGIC>MOL_PROPERTY
VdW
SciTegic.value.DoubleValue
0.335

@<SCITEGIC>MOL_PROPERTY
VdW6
SciTegic.value.DoubleValue
-5.021

@<SCITEGIC>MOL_PROPERTY
VdW12
SciTegic.value.DoubleValue
5.356

@<SCITEGIC>MOL_PROPERTY
Bond
SciTegic.value.DoubleValue
0.092

@<SCITEGIC>MOL_PROPERTY
Angle
SciTegic.value.DoubleValue
2.417

@<SCITEGIC>MOL_PROPERTY
Pdih
SciTegic.value.DoubleValue
4.003

@<SCITEGIC>MOL_PROPERTY
Idih
SciTegic.value.DoubleValue
0.001

@<SCITEGIC>MOL_PROPERTY
Tether
SciTegic.value.DoubleValue
0.000

@<TRIPOS>MOLECULE
guest-s18_confgen4.mol2 : confsearch ligand conformer 676
          16          15           1
SMALL
USER_CHARGES
 
@<TRIPOS>ATOM
       1    C1      18.575242   17.244801   21.570207 C.2        1 MOL1         0.6075
       2    O1      17.380243   17.408183   21.717261 O.co2      1 MOL1        -0.6830
       3    O2      19.182051   16.291176   22.015904 O.co2      1 MOL1        -0.6830
       4    C2      19.349503   18.282436   20.761918 C.3        1 MOL1        -0.2050
       5    H1      18.765792   18.497325   19.858956 H          1 MOL1         0.0710
       6    H2      20.294037   17.834560   20.429731 H          1 MOL1         0.0710
       7    C3      19.623759   19.603361   21.526762 C.3        1 MOL1        -0.1947
       8    H3      20.056401   20.334894   20.830889 H          1 MOL1         0.0712
       9    H4      18.671725   20.025335   21.877751 H          1 MOL1         0.0712
      10    C4      20.582107   19.409652   22.721850 C.3        1 MOL1        -0.1921
      11    H5      21.528948   18.976192   22.371162 H          1 MOL1         0.0712
      12    H6      20.149823   18.694439   23.435520 H          1 MOL1         0.0712
      13    C5      20.864152   20.742413   23.443342 C.3        1 MOL1        -0.2936
      14    H7      21.329260   21.467288   22.762427 H          1 MOL1         0.0724
      15    H8      21.545553   20.587046   24.289906 H          1 MOL1         0.0724
      16    H9      19.936202   21.182575   23.831436 H          1 MOL1         0.0724
@<TRIPOS>BOND
    1     1     2    1
    2     1     3    2
    3     1     4    1
    4     4     5    1
    5     4     6    1
    6     4     7    1
    7     7     8    1
    8     7     9    1
    9     7    10    1
   10    10    11    1
   11    10    12    1
   12    10    13    1
   13    13    14    1
   14    13    15    1
   15    13    16    1
@<TRIPOS>SUBSTRUCTURE
       1 MOL1            1 RESIDUE      1      MOL     
@<SCITEGIC>MOL_PROPERTY
VConf Rank
SciTegic.value.IntegerValue
676

@<SCITEGIC>MOL_PROPERTY
Conf_Id
SciTegic.value.IntegerValue
20

@<SCITEGIC>MOL_PROPERTY
Delta U+W
SciTegic.value.DoubleValue
-0.010

@<SCITEGIC>MOL_PROPERTY
U+W
SciTegic.value.DoubleValue
-56.914

@<SCITEGIC>MOL_PROPERTY
Grad RMS
SciTegic.value.DoubleValue
0.000000

@<SCITEGIC>MOL_PROPERTY
U
SciTegic.value.DoubleValue
8.277

@<SCITEGIC>MOL_PROPERTY
W
SciTegic.value.DoubleValue
-65.191

@<SCITEGIC>MOL_PROPERTY
W(PB)
SciTegic.value.DoubleValue
-67.081

@<SCITEGIC>MOL_PROPERTY
W(SA)
SciTegic.value.DoubleValue
1.890

@<SCITEGIC>MOL_PROPERTY
Valence
SciTegic.value.DoubleValue
6.513

@<SCITEGIC>MOL_PROPERTY
Coulomb
SciTegic.value.DoubleValue
1.429

@<SCITEGIC>MOL_PROPERTY
VdW
SciTegic.value.DoubleValue
0.335

@<SCITEGIC>MOL_PROPERTY
VdW6
SciTegic.value.DoubleValue
-5.021

@<SCITEGIC>MOL_PROPERTY
VdW12
SciTegic.value.DoubleValue
5.356

@<SCITEGIC>MOL_PROPERTY
Bond
SciTegic.value.DoubleValue
0.092

@<SCITEGIC>MOL_PROPERTY
Angle
SciTegic.value.DoubleValue
2.417

@<SCITEGIC>MOL_PROPERTY
Pdih
SciTegic.value.DoubleValue
4.002

@<SCITEGIC>MOL_PROPERTY
Idih
SciTegic.value.DoubleValue
0.001

@<SCITEGIC>MOL_PROPERTY
Tether
SciTegic.value.DoubleValue
0.000

@<TRIPOS>MOLECULE
guest-s18_confgen4.mol2 : confsearch ligand conformer 677
          16          15           1
SMALL
USER_CHARGES
 
@<TRIPOS>ATOM
       1    C1      20.326016   21.008063   21.175408 C.2        1 MOL1         0.6075
       2    O1      19.506442   21.647055   20.545508 O.co2      1 MOL1        -0.6830
       3    O2      21.444201   20.764956   20.766920 O.co2      1 MOL1        -0.6830
       4    C2      19.939158   20.515205   22.567233 C.3        1 MOL1        -0.2050
       5    H1      19.534353   21.373814   23.115690 H          1 MOL1         0.0710
       6    H2      20.848245   20.209267   23.097525 H          1 MOL1         0.0710
       7    C3      18.892698   19.367338   22.567344 C.3        1 MOL1        -0.1947
       8    H3      18.615443   19.132879   23.603940 H          1 MOL1         0.0712
       9    H4      17.976760   19.724974   22.076929 H          1 MOL1         0.0712
      10    C4      19.364877   18.073781   21.861831 C.3        1 MOL1        -0.1921
      11    H5      19.612440   18.288323   20.812888 H          1 MOL1         0.0712
      12    H6      18.531193   17.358431   21.842551 H          1 MOL1         0.0712
      13    C5      20.574619   17.410055   22.553522 C.3        1 MOL1        -0.2936
      14    H7      21.468375   18.043432   22.486278 H          1 MOL1         0.0724
      15    H8      20.811280   16.450905   22.075105 H          1 MOL1         0.0724
      16    H9      20.365503   17.217270   23.613791 H          1 MOL1         0.0724
@<TRIPOS>BOND
    1     1     2    1
    2     1     3    2
    3     1     4    1
    4     4     5    1
    5     4     6    1
    6     4     7    1
    7     7     8    1
    8     7     9    1
    9     7    10    1
   10    10    11    1
   11    10    12    1
   12    10    13    1
   13    13    14    1
   14    13    15    1
   15    13    16    1
@<TRIPOS>SUBSTRUCTURE
       1 MOL1            1 RESIDUE      1      MOL     
@<SCITEGIC>MOL_PROPERTY
VConf Rank
SciTegic.value.IntegerValue
677

@<SCITEGIC>MOL_PROPERTY
Conf_Id
SciTegic.value.IntegerValue
37

@<SCITEGIC>MOL_PROPERTY
Delta U+W
SciTegic.value.DoubleValue
1.063

@<SCITEGIC>MOL_PROPERTY
U+W
SciTegic.value.DoubleValue
-55.841

@<SCITEGIC>MOL_PROPERTY
Grad RMS
SciTegic.value.DoubleValue
0.000000

@<SCITEGIC>MOL_PROPERTY
U
SciTegic.value.DoubleValue
9.719

@<SCITEGIC>MOL_PROPERTY
W
SciTegic.value.DoubleValue
-65.560

@<SCITEGIC>MOL_PROPERTY
W(PB)
SciTegic.value.DoubleValue
-67.414

@<SCITEGIC>MOL_PROPERTY
W(SA)
SciTegic.value.DoubleValue
1.854

@<SCITEGIC>MOL_PROPERTY
Valence
SciTegic.value.DoubleValue
7.002

@<SCITEGIC>MOL_PROPERTY
Coulomb
SciTegic.value.DoubleValue
2.402

@<SCITEGIC>MOL_PROPERTY
VdW
SciTegic.value.DoubleValue
0.314

@<SCITEGIC>MOL_PROPERTY
VdW6
SciTegic.value.DoubleValue
-5.861

@<SCITEGIC>MOL_PROPERTY
VdW12
SciTegic.value.DoubleValue
6.175

@<SCITEGIC>MOL_PROPERTY
Bond
SciTegic.value.DoubleValue
0.134

@<SCITEGIC>MOL_PROPERTY
Angle
SciTegic.value.DoubleValue
2.733

@<SCITEGIC>MOL_PROPERTY
Pdih
SciTegic.value.DoubleValue
4.133

@<SCITEGIC>MOL_PROPERTY
Idih
SciTegic.value.DoubleValue
0.002

@<SCITEGIC>MOL_PROPERTY
Tether
SciTegic.value.DoubleValue
0.000

@<TRIPOS>MOLECULE
guest-s18_confgen4.mol2 : confsearch ligand conformer 678
          16          15           1
SMALL
USER_CHARGES
 
@<TRIPOS>ATOM
       1    C1      20.089654   18.203908   20.237461 C.2        1 MOL1         0.6075
       2    O1      19.073167   17.767253   19.734597 O.co2      1 MOL1        -0.6830
       3    O2      20.890210   18.894746   19.639002 O.co2      1 MOL1        -0.6830
       4    C2      20.391356   17.834670   21.687422 C.3        1 MOL1        -0.2050
       5    H1      21.441867   18.065520   21.898099 H          1 MOL1         0.0710
       6    H2      20.289578   16.746550   21.774130 H          1 MOL1         0.0710
       7    C3      19.461249   18.520752   22.725146 C.3        1 MOL1        -0.1947
       8    H3      18.423324   18.225479   22.518073 H          1 MOL1         0.0712
       9    H4      19.696013   18.138132   23.727572 H          1 MOL1         0.0712
      10    C4      19.548533   20.065498   22.736716 C.3        1 MOL1        -0.1921
      11    H5      18.799140   20.455584   23.439120 H          1 MOL1         0.0712
      12    H6      19.281631   20.463074   21.747628 H          1 MOL1         0.0712
      13    C5      20.939278   20.593506   23.148392 C.3        1 MOL1        -0.2936
      14    H7      21.245522   20.182253   24.119037 H          1 MOL1         0.0724
      15    H8      20.924265   21.687746   23.233672 H          1 MOL1         0.0724
      16    H9      21.701513   20.329479   22.404231 H          1 MOL1         0.0724
@<TRIPOS>BOND
    1     1     2    1
    2     1     3    2
    3     1     4    1
    4     4     5    1
    5     4     6    1
    6     4     7    1
    7     7     8    1
    8     7     9    1
    9     7    10    1
   10    10    11    1
   11    10    12    1
   12    10    13    1
   13    13    14    1
   14    13    15    1
   15    13    16    1
@<TRIPOS>SUBSTRUCTURE
       1 MOL1            1 RESIDUE      1      MOL     
@<SCITEGIC>MOL_PROPERTY
VConf Rank
SciTegic.value.IntegerValue
678

@<SCITEGIC>MOL_PROPERTY
Conf_Id
SciTegic.value.IntegerValue
39

@<SCITEGIC>MOL_PROPERTY
Delta U+W
SciTegic.value.DoubleValue
1.129

@<SCITEGIC>MOL_PROPERTY
U+W
SciTegic.value.DoubleValue
-55.775

@<SCITEGIC>MOL_PROPERTY
Grad RMS
SciTegic.value.DoubleValue
0.000000

@<SCITEGIC>MOL_PROPERTY
U
SciTegic.value.DoubleValue
9.718

@<SCITEGIC>MOL_PROPERTY
W
SciTegic.value.DoubleValue
-65.493

@<SCITEGIC>MOL_PROPERTY
W(PB)
SciTegic.value.DoubleValue
-67.361

@<SCITEGIC>MOL_PROPERTY
W(SA)
SciTegic.value.DoubleValue
1.869

@<SCITEGIC>MOL_PROPERTY
Valence
SciTegic.value.DoubleValue
7.002

@<SCITEGIC>MOL_PROPERTY
Coulomb
SciTegic.value.DoubleValue
2.402

@<SCITEGIC>MOL_PROPERTY
VdW
SciTegic.value.DoubleValue
0.314

@<SCITEGIC>MOL_PROPERTY
VdW6
SciTegic.value.DoubleValue
-5.861

@<SCITEGIC>MOL_PROPERTY
VdW12
SciTegic.value.DoubleValue
6.175

@<SCITEGIC>MOL_PROPERTY
Bond
SciTegic.value.DoubleValue
0.134

@<SCITEGIC>MOL_PROPERTY
Angle
SciTegic.value.DoubleValue
2.734

@<SCITEGIC>MOL_PROPERTY
Pdih
SciTegic.value.DoubleValue
4.133

@<SCITEGIC>MOL_PROPERTY
Idih
SciTegic.value.DoubleValue
0.002

@<SCITEGIC>MOL_PROPERTY
Tether
SciTegic.value.DoubleValue
0.000

@<TRIPOS>MOLECULE
guest-s18_confgen4.mol2 : confsearch ligand conformer 679
          16          15           1
SMALL
USER_CHARGES
 
@<TRIPOS>ATOM
       1    C1      20.034492   17.100919   22.481763 C.2        1 MOL1         0.6075
       2    O1      21.036815   16.668907   21.947408 O.co2      1 MOL1        -0.6830
       3    O2      18.930983   16.616654   22.323929 O.co2      1 MOL1        -0.6830
       4    C2      20.185361   18.254642   23.471622 C.3        1 MOL1        -0.2050
       5    H1      21.247110   18.516786   23.554975 H          1 MOL1         0.0710
       6    H2      19.881500   17.864006   24.449794 H          1 MOL1         0.0710
       7    C3      19.342456   19.520715   23.149826 C.3        1 MOL1        -0.1947
       8    H3      18.321735   19.228897   22.866082 H          1 MOL1         0.0712
       9    H4      19.243985   20.106238   24.073903 H          1 MOL1         0.0712
      10    C4      19.950890   20.445339   22.067957 C.3        1 MOL1        -0.1921
      11    H5      20.971841   20.733179   22.354378 H          1 MOL1         0.0712
      12    H6      19.365792   21.374835   22.036485 H          1 MOL1         0.0712
      13    C5      19.963116   19.827499   20.654305 C.3        1 MOL1        -0.2936
      14    H7      20.666603   18.988381   20.591178 H          1 MOL1         0.0724
      15    H8      20.272834   20.574079   19.911700 H          1 MOL1         0.0724
      16    H9      18.965777   19.463743   20.374436 H          1 MOL1         0.0724
@<TRIPOS>BOND
    1     1     2    1
    2     1     3    2
    3     1     4    1
    4     4     5    1
    5     4     6    1
    6     4     7    1
    7     7     8    1
    8     7     9    1
    9     7    10    1
   10    10    11    1
   11    10    12    1
   12    10    13    1
   13    13    14    1
   14    13    15    1
   15    13    16    1
@<TRIPOS>SUBSTRUCTURE
       1 MOL1            1 RESIDUE      1      MOL     
@<SCITEGIC>MOL_PROPERTY
VConf Rank
SciTegic.value.IntegerValue
679

@<SCITEGIC>MOL_PROPERTY
Conf_Id
SciTegic.value.IntegerValue
47

@<SCITEGIC>MOL_PROPERTY
Delta U+W
SciTegic.value.DoubleValue
2.301

@<SCITEGIC>MOL_PROPERTY
U+W
SciTegic.value.DoubleValue
-54.603

@<SCITEGIC>MOL_PROPERTY
Grad RMS
SciTegic.value.DoubleValue
0.000000

@<SCITEGIC>MOL_PROPERTY
U
SciTegic.value.DoubleValue
11.258

@<SCITEGIC>MOL_PROPERTY
W
SciTegic.value.DoubleValue
-65.861

@<SCITEGIC>MOL_PROPERTY
W(PB)
SciTegic.value.DoubleValue
-67.702

@<SCITEGIC>MOL_PROPERTY
W(SA)
SciTegic.value.DoubleValue
1.841

@<SCITEGIC>MOL_PROPERTY
Valence
SciTegic.value.DoubleValue
8.169

@<SCITEGIC>MOL_PROPERTY
Coulomb
SciTegic.value.DoubleValue
2.735

@<SCITEGIC>MOL_PROPERTY
VdW
SciTegic.value.DoubleValue
0.355

@<SCITEGIC>MOL_PROPERTY
VdW6
SciTegic.value.DoubleValue
-6.245

@<SCITEGIC>MOL_PROPERTY
VdW12
SciTegic.value.DoubleValue
6.600

@<SCITEGIC>MOL_PROPERTY
Bond
SciTegic.value.DoubleValue
0.149

@<SCITEGIC>MOL_PROPERTY
Angle
SciTegic.value.DoubleValue
3.168

@<SCITEGIC>MOL_PROPERTY
Pdih
SciTegic.value.DoubleValue
4.840

@<SCITEGIC>MOL_PROPERTY
Idih
SciTegic.value.DoubleValue
0.011

@<SCITEGIC>MOL_PROPERTY
Tether
SciTegic.value.DoubleValue
0.000

@<TRIPOS>MOLECULE
guest-s18_confgen4.mol2 : confsearch ligand conformer 680
          16          15           1
SMALL
USER_CHARGES
 
@<TRIPOS>ATOM
       1    C1      19.973422   17.221702   22.894102 C.2        1 MOL1         0.6075
       2    O1      20.055878   16.493744   21.924341 O.co2      1 MOL1        -0.6830
       3    O2      19.205400   17.024165   23.814939 O.co2      1 MOL1        -0.6830
       4    C2      20.946215   18.394286   23.005390 C.3        1 MOL1        -0.2050
       5    H1      21.951989   17.959275   23.035941 H          1 MOL1         0.0710
       6    H2      20.792218   18.895505   23.968740 H          1 MOL1         0.0710
       7    C3      20.877941   19.426681   21.845008 C.3        1 MOL1        -0.1947
       8    H3      21.822085   19.987874   21.834622 H          1 MOL1         0.0712
       9    H4      20.826397   18.902949   20.880338 H          1 MOL1         0.0712
      10    C4      19.722041   20.449924   21.956498 C.3        1 MOL1        -0.1921
      11    H5      19.863128   21.218724   21.184270 H          1 MOL1         0.0712
      12    H6      19.776041   20.969965   22.922868 H          1 MOL1         0.0712
      13    C5      18.320599   19.829816   21.778416 C.3        1 MOL1        -0.2936
      14    H7      17.556502   20.616150   21.727390 H          1 MOL1         0.0724
      15    H8      18.063749   19.174835   22.619859 H          1 MOL1         0.0724
      16    H9      18.264548   19.241422   20.853224 H          1 MOL1         0.0724
@<TRIPOS>BOND
    1     1     2    1
    2     1     3    2
    3     1     4    1
    4     4     5    1
    5     4     6    1
    6     4     7    1
    7     7     8    1
    8     7     9    1
    9     7    10    1
   10    10    11    1
   11    10    12    1
   12    10    13    1
   13    13    14    1
   14    13    15    1
   15    13    16    1
@<TRIPOS>SUBSTRUCTURE
       1 MOL1            1 RESIDUE      1      MOL     
@<SCITEGIC>MOL_PROPERTY
VConf Rank
SciTegic.value.IntegerValue
680

@<SCITEGIC>MOL_PROPERTY
Conf_Id
SciTegic.value.IntegerValue
45

@<SCITEGIC>MOL_PROPERTY
Delta U+W
SciTegic.value.DoubleValue
2.303

@<SCITEGIC>MOL_PROPERTY
U+W
SciTegic.value.DoubleValue
-54.601

@<SCITEGIC>MOL_PROPERTY
Grad RMS
SciTegic.value.DoubleValue
0.000000

@<SCITEGIC>MOL_PROPERTY
U
SciTegic.value.DoubleValue
11.258

@<SCITEGIC>MOL_PROPERTY
W
SciTegic.value.DoubleValue
-65.860

@<SCITEGIC>MOL_PROPERTY
W(PB)
SciTegic.value.DoubleValue
-67.709

@<SCITEGIC>MOL_PROPERTY
W(SA)
SciTegic.value.DoubleValue
1.849

@<SCITEGIC>MOL_PROPERTY
Valence
SciTegic.value.DoubleValue
8.169

@<SCITEGIC>MOL_PROPERTY
Coulomb
SciTegic.value.DoubleValue
2.735

@<SCITEGIC>MOL_PROPERTY
VdW
SciTegic.value.DoubleValue
0.355

@<SCITEGIC>MOL_PROPERTY
VdW6
SciTegic.value.DoubleValue
-6.245

@<SCITEGIC>MOL_PROPERTY
VdW12
SciTegic.value.DoubleValue
6.600

@<SCITEGIC>MOL_PROPERTY
Bond
SciTegic.value.DoubleValue
0.149

@<SCITEGIC>MOL_PROPERTY
Angle
SciTegic.value.DoubleValue
3.168

@<SCITEGIC>MOL_PROPERTY
Pdih
SciTegic.value.DoubleValue
4.840

@<SCITEGIC>MOL_PROPERTY
Idih
SciTegic.value.DoubleValue
0.011

@<SCITEGIC>MOL_PROPERTY
Tether
SciTegic.value.DoubleValue
0.000

@<TRIPOS>MOLECULE
guest-s18_confgen4.mol2 : confsearch ligand conformer 681
          16          15           1
SMALL
USER_CHARGES
 
@<TRIPOS>ATOM
       1    C1      17.412073   19.891267   22.507010 C.2        1 MOL1         0.6075
       2    O1      17.672723   20.262307   23.634914 O.co2      1 MOL1        -0.6830
       3    O2      16.295593   19.949257   22.032221 O.co2      1 MOL1        -0.6830
       4    C2      18.519382   19.319835   21.619752 C.3        1 MOL1        -0.2050
       5    H1      18.555511   19.928611   20.708573 H          1 MOL1         0.0710
       6    H2      18.210650   18.311470   21.319670 H          1 MOL1         0.0710
       7    C3      19.927949   19.264710   22.268787 C.3        1 MOL1        -0.1947
       8    H3      20.229504   20.276863   22.572236 H          1 MOL1         0.0712
       9    H4      19.884288   18.658045   23.183948 H          1 MOL1         0.0712
      10    C4      20.980488   18.676383   21.305826 C.3        1 MOL1        -0.1921
      11    H5      21.026410   19.283223   20.390875 H          1 MOL1         0.0712
      12    H6      20.680996   17.663434   21.002945 H          1 MOL1         0.0712
      13    C5      22.377146   18.624249   21.956034 C.3        1 MOL1        -0.2936
      14    H7      22.715508   19.629174   22.240825 H          1 MOL1         0.0724
      15    H8      23.113157   18.203716   21.258481 H          1 MOL1         0.0724
      16    H9      22.367551   17.997435   22.857411 H          1 MOL1         0.0724
@<TRIPOS>BOND
    1     1     2    1
    2     1     3    2
    3     1     4    1
    4     4     5    1
    5     4     6    1
    6     4     7    1
    7     7     8    1
    8     7     9    1
    9     7    10    1
   10    10    11    1
   11    10    12    1
   12    10    13    1
   13    13    14    1
   14    13    15    1
   15    13    16    1
@<TRIPOS>SUBSTRUCTURE
       1 MOL1            1 RESIDUE      1      MOL     
@<SCITEGIC>MOL_PROPERTY
VConf Rank
SciTegic.value.IntegerValue
681

@<SCITEGIC>MOL_PROPERTY
Conf_Id
SciTegic.value.IntegerValue
0

@<SCITEGIC>MOL_PROPERTY
Delta U+W
SciTegic.value.DoubleValue
0.000

@<SCITEGIC>MOL_PROPERTY
U+W
SciTegic.value.DoubleValue
-56.904

@<SCITEGIC>MOL_PROPERTY
Grad RMS
SciTegic.value.DoubleValue
0.000000

@<SCITEGIC>MOL_PROPERTY
U
SciTegic.value.DoubleValue
7.329

@<SCITEGIC>MOL_PROPERTY
W
SciTegic.value.DoubleValue
-64.233

@<SCITEGIC>MOL_PROPERTY
W(PB)
SciTegic.value.DoubleValue
-66.148

@<SCITEGIC>MOL_PROPERTY
W(SA)
SciTegic.value.DoubleValue
1.915

@<SCITEGIC>MOL_PROPERTY
Valence
SciTegic.value.DoubleValue
6.755

@<SCITEGIC>MOL_PROPERTY
Coulomb
SciTegic.value.DoubleValue
-0.421

@<SCITEGIC>MOL_PROPERTY
VdW
SciTegic.value.DoubleValue
0.995

@<SCITEGIC>MOL_PROPERTY
VdW6
SciTegic.value.DoubleValue
-4.495

@<SCITEGIC>MOL_PROPERTY
VdW12
SciTegic.value.DoubleValue
5.490

@<SCITEGIC>MOL_PROPERTY
Bond
SciTegic.value.DoubleValue
0.106

@<SCITEGIC>MOL_PROPERTY
Angle
SciTegic.value.DoubleValue
2.715

@<SCITEGIC>MOL_PROPERTY
Pdih
SciTegic.value.DoubleValue
3.934

@<SCITEGIC>MOL_PROPERTY
Idih
SciTegic.value.DoubleValue
0.000

@<SCITEGIC>MOL_PROPERTY
Tether
SciTegic.value.DoubleValue
0.000

@<TRIPOS>MOLECULE
guest-s18_confgen4.mol2 : confsearch ligand conformer 682
          16          15           1
SMALL
USER_CHARGES
 
@<TRIPOS>ATOM
       1    C1      21.245687   17.376257   20.222346 C.2        1 MOL1         0.6075
       2    O1      20.517655   16.923336   19.361721 O.co2      1 MOL1        -0.6830
       3    O2      22.437225   17.556092   20.068274 O.co2      1 MOL1        -0.6830
       4    C2      20.626874   17.756683   21.562842 C.3        1 MOL1        -0.2050
       5    H1      21.378156   17.591197   22.344533 H          1 MOL1         0.0710
       6    H2      19.795520   17.069623   21.761964 H          1 MOL1         0.0710
       7    C3      20.129150   19.222545   21.602604 C.3        1 MOL1        -0.1947
       8    H3      20.969833   19.897303   21.389287 H          1 MOL1         0.0712
       9    H4      19.387170   19.375730   20.806644 H          1 MOL1         0.0712
      10    C4      19.508050   19.581197   22.968680 C.3        1 MOL1        -0.1921
      11    H5      20.249956   19.428790   23.764850 H          1 MOL1         0.0712
      12    H6      18.666902   18.907053   23.182076 H          1 MOL1         0.0712
      13    C5      19.014954   21.041305   23.000949 C.3        1 MOL1        -0.2936
      14    H7      18.248231   21.213992   22.234277 H          1 MOL1         0.0724
      15    H8      19.842975   21.739581   22.821331 H          1 MOL1         0.0724
      16    H9      18.576404   21.279907   23.978646 H          1 MOL1         0.0724
@<TRIPOS>BOND
    1     1     2    1
    2     1     3    2
    3     1     4    1
    4     4     5    1
    5     4     6    1
    6     4     7    1
    7     7     8    1
    8     7     9    1
    9     7    10    1
   10    10    11    1
   11    10    12    1
   12    10    13    1
   13    13    14    1
   14    13    15    1
   15    13    16    1
@<TRIPOS>SUBSTRUCTURE
       1 MOL1            1 RESIDUE      1      MOL     
@<SCITEGIC>MOL_PROPERTY
VConf Rank
SciTegic.value.IntegerValue
682

@<SCITEGIC>MOL_PROPERTY
Conf_Id
SciTegic.value.IntegerValue
22

@<SCITEGIC>MOL_PROPERTY
Delta U+W
SciTegic.value.DoubleValue
-1.185

@<SCITEGIC>MOL_PROPERTY
U+W
SciTegic.value.DoubleValue
-58.089

@<SCITEGIC>MOL_PROPERTY
Grad RMS
SciTegic.value.DoubleValue
0.000000

@<SCITEGIC>MOL_PROPERTY
U
SciTegic.value.DoubleValue
6.298

@<SCITEGIC>MOL_PROPERTY
W
SciTegic.value.DoubleValue
-64.387

@<SCITEGIC>MOL_PROPERTY
W(PB)
SciTegic.value.DoubleValue
-66.329

@<SCITEGIC>MOL_PROPERTY
W(SA)
SciTegic.value.DoubleValue
1.942

@<SCITEGIC>MOL_PROPERTY
Valence
SciTegic.value.DoubleValue
6.246

@<SCITEGIC>MOL_PROPERTY
Coulomb
SciTegic.value.DoubleValue
-0.408

@<SCITEGIC>MOL_PROPERTY
VdW
SciTegic.value.DoubleValue
0.460

@<SCITEGIC>MOL_PROPERTY
VdW6
SciTegic.value.DoubleValue
-4.207

@<SCITEGIC>MOL_PROPERTY
VdW12
SciTegic.value.DoubleValue
4.667

@<SCITEGIC>MOL_PROPERTY
Bond
SciTegic.value.DoubleValue
0.072

@<SCITEGIC>MOL_PROPERTY
Angle
SciTegic.value.DoubleValue
2.246

@<SCITEGIC>MOL_PROPERTY
Pdih
SciTegic.value.DoubleValue
3.928

@<SCITEGIC>MOL_PROPERTY
Idih
SciTegic.value.DoubleValue
0.001

@<SCITEGIC>MOL_PROPERTY
Tether
SciTegic.value.DoubleValue
0.000

@<TRIPOS>MOLECULE
guest-s18_confgen4.mol2 : confsearch ligand conformer 683
          16          15           1
SMALL
USER_CHARGES
 
@<TRIPOS>ATOM
       1    C1      20.630295   21.284873   20.692982 C.2        1 MOL1         0.6075
       2    O1      19.921869   22.271249   20.658505 O.co2      1 MOL1        -0.6830
       3    O2      21.495142   21.050270   19.872642 O.co2      1 MOL1        -0.6830
       4    C2      20.408105   20.277121   21.815319 C.3        1 MOL1        -0.2050
       5    H1      20.073672   20.825548   22.704109 H          1 MOL1         0.0710
       6    H2      21.377500   19.826563   22.056956 H          1 MOL1         0.0710
       7    C3      19.375428   19.181471   21.443669 C.3        1 MOL1        -0.1947
       8    H3      18.443777   19.668270   21.123542 H          1 MOL1         0.0712
       9    H4      19.741223   18.611326   20.578547 H          1 MOL1         0.0712
      10    C4      19.056529   18.215954   22.608353 C.3        1 MOL1        -0.1921
      11    H5      18.242937   17.545539   22.298642 H          1 MOL1         0.0712
      12    H6      18.679570   18.784753   23.469602 H          1 MOL1         0.0712
      13    C5      20.267892   17.362093   23.040157 C.3        1 MOL1        -0.2936
      14    H7      21.065883   17.984055   23.464605 H          1 MOL1         0.0724
      15    H8      20.680217   16.805906   22.188163 H          1 MOL1         0.0724
      16    H9      19.970677   16.634579   23.806574 H          1 MOL1         0.0724
@<TRIPOS>BOND
    1     1     2    1
    2     1     3    2
    3     1     4    1
    4     4     5    1
    5     4     6    1
    6     4     7    1
    7     7     8    1
    8     7     9    1
    9     7    10    1
   10    10    11    1
   11    10    12    1
   12    10    13    1
   13    13    14    1
   14    13    15    1
   15    13    16    1
@<TRIPOS>SUBSTRUCTURE
       1 MOL1            1 RESIDUE      1      MOL     
@<SCITEGIC>MOL_PROPERTY
VConf Rank
SciTegic.value.IntegerValue
683

@<SCITEGIC>MOL_PROPERTY
Conf_Id
SciTegic.value.IntegerValue
36

@<SCITEGIC>MOL_PROPERTY
Delta U+W
SciTegic.value.DoubleValue
-0.427

@<SCITEGIC>MOL_PROPERTY
U+W
SciTegic.value.DoubleValue
-57.331

@<SCITEGIC>MOL_PROPERTY
Grad RMS
SciTegic.value.DoubleValue
0.000000

@<SCITEGIC>MOL_PROPERTY
U
SciTegic.value.DoubleValue
7.263

@<SCITEGIC>MOL_PROPERTY
W
SciTegic.value.DoubleValue
-64.594

@<SCITEGIC>MOL_PROPERTY
W(PB)
SciTegic.value.DoubleValue
-66.513

@<SCITEGIC>MOL_PROPERTY
W(SA)
SciTegic.value.DoubleValue
1.920

@<SCITEGIC>MOL_PROPERTY
Valence
SciTegic.value.DoubleValue
6.734

@<SCITEGIC>MOL_PROPERTY
Coulomb
SciTegic.value.DoubleValue
-0.068

@<SCITEGIC>MOL_PROPERTY
VdW
SciTegic.value.DoubleValue
0.598

@<SCITEGIC>MOL_PROPERTY
VdW6
SciTegic.value.DoubleValue
-4.819

@<SCITEGIC>MOL_PROPERTY
VdW12
SciTegic.value.DoubleValue
5.417

@<SCITEGIC>MOL_PROPERTY
Bond
SciTegic.value.DoubleValue
0.107

@<SCITEGIC>MOL_PROPERTY
Angle
SciTegic.value.DoubleValue
2.469

@<SCITEGIC>MOL_PROPERTY
Pdih
SciTegic.value.DoubleValue
4.157

@<SCITEGIC>MOL_PROPERTY
Idih
SciTegic.value.DoubleValue
0.001

@<SCITEGIC>MOL_PROPERTY
Tether
SciTegic.value.DoubleValue
0.000

@<TRIPOS>MOLECULE
guest-s18_confgen4.mol2 : confsearch ligand conformer 684
          16          15           1
SMALL
USER_CHARGES
 
@<TRIPOS>ATOM
       1    C1      17.697737   17.895808   22.089233 C.2        1 MOL1         0.6075
       2    O1      17.005548   18.315148   22.995316 O.co2      1 MOL1        -0.6830
       3    O2      17.523125   16.819401   21.553646 O.co2      1 MOL1        -0.6830
       4    C2      18.860973   18.757960   21.611585 C.3        1 MOL1        -0.2050
       5    H1      18.567509   19.807840   21.724490 H          1 MOL1         0.0710
       6    H2      19.003956   18.573570   20.540080 H          1 MOL1         0.0710
       7    C3      20.176113   18.473796   22.382723 C.3        1 MOL1        -0.1947
       8    H3      20.033276   18.702721   23.447852 H          1 MOL1         0.0712
       9    H4      20.395508   17.398766   22.322680 H          1 MOL1         0.0712
      10    C4      21.390969   19.259816   21.838018 C.3        1 MOL1        -0.1921
      11    H5      21.541128   19.022020   20.775810 H          1 MOL1         0.0712
      12    H6      22.294891   18.921227   22.362986 H          1 MOL1         0.0712
      13    C5      21.256045   20.787485   22.013955 C.3        1 MOL1        -0.2936
      14    H7      20.430160   21.188809   21.413426 H          1 MOL1         0.0724
      15    H8      22.176075   21.293243   21.693388 H          1 MOL1         0.0724
      16    H9      21.076275   21.047527   23.065293 H          1 MOL1         0.0724
@<TRIPOS>BOND
    1     1     2    1
    2     1     3    2
    3     1     4    1
    4     4     5    1
    5     4     6    1
    6     4     7    1
    7     7     8    1
    8     7     9    1
    9     7    10    1
   10    10    11    1
   11    10    12    1
   12    10    13    1
   13    13    14    1
   14    13    15    1
   15    13    16    1
@<TRIPOS>SUBSTRUCTURE
       1 MOL1            1 RESIDUE      1      MOL     
@<SCITEGIC>MOL_PROPERTY
VConf Rank
SciTegic.value.IntegerValue
684

@<SCITEGIC>MOL_PROPERTY
Conf_Id
SciTegic.value.IntegerValue
17

@<SCITEGIC>MOL_PROPERTY
Delta U+W
SciTegic.value.DoubleValue
-0.432

@<SCITEGIC>MOL_PROPERTY
U+W
SciTegic.value.DoubleValue
-57.336

@<SCITEGIC>MOL_PROPERTY
Grad RMS
SciTegic.value.DoubleValue
0.000000

@<SCITEGIC>MOL_PROPERTY
U
SciTegic.value.DoubleValue
7.263

@<SCITEGIC>MOL_PROPERTY
W
SciTegic.value.DoubleValue
-64.599

@<SCITEGIC>MOL_PROPERTY
W(PB)
SciTegic.value.DoubleValue
-66.503

@<SCITEGIC>MOL_PROPERTY
W(SA)
SciTegic.value.DoubleValue
1.904

@<SCITEGIC>MOL_PROPERTY
Valence
SciTegic.value.DoubleValue
6.734

@<SCITEGIC>MOL_PROPERTY
Coulomb
SciTegic.value.DoubleValue
-0.068

@<SCITEGIC>MOL_PROPERTY
VdW
SciTegic.value.DoubleValue
0.598

@<SCITEGIC>MOL_PROPERTY
VdW6
SciTegic.value.DoubleValue
-4.819

@<SCITEGIC>MOL_PROPERTY
VdW12
SciTegic.value.DoubleValue
5.417

@<SCITEGIC>MOL_PROPERTY
Bond
SciTegic.value.DoubleValue
0.107

@<SCITEGIC>MOL_PROPERTY
Angle
SciTegic.value.DoubleValue
2.469

@<SCITEGIC>MOL_PROPERTY
Pdih
SciTegic.value.DoubleValue
4.157

@<SCITEGIC>MOL_PROPERTY
Idih
SciTegic.value.DoubleValue
0.001

@<SCITEGIC>MOL_PROPERTY
Tether
SciTegic.value.DoubleValue
0.000

@<TRIPOS>MOLECULE
guest-s18_confgen4.mol2 : confsearch ligand conformer 685
          16          15           1
SMALL
USER_CHARGES
 
@<TRIPOS>ATOM
       1    C1      19.223118   17.536558   23.579079 C.2        1 MOL1         0.6075
       2    O1      18.014388   17.437446   23.504981 O.co2      1 MOL1        -0.6830
       3    O2      19.976763   16.583636   23.564148 O.co2      1 MOL1        -0.6830
       4    C2      19.823392   18.932455   23.722725 C.3        1 MOL1        -0.2050
       5    H1      20.841584   18.837124   24.119310 H          1 MOL1         0.0710
       6    H2      19.236813   19.465582   24.480310 H          1 MOL1         0.0710
       7    C3      19.836572   19.753304   22.407025 C.3        1 MOL1        -0.1947
       8    H3      18.815084   19.816101   22.006722 H          1 MOL1         0.0712
       9    H4      20.151965   20.781278   22.631425 H          1 MOL1         0.0712
      10    C4      20.779632   19.152955   21.341942 C.3        1 MOL1        -0.1921
      11    H5      20.461161   18.130727   21.094254 H          1 MOL1         0.0712
      12    H6      21.798030   19.079270   21.747914 H          1 MOL1         0.0712
      13    C5      20.799697   20.005855   20.058002 C.3        1 MOL1        -0.2936
      14    H7      19.797638   20.070197   19.613943 H          1 MOL1         0.0724
      15    H8      21.473504   19.565227   19.311712 H          1 MOL1         0.0724
      16    H9      21.147760   21.025567   20.268847 H          1 MOL1         0.0724
@<TRIPOS>BOND
    1     1     2    1
    2     1     3    2
    3     1     4    1
    4     4     5    1
    5     4     6    1
    6     4     7    1
    7     7     8    1
    8     7     9    1
    9     7    10    1
   10    10    11    1
   11    10    12    1
   12    10    13    1
   13    13    14    1
   14    13    15    1
   15    13    16    1
@<TRIPOS>SUBSTRUCTURE
       1 MOL1            1 RESIDUE      1      MOL     
@<SCITEGIC>MOL_PROPERTY
VConf Rank
SciTegic.value.IntegerValue
685

@<SCITEGIC>MOL_PROPERTY
Conf_Id
SciTegic.value.IntegerValue
19

@<SCITEGIC>MOL_PROPERTY
Delta U+W
SciTegic.value.DoubleValue
0.048

@<SCITEGIC>MOL_PROPERTY
U+W
SciTegic.value.DoubleValue
-56.856

@<SCITEGIC>MOL_PROPERTY
Grad RMS
SciTegic.value.DoubleValue
0.000000

@<SCITEGIC>MOL_PROPERTY
U
SciTegic.value.DoubleValue
8.276

@<SCITEGIC>MOL_PROPERTY
W
SciTegic.value.DoubleValue
-65.132

@<SCITEGIC>MOL_PROPERTY
W(PB)
SciTegic.value.DoubleValue
-67.031

@<SCITEGIC>MOL_PROPERTY
W(SA)
SciTegic.value.DoubleValue
1.899

@<SCITEGIC>MOL_PROPERTY
Valence
SciTegic.value.DoubleValue
6.513

@<SCITEGIC>MOL_PROPERTY
Coulomb
SciTegic.value.DoubleValue
1.428

@<SCITEGIC>MOL_PROPERTY
VdW
SciTegic.value.DoubleValue
0.335

@<SCITEGIC>MOL_PROPERTY
VdW6
SciTegic.value.DoubleValue
-5.021

@<SCITEGIC>MOL_PROPERTY
VdW12
SciTegic.value.DoubleValue
5.356

@<SCITEGIC>MOL_PROPERTY
Bond
SciTegic.value.DoubleValue
0.092

@<SCITEGIC>MOL_PROPERTY
Angle
SciTegic.value.DoubleValue
2.417

@<SCITEGIC>MOL_PROPERTY
Pdih
SciTegic.value.DoubleValue
4.003

@<SCITEGIC>MOL_PROPERTY
Idih
SciTegic.value.DoubleValue
0.001

@<SCITEGIC>MOL_PROPERTY
Tether
SciTegic.value.DoubleValue
0.000

@<TRIPOS>MOLECULE
guest-s18_confgen4.mol2 : confsearch ligand conformer 686
          16          15           1
SMALL
USER_CHARGES
 
@<TRIPOS>ATOM
       1    C1      19.556228   20.576000   20.216824 C.2        1 MOL1         0.6075
       2    O1      18.801508   21.504578   20.427736 O.co2      1 MOL1        -0.6830
       3    O2      19.470671   19.848528   19.247430 O.co2      1 MOL1        -0.6830
       4    C2      20.685952   20.326271   21.212242 C.3        1 MOL1        -0.2050
       5    H1      21.146557   21.295830   21.435924 H          1 MOL1         0.0710
       6    H2      21.454797   19.715142   20.723894 H          1 MOL1         0.0710
       7    C3      20.227846   19.654576   22.532852 C.3        1 MOL1        -0.1947
       8    H3      21.070725   19.641425   23.237083 H          1 MOL1         0.0712
       9    H4      19.438256   20.262666   22.995882 H          1 MOL1         0.0712
      10    C4      19.720018   18.211958   22.320356 C.3        1 MOL1        -0.1921
      11    H5      20.506217   17.608381   21.846051 H          1 MOL1         0.0712
      12    H6      18.862805   18.214927   21.632679 H          1 MOL1         0.0712
      13    C5      19.303126   17.556479   23.651859 C.3        1 MOL1        -0.2936
      14    H7      20.150399   17.508058   24.348420 H          1 MOL1         0.0724
      15    H8      18.944152   16.532870   23.483101 H          1 MOL1         0.0724
      16    H9      18.495543   18.123985   24.132689 H          1 MOL1         0.0724
@<TRIPOS>BOND
    1     1     2    1
    2     1     3    2
    3     1     4    1
    4     4     5    1
    5     4     6    1
    6     4     7    1
    7     7     8    1
    8     7     9    1
    9     7    10    1
   10    10    11    1
   11    10    12    1
   12    10    13    1
   13    13    14    1
   14    13    15    1
   15    13    16    1
@<TRIPOS>SUBSTRUCTURE
       1 MOL1            1 RESIDUE      1      MOL     
@<SCITEGIC>MOL_PROPERTY
VConf Rank
SciTegic.value.IntegerValue
686

@<SCITEGIC>MOL_PROPERTY
Conf_Id
SciTegic.value.IntegerValue
20

@<SCITEGIC>MOL_PROPERTY
Delta U+W
SciTegic.value.DoubleValue
-0.010

@<SCITEGIC>MOL_PROPERTY
U+W
SciTegic.value.DoubleValue
-56.914

@<SCITEGIC>MOL_PROPERTY
Grad RMS
SciTegic.value.DoubleValue
0.000000

@<SCITEGIC>MOL_PROPERTY
U
SciTegic.value.DoubleValue
8.277

@<SCITEGIC>MOL_PROPERTY
W
SciTegic.value.DoubleValue
-65.191

@<SCITEGIC>MOL_PROPERTY
W(PB)
SciTegic.value.DoubleValue
-67.081

@<SCITEGIC>MOL_PROPERTY
W(SA)
SciTegic.value.DoubleValue
1.890

@<SCITEGIC>MOL_PROPERTY
Valence
SciTegic.value.DoubleValue
6.513

@<SCITEGIC>MOL_PROPERTY
Coulomb
SciTegic.value.DoubleValue
1.429

@<SCITEGIC>MOL_PROPERTY
VdW
SciTegic.value.DoubleValue
0.335

@<SCITEGIC>MOL_PROPERTY
VdW6
SciTegic.value.DoubleValue
-5.021

@<SCITEGIC>MOL_PROPERTY
VdW12
SciTegic.value.DoubleValue
5.356

@<SCITEGIC>MOL_PROPERTY
Bond
SciTegic.value.DoubleValue
0.092

@<SCITEGIC>MOL_PROPERTY
Angle
SciTegic.value.DoubleValue
2.417

@<SCITEGIC>MOL_PROPERTY
Pdih
SciTegic.value.DoubleValue
4.002

@<SCITEGIC>MOL_PROPERTY
Idih
SciTegic.value.DoubleValue
0.001

@<SCITEGIC>MOL_PROPERTY
Tether
SciTegic.value.DoubleValue
0.000

@<TRIPOS>MOLECULE
guest-s18_confgen4.mol2 : confsearch ligand conformer 687
          16          15           1
SMALL
USER_CHARGES
 
@<TRIPOS>ATOM
       1    C1      18.738971   20.601088   21.040390 C.2        1 MOL1         0.6075
       2    O1      18.258033   20.360772   19.950559 O.co2      1 MOL1        -0.6830
       3    O2      19.361860   21.614139   21.289463 O.co2      1 MOL1        -0.6830
       4    C2      18.518121   19.590894   22.163100 C.3        1 MOL1        -0.2050
       5    H1      17.444991   19.368925   22.194769 H          1 MOL1         0.0710
       6    H2      18.764429   20.067487   23.118840 H          1 MOL1         0.0710
       7    C3      19.310690   18.266092   21.991599 C.3        1 MOL1        -0.1947
       8    H3      19.031119   17.572465   22.796020 H          1 MOL1         0.0712
       9    H4      19.000685   17.788715   21.051725 H          1 MOL1         0.0712
      10    C4      20.848150   18.439542   21.980633 C.3        1 MOL1        -0.1921
      11    H5      21.144106   19.104686   21.157474 H          1 MOL1         0.0712
      12    H6      21.311262   17.465214   21.772447 H          1 MOL1         0.0712
      13    C5      21.408885   18.983084   23.312017 C.3        1 MOL1        -0.2936
      14    H7      21.066910   20.009114   23.498574 H          1 MOL1         0.0724
      15    H8      22.506179   18.998556   23.288203 H          1 MOL1         0.0724
      16    H9      21.097210   18.354975   24.156649 H          1 MOL1         0.0724
@<TRIPOS>BOND
    1     1     2    1
    2     1     3    2
    3     1     4    1
    4     4     5    1
    5     4     6    1
    6     4     7    1
    7     7     8    1
    8     7     9    1
    9     7    10    1
   10    10    11    1
   11    10    12    1
   12    10    13    1
   13    13    14    1
   14    13    15    1
   15    13    16    1
@<TRIPOS>SUBSTRUCTURE
       1 MOL1            1 RESIDUE      1      MOL     
@<SCITEGIC>MOL_PROPERTY
VConf Rank
SciTegic.value.IntegerValue
687

@<SCITEGIC>MOL_PROPERTY
Conf_Id
SciTegic.value.IntegerValue
37

@<SCITEGIC>MOL_PROPERTY
Delta U+W
SciTegic.value.DoubleValue
1.063

@<SCITEGIC>MOL_PROPERTY
U+W
SciTegic.value.DoubleValue
-55.841

@<SCITEGIC>MOL_PROPERTY
Grad RMS
SciTegic.value.DoubleValue
0.000000

@<SCITEGIC>MOL_PROPERTY
U
SciTegic.value.DoubleValue
9.719

@<SCITEGIC>MOL_PROPERTY
W
SciTegic.value.DoubleValue
-65.560

@<SCITEGIC>MOL_PROPERTY
W(PB)
SciTegic.value.DoubleValue
-67.414

@<SCITEGIC>MOL_PROPERTY
W(SA)
SciTegic.value.DoubleValue
1.854

@<SCITEGIC>MOL_PROPERTY
Valence
SciTegic.value.DoubleValue
7.002

@<SCITEGIC>MOL_PROPERTY
Coulomb
SciTegic.value.DoubleValue
2.402

@<SCITEGIC>MOL_PROPERTY
VdW
SciTegic.value.DoubleValue
0.314

@<SCITEGIC>MOL_PROPERTY
VdW6
SciTegic.value.DoubleValue
-5.861

@<SCITEGIC>MOL_PROPERTY
VdW12
SciTegic.value.DoubleValue
6.175

@<SCITEGIC>MOL_PROPERTY
Bond
SciTegic.value.DoubleValue
0.134

@<SCITEGIC>MOL_PROPERTY
Angle
SciTegic.value.DoubleValue
2.733

@<SCITEGIC>MOL_PROPERTY
Pdih
SciTegic.value.DoubleValue
4.133

@<SCITEGIC>MOL_PROPERTY
Idih
SciTegic.value.DoubleValue
0.002

@<SCITEGIC>MOL_PROPERTY
Tether
SciTegic.value.DoubleValue
0.000

@<TRIPOS>MOLECULE
guest-s18_confgen4.mol2 : confsearch ligand conformer 688
          16          15           1
SMALL
USER_CHARGES
 
@<TRIPOS>ATOM
       1    C1      18.241029   18.284599   22.718396 C.2        1 MOL1         0.6075
       2    O1      17.541898   18.732073   23.605960 O.co2      1 MOL1        -0.6830
       3    O2      17.816052   17.970724   21.624240 O.co2      1 MOL1        -0.6830
       4    C2      19.724864   18.074349   23.007836 C.3        1 MOL1        -0.2050
       5    H1      20.146806   17.427105   22.230475 H          1 MOL1         0.0710
       6    H2      19.797069   17.516394   23.948768 H          1 MOL1         0.0710
       7    C3      20.542010   19.389836   23.128021 C.3        1 MOL1        -0.1947
       8    H3      20.126703   19.989232   23.949969 H          1 MOL1         0.0712
       9    H4      21.574270   19.147661   23.414656 H          1 MOL1         0.0712
      10    C4      20.559393   20.249617   21.841760 C.3        1 MOL1        -0.1921
      11    H5      21.088247   21.189199   22.053012 H          1 MOL1         0.0712
      12    H6      19.533407   20.528164   21.563621 H          1 MOL1         0.0712
      13    C5      21.246142   19.548689   20.650325 C.3        1 MOL1        -0.2936
      14    H7      22.262344   19.228034   20.914106 H          1 MOL1         0.0724
      15    H8      21.317946   20.230952   19.793457 H          1 MOL1         0.0724
      16    H9      20.678119   18.667522   20.325700 H          1 MOL1         0.0724
@<TRIPOS>BOND
    1     1     2    1
    2     1     3    2
    3     1     4    1
    4     4     5    1
    5     4     6    1
    6     4     7    1
    7     7     8    1
    8     7     9    1
    9     7    10    1
   10    10    11    1
   11    10    12    1
   12    10    13    1
   13    13    14    1
   14    13    15    1
   15    13    16    1
@<TRIPOS>SUBSTRUCTURE
       1 MOL1            1 RESIDUE      1      MOL     
@<SCITEGIC>MOL_PROPERTY
VConf Rank
SciTegic.value.IntegerValue
688

@<SCITEGIC>MOL_PROPERTY
Conf_Id
SciTegic.value.IntegerValue
39

@<SCITEGIC>MOL_PROPERTY
Delta U+W
SciTegic.value.DoubleValue
1.129

@<SCITEGIC>MOL_PROPERTY
U+W
SciTegic.value.DoubleValue
-55.775

@<SCITEGIC>MOL_PROPERTY
Grad RMS
SciTegic.value.DoubleValue
0.000000

@<SCITEGIC>MOL_PROPERTY
U
SciTegic.value.DoubleValue
9.718

@<SCITEGIC>MOL_PROPERTY
W
SciTegic.value.DoubleValue
-65.493

@<SCITEGIC>MOL_PROPERTY
W(PB)
SciTegic.value.DoubleValue
-67.361

@<SCITEGIC>MOL_PROPERTY
W(SA)
SciTegic.value.DoubleValue
1.869

@<SCITEGIC>MOL_PROPERTY
Valence
SciTegic.value.DoubleValue
7.002

@<SCITEGIC>MOL_PROPERTY
Coulomb
SciTegic.value.DoubleValue
2.402

@<SCITEGIC>MOL_PROPERTY
VdW
SciTegic.value.DoubleValue
0.314

@<SCITEGIC>MOL_PROPERTY
VdW6
SciTegic.value.DoubleValue
-5.861

@<SCITEGIC>MOL_PROPERTY
VdW12
SciTegic.value.DoubleValue
6.175

@<SCITEGIC>MOL_PROPERTY
Bond
SciTegic.value.DoubleValue
0.134

@<SCITEGIC>MOL_PROPERTY
Angle
SciTegic.value.DoubleValue
2.734

@<SCITEGIC>MOL_PROPERTY
Pdih
SciTegic.value.DoubleValue
4.133

@<SCITEGIC>MOL_PROPERTY
Idih
SciTegic.value.DoubleValue
0.002

@<SCITEGIC>MOL_PROPERTY
Tether
SciTegic.value.DoubleValue
0.000

@<TRIPOS>MOLECULE
guest-s18_confgen4.mol2 : confsearch ligand conformer 689
          16          15           1
SMALL
USER_CHARGES
 
@<TRIPOS>ATOM
       1    C1      21.515360   17.934660   22.505605 C.2        1 MOL1         0.6075
       2    O1      22.134233   18.247662   23.503526 O.co2      1 MOL1        -0.6830
       3    O2      22.036427   17.769302   21.420108 O.co2      1 MOL1        -0.6830
       4    C2      20.021433   17.647241   22.644267 C.3        1 MOL1        -0.2050
       5    H1      19.731200   17.766182   23.695265 H          1 MOL1         0.0710
       6    H2      19.887015   16.586973   22.400313 H          1 MOL1         0.0710
       7    C3      19.093768   18.496824   21.730686 C.3        1 MOL1        -0.1947
       8    H3      19.507481   18.540130   20.713579 H          1 MOL1         0.0712
       9    H4      18.131862   17.973667   21.644113 H          1 MOL1         0.0712
      10    C4      18.808127   19.926807   22.249454 C.3        1 MOL1        -0.1921
      11    H5      18.396559   19.879238   23.267089 H          1 MOL1         0.0712
      12    H6      18.025801   20.374389   21.621021 H          1 MOL1         0.0712
      13    C5      20.040413   20.854930   22.230846 C.3        1 MOL1        -0.2936
      14    H7      20.788175   20.540926   22.969257 H          1 MOL1         0.0724
      15    H8      19.749035   21.884847   22.474033 H          1 MOL1         0.0724
      16    H9      20.514400   20.861041   21.240579 H          1 MOL1         0.0724
@<TRIPOS>BOND
    1     1     2    1
    2     1     3    2
    3     1     4    1
    4     4     5    1
    5     4     6    1
    6     4     7    1
    7     7     8    1
    8     7     9    1
    9     7    10    1
   10    10    11    1
   11    10    12    1
   12    10    13    1
   13    13    14    1
   14    13    15    1
   15    13    16    1
@<TRIPOS>SUBSTRUCTURE
       1 MOL1            1 RESIDUE      1      MOL     
@<SCITEGIC>MOL_PROPERTY
VConf Rank
SciTegic.value.IntegerValue
689

@<SCITEGIC>MOL_PROPERTY
Conf_Id
SciTegic.value.IntegerValue
47

@<SCITEGIC>MOL_PROPERTY
Delta U+W
SciTegic.value.DoubleValue
2.301

@<SCITEGIC>MOL_PROPERTY
U+W
SciTegic.value.DoubleValue
-54.603

@<SCITEGIC>MOL_PROPERTY
Grad RMS
SciTegic.value.DoubleValue
0.000000

@<SCITEGIC>MOL_PROPERTY
U
SciTegic.value.DoubleValue
11.258

@<SCITEGIC>MOL_PROPERTY
W
SciTegic.value.DoubleValue
-65.861

@<SCITEGIC>MOL_PROPERTY
W(PB)
SciTegic.value.DoubleValue
-67.702

@<SCITEGIC>MOL_PROPERTY
W(SA)
SciTegic.value.DoubleValue
1.841

@<SCITEGIC>MOL_PROPERTY
Valence
SciTegic.value.DoubleValue
8.169

@<SCITEGIC>MOL_PROPERTY
Coulomb
SciTegic.value.DoubleValue
2.735

@<SCITEGIC>MOL_PROPERTY
VdW
SciTegic.value.DoubleValue
0.355

@<SCITEGIC>MOL_PROPERTY
VdW6
SciTegic.value.DoubleValue
-6.245

@<SCITEGIC>MOL_PROPERTY
VdW12
SciTegic.value.DoubleValue
6.600

@<SCITEGIC>MOL_PROPERTY
Bond
SciTegic.value.DoubleValue
0.149

@<SCITEGIC>MOL_PROPERTY
Angle
SciTegic.value.DoubleValue
3.168

@<SCITEGIC>MOL_PROPERTY
Pdih
SciTegic.value.DoubleValue
4.840

@<SCITEGIC>MOL_PROPERTY
Idih
SciTegic.value.DoubleValue
0.011

@<SCITEGIC>MOL_PROPERTY
Tether
SciTegic.value.DoubleValue
0.000

@<TRIPOS>MOLECULE
guest-s18_confgen4.mol2 : confsearch ligand conformer 690
          16          15           1
SMALL
USER_CHARGES
 
@<TRIPOS>ATOM
       1    C1      21.293057   19.063400   20.861299 C.2        1 MOL1         0.6075
       2    O1      20.802246   19.401482   19.802071 O.co2      1 MOL1        -0.6830
       3    O2      22.003114   18.085241   20.987164 O.co2      1 MOL1        -0.6830
       4    C2      21.081470   19.962242   22.078254 C.3        1 MOL1        -0.2050
       5    H1      21.531806   20.930199   21.829247 H          1 MOL1         0.0710
       6    H2      21.652664   19.559029   22.923319 H          1 MOL1         0.0710
       7    C3      19.598903   20.186166   22.489158 C.3        1 MOL1        -0.1947
       8    H3      19.551163   21.095056   23.104052 H          1 MOL1         0.0712
       9    H4      18.990116   20.391426   21.597650 H          1 MOL1         0.0712
      10    C4      18.972213   19.030452   23.305949 C.3        1 MOL1        -0.1921
      11    H5      17.991033   19.358797   23.675771 H          1 MOL1         0.0712
      12    H6      19.584689   18.827163   24.195206 H          1 MOL1         0.0712
      13    C5      18.780081   17.729264   22.499551 C.3        1 MOL1        -0.2936
      14    H7      18.208590   16.996457   23.083642 H          1 MOL1         0.0724
      15    H8      19.743519   17.270032   22.246778 H          1 MOL1         0.0724
      16    H9      18.233491   17.920609   21.566837 H          1 MOL1         0.0724
@<TRIPOS>BOND
    1     1     2    1
    2     1     3    2
    3     1     4    1
    4     4     5    1
    5     4     6    1
    6     4     7    1
    7     7     8    1
    8     7     9    1
    9     7    10    1
   10    10    11    1
   11    10    12    1
   12    10    13    1
   13    13    14    1
   14    13    15    1
   15    13    16    1
@<TRIPOS>SUBSTRUCTURE
       1 MOL1            1 RESIDUE      1      MOL     
@<SCITEGIC>MOL_PROPERTY
VConf Rank
SciTegic.value.IntegerValue
690

@<SCITEGIC>MOL_PROPERTY
Conf_Id
SciTegic.value.IntegerValue
45

@<SCITEGIC>MOL_PROPERTY
Delta U+W
SciTegic.value.DoubleValue
2.303

@<SCITEGIC>MOL_PROPERTY
U+W
SciTegic.value.DoubleValue
-54.601

@<SCITEGIC>MOL_PROPERTY
Grad RMS
SciTegic.value.DoubleValue
0.000000

@<SCITEGIC>MOL_PROPERTY
U
SciTegic.value.DoubleValue
11.258

@<SCITEGIC>MOL_PROPERTY
W
SciTegic.value.DoubleValue
-65.860

@<SCITEGIC>MOL_PROPERTY
W(PB)
SciTegic.value.DoubleValue
-67.709

@<SCITEGIC>MOL_PROPERTY
W(SA)
SciTegic.value.DoubleValue
1.849

@<SCITEGIC>MOL_PROPERTY
Valence
SciTegic.value.DoubleValue
8.169

@<SCITEGIC>MOL_PROPERTY
Coulomb
SciTegic.value.DoubleValue
2.735

@<SCITEGIC>MOL_PROPERTY
VdW
SciTegic.value.DoubleValue
0.355

@<SCITEGIC>MOL_PROPERTY
VdW6
SciTegic.value.DoubleValue
-6.245

@<SCITEGIC>MOL_PROPERTY
VdW12
SciTegic.value.DoubleValue
6.600

@<SCITEGIC>MOL_PROPERTY
Bond
SciTegic.value.DoubleValue
0.149

@<SCITEGIC>MOL_PROPERTY
Angle
SciTegic.value.DoubleValue
3.168

@<SCITEGIC>MOL_PROPERTY
Pdih
SciTegic.value.DoubleValue
4.840

@<SCITEGIC>MOL_PROPERTY
Idih
SciTegic.value.DoubleValue
0.011

@<SCITEGIC>MOL_PROPERTY
Tether
SciTegic.value.DoubleValue
0.000

@<TRIPOS>MOLECULE
guest-s18_confgen4.mol2 : confsearch ligand conformer 691
          16          15           1
SMALL
USER_CHARGES
 
@<TRIPOS>ATOM
       1    C1      20.580105   16.830859   23.353502 C.2        1 MOL1         0.6075
       2    O1      21.783745   16.996379   23.313114 O.co2      1 MOL1        -0.6830
       3    O2      20.060318   15.881770   23.905194 O.co2      1 MOL1        -0.6830
       4    C2      19.650259   17.846892   22.687951 C.3        1 MOL1        -0.2050
       5    H1      18.966561   18.219521   23.459874 H          1 MOL1         0.0710
       6    H2      19.041586   17.303027   21.955905 H          1 MOL1         0.0710
       7    C3      20.359010   19.041254   21.995476 C.3        1 MOL1        -0.1947
       8    H3      20.971467   19.578963   22.732521 H          1 MOL1         0.0712
       9    H4      21.046552   18.661524   21.226997 H          1 MOL1         0.0712
      10    C4      19.347917   20.013640   21.352504 C.3        1 MOL1        -0.1921
      11    H5      18.660799   20.395507   22.120324 H          1 MOL1         0.0712
      12    H6      18.735921   19.477527   20.613895 H          1 MOL1         0.0712
      13    C5      20.057764   21.197538   20.666470 C.3        1 MOL1        -0.2936
      14    H7      20.653120   21.770745   21.389280 H          1 MOL1         0.0724
      15    H8      19.325005   21.878837   20.214765 H          1 MOL1         0.0724
      16    H9      20.728798   20.845998   19.871735 H          1 MOL1         0.0724
@<TRIPOS>BOND
    1     1     2    1
    2     1     3    2
    3     1     4    1
    4     4     5    1
    5     4     6    1
    6     4     7    1
    7     7     8    1
    8     7     9    1
    9     7    10    1
   10    10    11    1
   11    10    12    1
   12    10    13    1
   13    13    14    1
   14    13    15    1
   15    13    16    1
@<TRIPOS>SUBSTRUCTURE
       1 MOL1            1 RESIDUE      1      MOL     
@<SCITEGIC>MOL_PROPERTY
VConf Rank
SciTegic.value.IntegerValue
691

@<SCITEGIC>MOL_PROPERTY
Conf_Id
SciTegic.value.IntegerValue
0

@<SCITEGIC>MOL_PROPERTY
Delta U+W
SciTegic.value.DoubleValue
0.000

@<SCITEGIC>MOL_PROPERTY
U+W
SciTegic.value.DoubleValue
-56.904

@<SCITEGIC>MOL_PROPERTY
Grad RMS
SciTegic.value.DoubleValue
0.000000

@<SCITEGIC>MOL_PROPERTY
U
SciTegic.value.DoubleValue
7.329

@<SCITEGIC>MOL_PROPERTY
W
SciTegic.value.DoubleValue
-64.233

@<SCITEGIC>MOL_PROPERTY
W(PB)
SciTegic.value.DoubleValue
-66.148

@<SCITEGIC>MOL_PROPERTY
W(SA)
SciTegic.value.DoubleValue
1.915

@<SCITEGIC>MOL_PROPERTY
Valence
SciTegic.value.DoubleValue
6.755

@<SCITEGIC>MOL_PROPERTY
Coulomb
SciTegic.value.DoubleValue
-0.421

@<SCITEGIC>MOL_PROPERTY
VdW
SciTegic.value.DoubleValue
0.995

@<SCITEGIC>MOL_PROPERTY
VdW6
SciTegic.value.DoubleValue
-4.495

@<SCITEGIC>MOL_PROPERTY
VdW12
SciTegic.value.DoubleValue
5.490

@<SCITEGIC>MOL_PROPERTY
Bond
SciTegic.value.DoubleValue
0.106

@<SCITEGIC>MOL_PROPERTY
Angle
SciTegic.value.DoubleValue
2.715

@<SCITEGIC>MOL_PROPERTY
Pdih
SciTegic.value.DoubleValue
3.934

@<SCITEGIC>MOL_PROPERTY
Idih
SciTegic.value.DoubleValue
0.000

@<SCITEGIC>MOL_PROPERTY
Tether
SciTegic.value.DoubleValue
0.000

@<TRIPOS>MOLECULE
guest-s18_confgen4.mol2 : confsearch ligand conformer 692
          16          15           1
SMALL
USER_CHARGES
 
@<TRIPOS>ATOM
       1    C1      22.365932   17.771814   21.473509 C.2        1 MOL1         0.6075
       2    O1      22.237990   16.572882   21.325066 O.co2      1 MOL1        -0.6830
       3    O2      23.234436   18.426957   20.932832 O.co2      1 MOL1        -0.6830
       4    C2      21.371141   18.496775   22.373179 C.3        1 MOL1        -0.2050
       5    H1      21.891042   19.337213   22.848802 H          1 MOL1         0.0710
       6    H2      21.069438   17.808614   23.172091 H          1 MOL1         0.0710
       7    C3      20.124791   19.004679   21.607212 C.3        1 MOL1        -0.1947
       8    H3      20.443988   19.682424   20.803268 H          1 MOL1         0.0712
       9    H4      19.622378   18.153763   21.126509 H          1 MOL1         0.0712
      10    C4      19.135268   19.733739   22.539884 C.3        1 MOL1        -0.1921
      11    H5      19.637129   20.585153   23.020267 H          1 MOL1         0.0712
      12    H6      18.815333   19.056105   23.343619 H          1 MOL1         0.0712
      13    C5      17.897492   20.236363   21.770871 C.3        1 MOL1        -0.2936
      14    H7      17.358044   19.400839   21.305718 H          1 MOL1         0.0724
      15    H8      18.185913   20.941164   20.979961 H          1 MOL1         0.0724
      16    H9      17.204429   20.752108   22.448235 H          1 MOL1         0.0724
@<TRIPOS>BOND
    1     1     2    1
    2     1     3    2
    3     1     4    1
    4     4     5    1
    5     4     6    1
    6     4     7    1
    7     7     8    1
    8     7     9    1
    9     7    10    1
   10    10    11    1
   11    10    12    1
   12    10    13    1
   13    13    14    1
   14    13    15    1
   15    13    16    1
@<TRIPOS>SUBSTRUCTURE
       1 MOL1            1 RESIDUE      1      MOL     
@<SCITEGIC>MOL_PROPERTY
VConf Rank
SciTegic.value.IntegerValue
692

@<SCITEGIC>MOL_PROPERTY
Conf_Id
SciTegic.value.IntegerValue
22

@<SCITEGIC>MOL_PROPERTY
Delta U+W
SciTegic.value.DoubleValue
-1.185

@<SCITEGIC>MOL_PROPERTY
U+W
SciTegic.value.DoubleValue
-58.089

@<SCITEGIC>MOL_PROPERTY
Grad RMS
SciTegic.value.DoubleValue
0.000000

@<SCITEGIC>MOL_PROPERTY
U
SciTegic.value.DoubleValue
6.298

@<SCITEGIC>MOL_PROPERTY
W
SciTegic.value.DoubleValue
-64.387

@<SCITEGIC>MOL_PROPERTY
W(PB)
SciTegic.value.DoubleValue
-66.329

@<SCITEGIC>MOL_PROPERTY
W(SA)
SciTegic.value.DoubleValue
1.942

@<SCITEGIC>MOL_PROPERTY
Valence
SciTegic.value.DoubleValue
6.246

@<SCITEGIC>MOL_PROPERTY
Coulomb
SciTegic.value.DoubleValue
-0.408

@<SCITEGIC>MOL_PROPERTY
VdW
SciTegic.value.DoubleValue
0.460

@<SCITEGIC>MOL_PROPERTY
VdW6
SciTegic.value.DoubleValue
-4.207

@<SCITEGIC>MOL_PROPERTY
VdW12
SciTegic.value.DoubleValue
4.667

@<SCITEGIC>MOL_PROPERTY
Bond
SciTegic.value.DoubleValue
0.072

@<SCITEGIC>MOL_PROPERTY
Angle
SciTegic.value.DoubleValue
2.246

@<SCITEGIC>MOL_PROPERTY
Pdih
SciTegic.value.DoubleValue
3.928

@<SCITEGIC>MOL_PROPERTY
Idih
SciTegic.value.DoubleValue
0.001

@<SCITEGIC>MOL_PROPERTY
Tether
SciTegic.value.DoubleValue
0.000

@<TRIPOS>MOLECULE
guest-s18_confgen4.mol2 : confsearch ligand conformer 693
          16          15           1
SMALL
USER_CHARGES
 
@<TRIPOS>ATOM
       1    C1      21.454550   18.016721   23.778990 C.2        1 MOL1         0.6075
       2    O1      22.123254   18.656540   24.566049 O.co2      1 MOL1        -0.6830
       3    O2      21.676688   16.856001   23.497311 O.co2      1 MOL1        -0.6830
       4    C2      20.285546   18.714616   23.092738 C.3        1 MOL1        -0.2050
       5    H1      19.874530   19.455076   23.789409 H          1 MOL1         0.0710
       6    H2      19.505265   17.965356   22.916985 H          1 MOL1         0.0710
       7    C3      20.691920   19.400520   21.762554 C.3        1 MOL1        -0.1947
       8    H3      21.532800   20.080277   21.958205 H          1 MOL1         0.0712
       9    H4      21.062130   18.643185   21.057787 H          1 MOL1         0.0712
      10    C4      19.544499   20.205032   21.109413 C.3        1 MOL1        -0.1921
      11    H5      19.942374   20.744299   20.238669 H          1 MOL1         0.0712
      12    H6      19.182026   20.970234   21.809742 H          1 MOL1         0.0712
      13    C5      18.365283   19.320643   20.650893 C.3        1 MOL1        -0.2936
      14    H7      17.862754   18.848476   21.504301 H          1 MOL1         0.0724
      15    H8      18.708511   18.529374   19.971674 H          1 MOL1         0.0724
      16    H9      17.618588   19.923223   20.117648 H          1 MOL1         0.0724
@<TRIPOS>BOND
    1     1     2    1
    2     1     3    2
    3     1     4    1
    4     4     5    1
    5     4     6    1
    6     4     7    1
    7     7     8    1
    8     7     9    1
    9     7    10    1
   10    10    11    1
   11    10    12    1
   12    10    13    1
   13    13    14    1
   14    13    15    1
   15    13    16    1
@<TRIPOS>SUBSTRUCTURE
       1 MOL1            1 RESIDUE      1      MOL     
@<SCITEGIC>MOL_PROPERTY
VConf Rank
SciTegic.value.IntegerValue
693

@<SCITEGIC>MOL_PROPERTY
Conf_Id
SciTegic.value.IntegerValue
36

@<SCITEGIC>MOL_PROPERTY
Delta U+W
SciTegic.value.DoubleValue
-0.427

@<SCITEGIC>MOL_PROPERTY
U+W
SciTegic.value.DoubleValue
-57.331

@<SCITEGIC>MOL_PROPERTY
Grad RMS
SciTegic.value.DoubleValue
0.000000

@<SCITEGIC>MOL_PROPERTY
U
SciTegic.value.DoubleValue
7.263

@<SCITEGIC>MOL_PROPERTY
W
SciTegic.value.DoubleValue
-64.594

@<SCITEGIC>MOL_PROPERTY
W(PB)
SciTegic.value.DoubleValue
-66.513

@<SCITEGIC>MOL_PROPERTY
W(SA)
SciTegic.value.DoubleValue
1.920

@<SCITEGIC>MOL_PROPERTY
Valence
SciTegic.value.DoubleValue
6.734

@<SCITEGIC>MOL_PROPERTY
Coulomb
SciTegic.value.DoubleValue
-0.068

@<SCITEGIC>MOL_PROPERTY
VdW
SciTegic.value.DoubleValue
0.598

@<SCITEGIC>MOL_PROPERTY
VdW6
SciTegic.value.DoubleValue
-4.819

@<SCITEGIC>MOL_PROPERTY
VdW12
SciTegic.value.DoubleValue
5.417

@<SCITEGIC>MOL_PROPERTY
Bond
SciTegic.value.DoubleValue
0.107

@<SCITEGIC>MOL_PROPERTY
Angle
SciTegic.value.DoubleValue
2.469

@<SCITEGIC>MOL_PROPERTY
Pdih
SciTegic.value.DoubleValue
4.157

@<SCITEGIC>MOL_PROPERTY
Idih
SciTegic.value.DoubleValue
0.001

@<SCITEGIC>MOL_PROPERTY
Tether
SciTegic.value.DoubleValue
0.000

@<TRIPOS>MOLECULE
guest-s18_confgen4.mol2 : confsearch ligand conformer 694
          16          15           1
SMALL
USER_CHARGES
 
@<TRIPOS>ATOM
       1    C1      21.424423   17.575708   23.443895 C.2        1 MOL1         0.6075
       2    O1      21.013902   17.528001   24.586329 O.co2      1 MOL1        -0.6830
       3    O2      22.548698   17.248330   23.120127 O.co2      1 MOL1        -0.6830
       4    C2      20.484640   18.093354   22.360648 C.3        1 MOL1        -0.2050
       5    H1      19.464793   17.800186   22.634657 H          1 MOL1         0.0710
       6    H2      20.729955   17.579925   21.423217 H          1 MOL1         0.0710
       7    C3      20.577036   19.629428   22.168464 C.3        1 MOL1        -0.1947
       8    H3      20.287977   20.133560   23.100991 H          1 MOL1         0.0712
       9    H4      21.625596   19.899520   21.981382 H          1 MOL1         0.0712
      10    C4      19.712339   20.156535   21.000189 C.3        1 MOL1        -0.1921
      11    H5      20.009243   19.661032   20.065467 H          1 MOL1         0.0712
      12    H6      19.918366   21.227110   20.863331 H          1 MOL1         0.0712
      13    C5      18.197736   19.966593   21.230033 C.3        1 MOL1        -0.2936
      14    H7      17.926930   18.903784   21.259756 H          1 MOL1         0.0724
      15    H8      17.625092   20.432610   20.417682 H          1 MOL1         0.0724
      16    H9      17.882562   20.429465   22.174314 H          1 MOL1         0.0724
@<TRIPOS>BOND
    1     1     2    1
    2     1     3    2
    3     1     4    1
    4     4     5    1
    5     4     6    1
    6     4     7    1
    7     7     8    1
    8     7     9    1
    9     7    10    1
   10    10    11    1
   11    10    12    1
   12    10    13    1
   13    13    14    1
   14    13    15    1
   15    13    16    1
@<TRIPOS>SUBSTRUCTURE
       1 MOL1            1 RESIDUE      1      MOL     
@<SCITEGIC>MOL_PROPERTY
VConf Rank
SciTegic.value.IntegerValue
694

@<SCITEGIC>MOL_PROPERTY
Conf_Id
SciTegic.value.IntegerValue
17

@<SCITEGIC>MOL_PROPERTY
Delta U+W
SciTegic.value.DoubleValue
-0.432

@<SCITEGIC>MOL_PROPERTY
U+W
SciTegic.value.DoubleValue
-57.336

@<SCITEGIC>MOL_PROPERTY
Grad RMS
SciTegic.value.DoubleValue
0.000000

@<SCITEGIC>MOL_PROPERTY
U
SciTegic.value.DoubleValue
7.263

@<SCITEGIC>MOL_PROPERTY
W
SciTegic.value.DoubleValue
-64.599

@<SCITEGIC>MOL_PROPERTY
W(PB)
SciTegic.value.DoubleValue
-66.503

@<SCITEGIC>MOL_PROPERTY
W(SA)
SciTegic.value.DoubleValue
1.904

@<SCITEGIC>MOL_PROPERTY
Valence
SciTegic.value.DoubleValue
6.734

@<SCITEGIC>MOL_PROPERTY
Coulomb
SciTegic.value.DoubleValue
-0.068

@<SCITEGIC>MOL_PROPERTY
VdW
SciTegic.value.DoubleValue
0.598

@<SCITEGIC>MOL_PROPERTY
VdW6
SciTegic.value.DoubleValue
-4.819

@<SCITEGIC>MOL_PROPERTY
VdW12
SciTegic.value.DoubleValue
5.417

@<SCITEGIC>MOL_PROPERTY
Bond
SciTegic.value.DoubleValue
0.107

@<SCITEGIC>MOL_PROPERTY
Angle
SciTegic.value.DoubleValue
2.469

@<SCITEGIC>MOL_PROPERTY
Pdih
SciTegic.value.DoubleValue
4.157

@<SCITEGIC>MOL_PROPERTY
Idih
SciTegic.value.DoubleValue
0.001

@<SCITEGIC>MOL_PROPERTY
Tether
SciTegic.value.DoubleValue
0.000

@<TRIPOS>MOLECULE
guest-s18_confgen4.mol2 : confsearch ligand conformer 695
          16          15           1
SMALL
USER_CHARGES
 
@<TRIPOS>ATOM
       1    C1      18.653142   19.925518   23.759163 C.2        1 MOL1         0.6075
       2    O1      17.494998   19.977683   23.395400 O.co2      1 MOL1        -0.6830
       3    O2      19.006283   19.413732   24.803015 O.co2      1 MOL1        -0.6830
       4    C2      19.717113   20.558775   22.866726 C.3        1 MOL1        -0.2050
       5    H1      20.616311   20.740355   23.468021 H          1 MOL1         0.0710
       6    H2      19.341437   21.540257   22.554005 H          1 MOL1         0.0710
       7    C3      20.072808   19.717935   21.613130 C.3        1 MOL1        -0.1947
       8    H3      19.158773   19.519846   21.036134 H          1 MOL1         0.0712
       9    H4      20.734615   20.307662   20.964445 H          1 MOL1         0.0712
      10    C4      20.765631   18.384764   21.969269 C.3        1 MOL1        -0.1921
      11    H5      20.103829   17.776921   22.601936 H          1 MOL1         0.0712
      12    H6      21.672625   18.583804   22.556741 H          1 MOL1         0.0712
      13    C5      21.138403   17.584955   20.705270 C.3        1 MOL1        -0.2936
      14    H7      20.244447   17.345616   20.114501 H          1 MOL1         0.0724
      15    H8      21.628662   16.640744   20.975875 H          1 MOL1         0.0724
      16    H9      21.828025   18.154716   20.068710 H          1 MOL1         0.0724
@<TRIPOS>BOND
    1     1     2    1
    2     1     3    2
    3     1     4    1
    4     4     5    1
    5     4     6    1
    6     4     7    1
    7     7     8    1
    8     7     9    1
    9     7    10    1
   10    10    11    1
   11    10    12    1
   12    10    13    1
   13    13    14    1
   14    13    15    1
   15    13    16    1
@<TRIPOS>SUBSTRUCTURE
       1 MOL1            1 RESIDUE      1      MOL     
@<SCITEGIC>MOL_PROPERTY
VConf Rank
SciTegic.value.IntegerValue
695

@<SCITEGIC>MOL_PROPERTY
Conf_Id
SciTegic.value.IntegerValue
19

@<SCITEGIC>MOL_PROPERTY
Delta U+W
SciTegic.value.DoubleValue
0.048

@<SCITEGIC>MOL_PROPERTY
U+W
SciTegic.value.DoubleValue
-56.856

@<SCITEGIC>MOL_PROPERTY
Grad RMS
SciTegic.value.DoubleValue
0.000000

@<SCITEGIC>MOL_PROPERTY
U
SciTegic.value.DoubleValue
8.276

@<SCITEGIC>MOL_PROPERTY
W
SciTegic.value.DoubleValue
-65.132

@<SCITEGIC>MOL_PROPERTY
W(PB)
SciTegic.value.DoubleValue
-67.031

@<SCITEGIC>MOL_PROPERTY
W(SA)
SciTegic.value.DoubleValue
1.899

@<SCITEGIC>MOL_PROPERTY
Valence
SciTegic.value.DoubleValue
6.513

@<SCITEGIC>MOL_PROPERTY
Coulomb
SciTegic.value.DoubleValue
1.428

@<SCITEGIC>MOL_PROPERTY
VdW
SciTegic.value.DoubleValue
0.335

@<SCITEGIC>MOL_PROPERTY
VdW6
SciTegic.value.DoubleValue
-5.021

@<SCITEGIC>MOL_PROPERTY
VdW12
SciTegic.value.DoubleValue
5.356

@<SCITEGIC>MOL_PROPERTY
Bond
SciTegic.value.DoubleValue
0.092

@<SCITEGIC>MOL_PROPERTY
Angle
SciTegic.value.DoubleValue
2.417

@<SCITEGIC>MOL_PROPERTY
Pdih
SciTegic.value.DoubleValue
4.003

@<SCITEGIC>MOL_PROPERTY
Idih
SciTegic.value.DoubleValue
0.001

@<SCITEGIC>MOL_PROPERTY
Tether
SciTegic.value.DoubleValue
0.000

@<TRIPOS>MOLECULE
guest-s18_confgen4.mol2 : confsearch ligand conformer 696
          16          15           1
SMALL
USER_CHARGES
 
@<TRIPOS>ATOM
       1    C1      18.918753   20.684877   20.544210 C.2        1 MOL1         0.6075
       2    O1      19.078275   20.361942   19.383776 O.co2      1 MOL1        -0.6830
       3    O2      19.156009   21.797933   20.969742 O.co2      1 MOL1        -0.6830
       4    C2      18.368542   19.641361   21.512632 C.3        1 MOL1        -0.2050
       5    H1      17.524598   19.146704   21.017347 H          1 MOL1         0.0710
       6    H2      17.962316   20.157828   22.390884 H          1 MOL1         0.0710
       7    C3      19.407008   18.576365   21.951286 C.3        1 MOL1        -0.1947
       8    H3      18.894268   17.795310   22.528876 H          1 MOL1         0.0712
       9    H4      19.825820   18.087603   21.060596 H          1 MOL1         0.0712
      10    C4      20.546773   19.174274   22.804298 C.3        1 MOL1        -0.1921
      11    H5      20.125668   19.673310   23.688047 H          1 MOL1         0.0712
      12    H6      21.080439   19.943443   22.228708 H          1 MOL1         0.0712
      13    C5      21.545637   18.089963   23.254732 C.3        1 MOL1        -0.2936
      14    H7      21.046576   17.323840   23.862522 H          1 MOL1         0.0724
      15    H8      22.349102   18.531405   23.858628 H          1 MOL1         0.0724
      16    H9      22.005014   17.595518   22.388737 H          1 MOL1         0.0724
@<TRIPOS>BOND
    1     1     2    1
    2     1     3    2
    3     1     4    1
    4     4     5    1
    5     4     6    1
    6     4     7    1
    7     7     8    1
    8     7     9    1
    9     7    10    1
   10    10    11    1
   11    10    12    1
   12    10    13    1
   13    13    14    1
   14    13    15    1
   15    13    16    1
@<TRIPOS>SUBSTRUCTURE
       1 MOL1            1 RESIDUE      1      MOL     
@<SCITEGIC>MOL_PROPERTY
VConf Rank
SciTegic.value.IntegerValue
696

@<SCITEGIC>MOL_PROPERTY
Conf_Id
SciTegic.value.IntegerValue
20

@<SCITEGIC>MOL_PROPERTY
Delta U+W
SciTegic.value.DoubleValue
-0.010

@<SCITEGIC>MOL_PROPERTY
U+W
SciTegic.value.DoubleValue
-56.914

@<SCITEGIC>MOL_PROPERTY
Grad RMS
SciTegic.value.DoubleValue
0.000000

@<SCITEGIC>MOL_PROPERTY
U
SciTegic.value.DoubleValue
8.277

@<SCITEGIC>MOL_PROPERTY
W
SciTegic.value.DoubleValue
-65.191

@<SCITEGIC>MOL_PROPERTY
W(PB)
SciTegic.value.DoubleValue
-67.081

@<SCITEGIC>MOL_PROPERTY
W(SA)
SciTegic.value.DoubleValue
1.890

@<SCITEGIC>MOL_PROPERTY
Valence
SciTegic.value.DoubleValue
6.513

@<SCITEGIC>MOL_PROPERTY
Coulomb
SciTegic.value.DoubleValue
1.429

@<SCITEGIC>MOL_PROPERTY
VdW
SciTegic.value.DoubleValue
0.335

@<SCITEGIC>MOL_PROPERTY
VdW6
SciTegic.value.DoubleValue
-5.021

@<SCITEGIC>MOL_PROPERTY
VdW12
SciTegic.value.DoubleValue
5.356

@<SCITEGIC>MOL_PROPERTY
Bond
SciTegic.value.DoubleValue
0.092

@<SCITEGIC>MOL_PROPERTY
Angle
SciTegic.value.DoubleValue
2.417

@<SCITEGIC>MOL_PROPERTY
Pdih
SciTegic.value.DoubleValue
4.002

@<SCITEGIC>MOL_PROPERTY
Idih
SciTegic.value.DoubleValue
0.001

@<SCITEGIC>MOL_PROPERTY
Tether
SciTegic.value.DoubleValue
0.000

@<TRIPOS>MOLECULE
guest-s18_confgen4.mol2 : confsearch ligand conformer 697
          16          15           1
SMALL
USER_CHARGES
 
@<TRIPOS>ATOM
       1    C1      21.565402   19.349253   23.470903 C.2        1 MOL1         0.6075
       2    O1      21.892072   18.491283   24.267118 O.co2      1 MOL1        -0.6830
       3    O2      21.504620   20.531077   23.746398 O.co2      1 MOL1        -0.6830
       4    C2      21.248215   18.920613   22.040727 C.3        1 MOL1        -0.2050
       5    H1      22.079679   18.294386   21.696649 H          1 MOL1         0.0710
       6    H2      21.243755   19.809594   21.399680 H          1 MOL1         0.0710
       7    C3      19.917847   18.132550   21.893227 C.3        1 MOL1        -0.1947
       8    H3      19.811367   17.797233   20.852748 H          1 MOL1         0.0712
       9    H4      19.977367   17.222178   22.505628 H          1 MOL1         0.0712
      10    C4      18.656089   18.928847   22.302942 C.3        1 MOL1        -0.1921
      11    H5      18.734842   19.240600   23.353754 H          1 MOL1         0.0712
      12    H6      17.784160   18.263096   22.242589 H          1 MOL1         0.0712
      13    C5      18.401236   20.164931   21.414355 C.3        1 MOL1        -0.2936
      14    H7      19.192544   20.915035   21.539512 H          1 MOL1         0.0724
      15    H8      17.448700   20.640067   21.682275 H          1 MOL1         0.0724
      16    H9      18.353706   19.885006   20.353955 H          1 MOL1         0.0724
@<TRIPOS>BOND
    1     1     2    1
    2     1     3    2
    3     1     4    1
    4     4     5    1
    5     4     6    1
    6     4     7    1
    7     7     8    1
    8     7     9    1
    9     7    10    1
   10    10    11    1
   11    10    12    1
   12    10    13    1
   13    13    14    1
   14    13    15    1
   15    13    16    1
@<TRIPOS>SUBSTRUCTURE
       1 MOL1            1 RESIDUE      1      MOL     
@<SCITEGIC>MOL_PROPERTY
VConf Rank
SciTegic.value.IntegerValue
697

@<SCITEGIC>MOL_PROPERTY
Conf_Id
SciTegic.value.IntegerValue
37

@<SCITEGIC>MOL_PROPERTY
Delta U+W
SciTegic.value.DoubleValue
1.063

@<SCITEGIC>MOL_PROPERTY
U+W
SciTegic.value.DoubleValue
-55.841

@<SCITEGIC>MOL_PROPERTY
Grad RMS
SciTegic.value.DoubleValue
0.000000

@<SCITEGIC>MOL_PROPERTY
U
SciTegic.value.DoubleValue
9.719

@<SCITEGIC>MOL_PROPERTY
W
SciTegic.value.DoubleValue
-65.560

@<SCITEGIC>MOL_PROPERTY
W(PB)
SciTegic.value.DoubleValue
-67.414

@<SCITEGIC>MOL_PROPERTY
W(SA)
SciTegic.value.DoubleValue
1.854

@<SCITEGIC>MOL_PROPERTY
Valence
SciTegic.value.DoubleValue
7.002

@<SCITEGIC>MOL_PROPERTY
Coulomb
SciTegic.value.DoubleValue
2.402

@<SCITEGIC>MOL_PROPERTY
VdW
SciTegic.value.DoubleValue
0.314

@<SCITEGIC>MOL_PROPERTY
VdW6
SciTegic.value.DoubleValue
-5.861

@<SCITEGIC>MOL_PROPERTY
VdW12
SciTegic.value.DoubleValue
6.175

@<SCITEGIC>MOL_PROPERTY
Bond
SciTegic.value.DoubleValue
0.134

@<SCITEGIC>MOL_PROPERTY
Angle
SciTegic.value.DoubleValue
2.733

@<SCITEGIC>MOL_PROPERTY
Pdih
SciTegic.value.DoubleValue
4.133

@<SCITEGIC>MOL_PROPERTY
Idih
SciTegic.value.DoubleValue
0.002

@<SCITEGIC>MOL_PROPERTY
Tether
SciTegic.value.DoubleValue
0.000

@<TRIPOS>MOLECULE
guest-s18_confgen4.mol2 : confsearch ligand conformer 698
          16          15           1
SMALL
USER_CHARGES
 
@<TRIPOS>ATOM
       1    C1      21.342114   17.599544   21.275526 C.2        1 MOL1         0.6075
       2    O1      20.874116   16.601985   20.763043 O.co2      1 MOL1        -0.6830
       3    O2      22.211933   18.272990   20.759595 O.co2      1 MOL1        -0.6830
       4    C2      20.832967   18.006000   22.655856 C.3        1 MOL1        -0.2050
       5    H1      21.527071   18.737215   23.085732 H          1 MOL1         0.0710
       6    H2      20.883091   17.117361   23.295925 H          1 MOL1         0.0710
       7    C3      19.381836   18.559961   22.660720 C.3        1 MOL1        -0.1947
       8    H3      18.706635   17.783713   22.274847 H          1 MOL1         0.0712
       9    H4      19.072268   18.749708   23.697317 H          1 MOL1         0.0712
      10    C4      19.188635   19.849471   21.827754 C.3        1 MOL1        -0.1921
      11    H5      18.121716   20.111788   21.826661 H          1 MOL1         0.0712
      12    H6      19.462178   19.662924   20.779913 H          1 MOL1         0.0712
      13    C5      19.995852   21.049328   22.367370 C.3        1 MOL1        -0.2936
      14    H7      19.766826   21.234861   23.424816 H          1 MOL1         0.0724
      15    H8      19.753416   21.959383   21.803559 H          1 MOL1         0.0724
      16    H9      21.075642   20.877917   22.271666 H          1 MOL1         0.0724
@<TRIPOS>BOND
    1     1     2    1
    2     1     3    2
    3     1     4    1
    4     4     5    1
    5     4     6    1
    6     4     7    1
    7     7     8    1
    8     7     9    1
    9     7    10    1
   10    10    11    1
   11    10    12    1
   12    10    13    1
   13    13    14    1
   14    13    15    1
   15    13    16    1
@<TRIPOS>SUBSTRUCTURE
       1 MOL1            1 RESIDUE      1      MOL     
@<SCITEGIC>MOL_PROPERTY
VConf Rank
SciTegic.value.IntegerValue
698

@<SCITEGIC>MOL_PROPERTY
Conf_Id
SciTegic.value.IntegerValue
39

@<SCITEGIC>MOL_PROPERTY
Delta U+W
SciTegic.value.DoubleValue
1.129

@<SCITEGIC>MOL_PROPERTY
U+W
SciTegic.value.DoubleValue
-55.775

@<SCITEGIC>MOL_PROPERTY
Grad RMS
SciTegic.value.DoubleValue
0.000000

@<SCITEGIC>MOL_PROPERTY
U
SciTegic.value.DoubleValue
9.718

@<SCITEGIC>MOL_PROPERTY
W
SciTegic.value.DoubleValue
-65.493

@<SCITEGIC>MOL_PROPERTY
W(PB)
SciTegic.value.DoubleValue
-67.361

@<SCITEGIC>MOL_PROPERTY
W(SA)
SciTegic.value.DoubleValue
1.869

@<SCITEGIC>MOL_PROPERTY
Valence
SciTegic.value.DoubleValue
7.002

@<SCITEGIC>MOL_PROPERTY
Coulomb
SciTegic.value.DoubleValue
2.402

@<SCITEGIC>MOL_PROPERTY
VdW
SciTegic.value.DoubleValue
0.314

@<SCITEGIC>MOL_PROPERTY
VdW6
SciTegic.value.DoubleValue
-5.861

@<SCITEGIC>MOL_PROPERTY
VdW12
SciTegic.value.DoubleValue
6.175

@<SCITEGIC>MOL_PROPERTY
Bond
SciTegic.value.DoubleValue
0.134

@<SCITEGIC>MOL_PROPERTY
Angle
SciTegic.value.DoubleValue
2.734

@<SCITEGIC>MOL_PROPERTY
Pdih
SciTegic.value.DoubleValue
4.133

@<SCITEGIC>MOL_PROPERTY
Idih
SciTegic.value.DoubleValue
0.002

@<SCITEGIC>MOL_PROPERTY
Tether
SciTegic.value.DoubleValue
0.000

@<TRIPOS>MOLECULE
guest-s18_confgen4.mol2 : confsearch ligand conformer 699
          16          15           1
SMALL
USER_CHARGES
 
@<TRIPOS>ATOM
       1    C1      19.374081   20.915062   21.686465 C.2        1 MOL1         0.6075
       2    O1      19.342396   21.683292   22.627549 O.co2      1 MOL1        -0.6830
       3    O2      18.479626   20.822069   20.868870 O.co2      1 MOL1        -0.6830
       4    C2      20.641882   20.090403   21.471350 C.3        1 MOL1        -0.2050
       5    H1      21.372906   20.351045   22.246365 H          1 MOL1         0.0710
       6    H2      21.066762   20.420704   20.516296 H          1 MOL1         0.0710
       7    C3      20.433002   18.550528   21.425119 C.3        1 MOL1        -0.1947
       8    H3      19.561612   18.309388   20.800561 H          1 MOL1         0.0712
       9    H4      21.300479   18.105848   20.918961 H          1 MOL1         0.0712
      10    C4      20.297229   17.874095   22.810603 C.3        1 MOL1        -0.1921
      11    H5      21.169236   18.119187   23.432506 H          1 MOL1         0.0712
      12    H6      20.316180   16.784714   22.668536 H          1 MOL1         0.0712
      13    C5      19.002449   18.246415   23.562406 C.3        1 MOL1        -0.2936
      14    H7      19.010140   19.297799   23.874706 H          1 MOL1         0.0724
      15    H8      18.894346   17.634433   24.467149 H          1 MOL1         0.0724
      16    H9      18.118962   18.079839   22.932300 H          1 MOL1         0.0724
@<TRIPOS>BOND
    1     1     2    1
    2     1     3    2
    3     1     4    1
    4     4     5    1
    5     4     6    1
    6     4     7    1
    7     7     8    1
    8     7     9    1
    9     7    10    1
   10    10    11    1
   11    10    12    1
   12    10    13    1
   13    13    14    1
   14    13    15    1
   15    13    16    1
@<TRIPOS>SUBSTRUCTURE
       1 MOL1            1 RESIDUE      1      MOL     
@<SCITEGIC>MOL_PROPERTY
VConf Rank
SciTegic.value.IntegerValue
699

@<SCITEGIC>MOL_PROPERTY
Conf_Id
SciTegic.value.IntegerValue
47

@<SCITEGIC>MOL_PROPERTY
Delta U+W
SciTegic.value.DoubleValue
2.301

@<SCITEGIC>MOL_PROPERTY
U+W
SciTegic.value.DoubleValue
-54.603

@<SCITEGIC>MOL_PROPERTY
Grad RMS
SciTegic.value.DoubleValue
0.000000

@<SCITEGIC>MOL_PROPERTY
U
SciTegic.value.DoubleValue
11.258

@<SCITEGIC>MOL_PROPERTY
W
SciTegic.value.DoubleValue
-65.861

@<SCITEGIC>MOL_PROPERTY
W(PB)
SciTegic.value.DoubleValue
-67.702

@<SCITEGIC>MOL_PROPERTY
W(SA)
SciTegic.value.DoubleValue
1.841

@<SCITEGIC>MOL_PROPERTY
Valence
SciTegic.value.DoubleValue
8.169

@<SCITEGIC>MOL_PROPERTY
Coulomb
SciTegic.value.DoubleValue
2.735

@<SCITEGIC>MOL_PROPERTY
VdW
SciTegic.value.DoubleValue
0.355

@<SCITEGIC>MOL_PROPERTY
VdW6
SciTegic.value.DoubleValue
-6.245

@<SCITEGIC>MOL_PROPERTY
VdW12
SciTegic.value.DoubleValue
6.600

@<SCITEGIC>MOL_PROPERTY
Bond
SciTegic.value.DoubleValue
0.149

@<SCITEGIC>MOL_PROPERTY
Angle
SciTegic.value.DoubleValue
3.168

@<SCITEGIC>MOL_PROPERTY
Pdih
SciTegic.value.DoubleValue
4.840

@<SCITEGIC>MOL_PROPERTY
Idih
SciTegic.value.DoubleValue
0.011

@<SCITEGIC>MOL_PROPERTY
Tether
SciTegic.value.DoubleValue
0.000

@<TRIPOS>MOLECULE
guest-s18_confgen4.mol2 : confsearch ligand conformer 700
          16          15           1
SMALL
USER_CHARGES
 
@<TRIPOS>ATOM
       1    C1      18.286983   20.234817   21.820930 C.2        1 MOL1         0.6075
       2    O1      18.654148   21.180696   21.151855 O.co2      1 MOL1        -0.6830
       3    O2      17.541981   20.340039   22.775246 O.co2      1 MOL1        -0.6830
       4    C2      18.709992   18.832346   21.387567 C.3        1 MOL1        -0.2050
       5    H1      18.289980   18.678572   20.386722 H          1 MOL1         0.0710
       6    H2      18.231287   18.096199   22.044765 H          1 MOL1         0.0710
       7    C3      20.244397   18.587984   21.333942 C.3        1 MOL1        -0.1947
       8    H3      20.426950   17.719950   20.686142 H          1 MOL1         0.0712
       9    H4      20.742299   19.438524   20.847921 H          1 MOL1         0.0712
      10    C4      20.902052   18.300050   22.705126 C.3        1 MOL1        -0.1921
      11    H5      21.941215   17.987290   22.533031 H          1 MOL1         0.0712
      12    H6      20.400325   17.450425   23.188487 H          1 MOL1         0.0712
      13    C5      20.908147   19.511282   23.660722 C.3        1 MOL1        -0.2936
      14    H7      21.506128   19.292025   24.554654 H          1 MOL1         0.0724
      15    H8      19.894009   19.760899   23.995708 H          1 MOL1         0.0724
      16    H9      21.338262   20.395919   23.173129 H          1 MOL1         0.0724
@<TRIPOS>BOND
    1     1     2    1
    2     1     3    2
    3     1     4    1
    4     4     5    1
    5     4     6    1
    6     4     7    1
    7     7     8    1
    8     7     9    1
    9     7    10    1
   10    10    11    1
   11    10    12    1
   12    10    13    1
   13    13    14    1
   14    13    15    1
   15    13    16    1
@<TRIPOS>SUBSTRUCTURE
       1 MOL1            1 RESIDUE      1      MOL     
@<SCITEGIC>MOL_PROPERTY
VConf Rank
SciTegic.value.IntegerValue
700

@<SCITEGIC>MOL_PROPERTY
Conf_Id
SciTegic.value.IntegerValue
45

@<SCITEGIC>MOL_PROPERTY
Delta U+W
SciTegic.value.DoubleValue
2.303

@<SCITEGIC>MOL_PROPERTY
U+W
SciTegic.value.DoubleValue
-54.601

@<SCITEGIC>MOL_PROPERTY
Grad RMS
SciTegic.value.DoubleValue
0.000000

@<SCITEGIC>MOL_PROPERTY
U
SciTegic.value.DoubleValue
11.258

@<SCITEGIC>MOL_PROPERTY
W
SciTegic.value.DoubleValue
-65.860

@<SCITEGIC>MOL_PROPERTY
W(PB)
SciTegic.value.DoubleValue
-67.709

@<SCITEGIC>MOL_PROPERTY
W(SA)
SciTegic.value.DoubleValue
1.849

@<SCITEGIC>MOL_PROPERTY
Valence
SciTegic.value.DoubleValue
8.169

@<SCITEGIC>MOL_PROPERTY
Coulomb
SciTegic.value.DoubleValue
2.735

@<SCITEGIC>MOL_PROPERTY
VdW
SciTegic.value.DoubleValue
0.355

@<SCITEGIC>MOL_PROPERTY
VdW6
SciTegic.value.DoubleValue
-6.245

@<SCITEGIC>MOL_PROPERTY
VdW12
SciTegic.value.DoubleValue
6.600

@<SCITEGIC>MOL_PROPERTY
Bond
SciTegic.value.DoubleValue
0.149

@<SCITEGIC>MOL_PROPERTY
Angle
SciTegic.value.DoubleValue
3.168

@<SCITEGIC>MOL_PROPERTY
Pdih
SciTegic.value.DoubleValue
4.840

@<SCITEGIC>MOL_PROPERTY
Idih
SciTegic.value.DoubleValue
0.011

@<SCITEGIC>MOL_PROPERTY
Tether
SciTegic.value.DoubleValue
0.000

@<TRIPOS>MOLECULE
guest-s18_confgen4.mol2 : confsearch ligand conformer 701
          16          15           1
SMALL
USER_CHARGES
 
@<TRIPOS>ATOM
       1    C1      22.076470   20.887181   21.508769 C.2        1 MOL1         0.6075
       2    O1      21.352928   21.816944   21.209097 O.co2      1 MOL1        -0.6830
       3    O2      23.287770   20.972766   21.535990 O.co2      1 MOL1        -0.6830
       4    C2      21.463694   19.533812   21.873176 C.3        1 MOL1        -0.2050
       5    H1      21.812163   19.277423   22.880645 H          1 MOL1         0.0710
       6    H2      21.885648   18.788533   21.188575 H          1 MOL1         0.0710
       7    C3      19.913829   19.471996   21.823723 C.3        1 MOL1        -0.1947
       8    H3      19.496865   20.224448   22.507409 H          1 MOL1         0.0712
       9    H4      19.570431   19.735038   20.813596 H          1 MOL1         0.0712
      10    C4      19.383186   18.073933   22.204640 C.3        1 MOL1        -0.1921
      11    H5      19.724450   17.810383   23.215373 H          1 MOL1         0.0712
      12    H6      19.798055   17.320670   21.520551 H          1 MOL1         0.0712
      13    C5      17.843540   18.018864   22.153690 C.3        1 MOL1        -0.2936
      14    H7      17.401401   18.741328   22.852280 H          1 MOL1         0.0724
      15    H8      17.482955   17.018663   22.427037 H          1 MOL1         0.0724
      16    H9      17.475544   18.248000   21.144955 H          1 MOL1         0.0724
@<TRIPOS>BOND
    1     1     2    1
    2     1     3    2
    3     1     4    1
    4     4     5    1
    5     4     6    1
    6     4     7    1
    7     7     8    1
    8     7     9    1
    9     7    10    1
   10    10    11    1
   11    10    12    1
   12    10    13    1
   13    13    14    1
   14    13    15    1
   15    13    16    1
@<TRIPOS>SUBSTRUCTURE
       1 MOL1            1 RESIDUE      1      MOL     
@<SCITEGIC>MOL_PROPERTY
VConf Rank
SciTegic.value.IntegerValue
701

@<SCITEGIC>MOL_PROPERTY
Conf_Id
SciTegic.value.IntegerValue
0

@<SCITEGIC>MOL_PROPERTY
Delta U+W
SciTegic.value.DoubleValue
0.000

@<SCITEGIC>MOL_PROPERTY
U+W
SciTegic.value.DoubleValue
-56.904

@<SCITEGIC>MOL_PROPERTY
Grad RMS
SciTegic.value.DoubleValue
0.000000

@<SCITEGIC>MOL_PROPERTY
U
SciTegic.value.DoubleValue
7.329

@<SCITEGIC>MOL_PROPERTY
W
SciTegic.value.DoubleValue
-64.233

@<SCITEGIC>MOL_PROPERTY
W(PB)
SciTegic.value.DoubleValue
-66.148

@<SCITEGIC>MOL_PROPERTY
W(SA)
SciTegic.value.DoubleValue
1.915

@<SCITEGIC>MOL_PROPERTY
Valence
SciTegic.value.DoubleValue
6.755

@<SCITEGIC>MOL_PROPERTY
Coulomb
SciTegic.value.DoubleValue
-0.421

@<SCITEGIC>MOL_PROPERTY
VdW
SciTegic.value.DoubleValue
0.995

@<SCITEGIC>MOL_PROPERTY
VdW6
SciTegic.value.DoubleValue
-4.495

@<SCITEGIC>MOL_PROPERTY
VdW12
SciTegic.value.DoubleValue
5.490

@<SCITEGIC>MOL_PROPERTY
Bond
SciTegic.value.DoubleValue
0.106

@<SCITEGIC>MOL_PROPERTY
Angle
SciTegic.value.DoubleValue
2.715

@<SCITEGIC>MOL_PROPERTY
Pdih
SciTegic.value.DoubleValue
3.934

@<SCITEGIC>MOL_PROPERTY
Idih
SciTegic.value.DoubleValue
0.000

@<SCITEGIC>MOL_PROPERTY
Tether
SciTegic.value.DoubleValue
0.000

@<TRIPOS>MOLECULE
guest-s18_confgen4.mol2 : confsearch ligand conformer 702
          16          15           1
SMALL
USER_CHARGES
 
@<TRIPOS>ATOM
       1    C1      20.759201   16.490237   22.071054 C.2        1 MOL1         0.6075
       2    O1      21.923366   16.268035   21.804242 O.co2      1 MOL1        -0.6830
       3    O2      20.108722   15.821591   22.849280 O.co2      1 MOL1        -0.6830
       4    C2      20.082857   17.684313   21.406732 C.3        1 MOL1        -0.2050
       5    H1      19.021935   17.442522   21.269504 H          1 MOL1         0.0710
       6    H2      20.518078   17.810668   20.407999 H          1 MOL1         0.0710
       7    C3      20.231076   18.991948   22.222933 C.3        1 MOL1        -0.1947
       8    H3      19.802030   18.845683   23.223970 H          1 MOL1         0.0712
       9    H4      21.298246   19.213815   22.362490 H          1 MOL1         0.0712
      10    C4      19.538497   20.183446   21.529227 C.3        1 MOL1        -0.1921
      11    H5      18.471140   19.962237   21.390104 H          1 MOL1         0.0712
      12    H6      19.967720   20.330442   20.528378 H          1 MOL1         0.0712
      13    C5      19.690093   21.481250   22.347043 C.3        1 MOL1        -0.2936
      14    H7      20.748539   21.743580   22.474897 H          1 MOL1         0.0724
      15    H8      19.240926   21.372646   23.342997 H          1 MOL1         0.0724
      16    H9      19.192317   22.318179   21.840171 H          1 MOL1         0.0724
@<TRIPOS>BOND
    1     1     2    1
    2     1     3    2
    3     1     4    1
    4     4     5    1
    5     4     6    1
    6     4     7    1
    7     7     8    1
    8     7     9    1
    9     7    10    1
   10    10    11    1
   11    10    12    1
   12    10    13    1
   13    13    14    1
   14    13    15    1
   15    13    16    1
@<TRIPOS>SUBSTRUCTURE
       1 MOL1            1 RESIDUE      1      MOL     
@<SCITEGIC>MOL_PROPERTY
VConf Rank
SciTegic.value.IntegerValue
702

@<SCITEGIC>MOL_PROPERTY
Conf_Id
SciTegic.value.IntegerValue
22

@<SCITEGIC>MOL_PROPERTY
Delta U+W
SciTegic.value.DoubleValue
-1.185

@<SCITEGIC>MOL_PROPERTY
U+W
SciTegic.value.DoubleValue
-58.089

@<SCITEGIC>MOL_PROPERTY
Grad RMS
SciTegic.value.DoubleValue
0.000000

@<SCITEGIC>MOL_PROPERTY
U
SciTegic.value.DoubleValue
6.298

@<SCITEGIC>MOL_PROPERTY
W
SciTegic.value.DoubleValue
-64.387

@<SCITEGIC>MOL_PROPERTY
W(PB)
SciTegic.value.DoubleValue
-66.329

@<SCITEGIC>MOL_PROPERTY
W(SA)
SciTegic.value.DoubleValue
1.942

@<SCITEGIC>MOL_PROPERTY
Valence
SciTegic.value.DoubleValue
6.246

@<SCITEGIC>MOL_PROPERTY
Coulomb
SciTegic.value.DoubleValue
-0.408

@<SCITEGIC>MOL_PROPERTY
VdW
SciTegic.value.DoubleValue
0.460

@<SCITEGIC>MOL_PROPERTY
VdW6
SciTegic.value.DoubleValue
-4.207

@<SCITEGIC>MOL_PROPERTY
VdW12
SciTegic.value.DoubleValue
4.667

@<SCITEGIC>MOL_PROPERTY
Bond
SciTegic.value.DoubleValue
0.072

@<SCITEGIC>MOL_PROPERTY
Angle
SciTegic.value.DoubleValue
2.246

@<SCITEGIC>MOL_PROPERTY
Pdih
SciTegic.value.DoubleValue
3.928

@<SCITEGIC>MOL_PROPERTY
Idih
SciTegic.value.DoubleValue
0.001

@<SCITEGIC>MOL_PROPERTY
Tether
SciTegic.value.DoubleValue
0.000

@<TRIPOS>MOLECULE
guest-s18_confgen4.mol2 : confsearch ligand conformer 703
          16          15           1
SMALL
USER_CHARGES
 
@<TRIPOS>ATOM
       1    C1      21.105937   18.140847   24.083342 C.2        1 MOL1         0.6075
       2    O1      22.309597   17.995452   24.161168 O.co2      1 MOL1        -0.6830
       3    O2      20.309908   17.527046   24.765650 O.co2      1 MOL1        -0.6830
       4    C2      20.564732   19.132811   23.059781 C.3        1 MOL1        -0.2050
       5    H1      21.290572   19.948694   22.959493 H          1 MOL1         0.0710
       6    H2      19.643900   19.565151   23.467540 H          1 MOL1         0.0710
       7    C3      20.296284   18.483640   21.677209 C.3        1 MOL1        -0.1947
       8    H3      21.214520   17.985270   21.336771 H          1 MOL1         0.0712
       9    H4      19.536665   17.696812   21.782990 H          1 MOL1         0.0712
      10    C4      19.851609   19.496985   20.597485 C.3        1 MOL1        -0.1921
      11    H5      19.789827   18.978569   19.630667 H          1 MOL1         0.0712
      12    H6      20.616588   20.277452   20.483203 H          1 MOL1         0.0712
      13    C5      18.485749   20.149261   20.900629 C.3        1 MOL1        -0.2936
      14    H7      18.530729   20.773378   21.801871 H          1 MOL1         0.0724
      15    H8      17.710041   19.386422   21.047616 H          1 MOL1         0.0724
      16    H9      18.174058   20.791783   20.066950 H          1 MOL1         0.0724
@<TRIPOS>BOND
    1     1     2    1
    2     1     3    2
    3     1     4    1
    4     4     5    1
    5     4     6    1
    6     4     7    1
    7     7     8    1
    8     7     9    1
    9     7    10    1
   10    10    11    1
   11    10    12    1
   12    10    13    1
   13    13    14    1
   14    13    15    1
   15    13    16    1
@<TRIPOS>SUBSTRUCTURE
       1 MOL1            1 RESIDUE      1      MOL     
@<SCITEGIC>MOL_PROPERTY
VConf Rank
SciTegic.value.IntegerValue
703

@<SCITEGIC>MOL_PROPERTY
Conf_Id
SciTegic.value.IntegerValue
36

@<SCITEGIC>MOL_PROPERTY
Delta U+W
SciTegic.value.DoubleValue
-0.427

@<SCITEGIC>MOL_PROPERTY
U+W
SciTegic.value.DoubleValue
-57.331

@<SCITEGIC>MOL_PROPERTY
Grad RMS
SciTegic.value.DoubleValue
0.000000

@<SCITEGIC>MOL_PROPERTY
U
SciTegic.value.DoubleValue
7.263

@<SCITEGIC>MOL_PROPERTY
W
SciTegic.value.DoubleValue
-64.594

@<SCITEGIC>MOL_PROPERTY
W(PB)
SciTegic.value.DoubleValue
-66.513

@<SCITEGIC>MOL_PROPERTY
W(SA)
SciTegic.value.DoubleValue
1.920

@<SCITEGIC>MOL_PROPERTY
Valence
SciTegic.value.DoubleValue
6.734

@<SCITEGIC>MOL_PROPERTY
Coulomb
SciTegic.value.DoubleValue
-0.068

@<SCITEGIC>MOL_PROPERTY
VdW
SciTegic.value.DoubleValue
0.598

@<SCITEGIC>MOL_PROPERTY
VdW6
SciTegic.value.DoubleValue
-4.819

@<SCITEGIC>MOL_PROPERTY
VdW12
SciTegic.value.DoubleValue
5.417

@<SCITEGIC>MOL_PROPERTY
Bond
SciTegic.value.DoubleValue
0.107

@<SCITEGIC>MOL_PROPERTY
Angle
SciTegic.value.DoubleValue
2.469

@<SCITEGIC>MOL_PROPERTY
Pdih
SciTegic.value.DoubleValue
4.157

@<SCITEGIC>MOL_PROPERTY
Idih
SciTegic.value.DoubleValue
0.001

@<SCITEGIC>MOL_PROPERTY
Tether
SciTegic.value.DoubleValue
0.000

@<TRIPOS>MOLECULE
guest-s18_confgen4.mol2 : confsearch ligand conformer 704
          16          15           1
SMALL
USER_CHARGES
 
@<TRIPOS>ATOM
       1    C1      19.248875   21.115845   20.476228 C.2        1 MOL1         0.6075
       2    O1      20.079084   22.002714   20.489433 O.co2      1 MOL1        -0.6830
       3    O2      18.099174   21.277554   20.118412 O.co2      1 MOL1        -0.6830
       4    C2      19.666684   19.729391   20.953462 C.3        1 MOL1        -0.2050
       5    H1      20.720447   19.587721   20.687698 H          1 MOL1         0.0710
       6    H2      19.086927   18.986967   20.391985 H          1 MOL1         0.0710
       7    C3      19.457345   19.529706   22.477043 C.3        1 MOL1        -0.1947
       8    H3      20.075608   20.250647   23.029587 H          1 MOL1         0.0712
       9    H4      18.412339   19.763392   22.723581 H          1 MOL1         0.0712
      10    C4      19.772301   18.094674   22.958595 C.3        1 MOL1        -0.1921
      11    H5      19.145695   17.374494   22.414457 H          1 MOL1         0.0712
      12    H6      19.495245   18.008998   24.018410 H          1 MOL1         0.0712
      13    C5      21.259473   17.712254   22.800468 C.3        1 MOL1        -0.2936
      14    H7      21.553368   17.673676   21.744097 H          1 MOL1         0.0724
      15    H8      21.449065   16.721873   23.234297 H          1 MOL1         0.0724
      16    H9      21.907659   18.435232   23.312726 H          1 MOL1         0.0724
@<TRIPOS>BOND
    1     1     2    1
    2     1     3    2
    3     1     4    1
    4     4     5    1
    5     4     6    1
    6     4     7    1
    7     7     8    1
    8     7     9    1
    9     7    10    1
   10    10    11    1
   11    10    12    1
   12    10    13    1
   13    13    14    1
   14    13    15    1
   15    13    16    1
@<TRIPOS>SUBSTRUCTURE
       1 MOL1            1 RESIDUE      1      MOL     
@<SCITEGIC>MOL_PROPERTY
VConf Rank
SciTegic.value.IntegerValue
704

@<SCITEGIC>MOL_PROPERTY
Conf_Id
SciTegic.value.IntegerValue
17

@<SCITEGIC>MOL_PROPERTY
Delta U+W
SciTegic.value.DoubleValue
-0.432

@<SCITEGIC>MOL_PROPERTY
U+W
SciTegic.value.DoubleValue
-57.336

@<SCITEGIC>MOL_PROPERTY
Grad RMS
SciTegic.value.DoubleValue
0.000000

@<SCITEGIC>MOL_PROPERTY
U
SciTegic.value.DoubleValue
7.263

@<SCITEGIC>MOL_PROPERTY
W
SciTegic.value.DoubleValue
-64.599

@<SCITEGIC>MOL_PROPERTY
W(PB)
SciTegic.value.DoubleValue
-66.503

@<SCITEGIC>MOL_PROPERTY
W(SA)
SciTegic.value.DoubleValue
1.904

@<SCITEGIC>MOL_PROPERTY
Valence
SciTegic.value.DoubleValue
6.734

@<SCITEGIC>MOL_PROPERTY
Coulomb
SciTegic.value.DoubleValue
-0.068

@<SCITEGIC>MOL_PROPERTY
VdW
SciTegic.value.DoubleValue
0.598

@<SCITEGIC>MOL_PROPERTY
VdW6
SciTegic.value.DoubleValue
-4.819

@<SCITEGIC>MOL_PROPERTY
VdW12
SciTegic.value.DoubleValue
5.417

@<SCITEGIC>MOL_PROPERTY
Bond
SciTegic.value.DoubleValue
0.107

@<SCITEGIC>MOL_PROPERTY
Angle
SciTegic.value.DoubleValue
2.469

@<SCITEGIC>MOL_PROPERTY
Pdih
SciTegic.value.DoubleValue
4.157

@<SCITEGIC>MOL_PROPERTY
Idih
SciTegic.value.DoubleValue
0.001

@<SCITEGIC>MOL_PROPERTY
Tether
SciTegic.value.DoubleValue
0.000

@<TRIPOS>MOLECULE
guest-s18_confgen4.mol2 : confsearch ligand conformer 705
          16          15           1
SMALL
USER_CHARGES
 
@<TRIPOS>ATOM
       1    C1      18.746287   20.162856   20.472150 C.2        1 MOL1         0.6075
       2    O1      17.581352   20.238836   20.809042 O.co2      1 MOL1        -0.6830
       3    O2      19.376974   21.098540   20.021603 O.co2      1 MOL1        -0.6830
       4    C2      19.445998   18.812490   20.600249 C.3        1 MOL1        -0.2050
       5    H1      20.333234   18.814792   19.955353 H          1 MOL1         0.0710
       6    H2      18.765679   18.051120   20.200605 H          1 MOL1         0.0710
       7    C3      19.841705   18.440914   22.052965 C.3        1 MOL1        -0.1947
       8    H3      18.948603   18.470563   22.692585 H          1 MOL1         0.0712
       9    H4      20.207747   17.405385   22.068866 H          1 MOL1         0.0712
      10    C4      20.928915   19.373619   22.629346 C.3        1 MOL1        -0.1921
      11    H5      20.565723   20.410803   22.637401 H          1 MOL1         0.0712
      12    H6      21.816581   19.352452   21.982062 H          1 MOL1         0.0712
      13    C5      21.327635   18.961978   24.060401 C.3        1 MOL1        -0.2936
      14    H7      20.463314   19.004387   24.736124 H          1 MOL1         0.0724
      15    H8      22.099886   19.634931   24.455217 H          1 MOL1         0.0724
      16    H9      21.727467   17.939615   24.078371 H          1 MOL1         0.0724
@<TRIPOS>BOND
    1     1     2    1
    2     1     3    2
    3     1     4    1
    4     4     5    1
    5     4     6    1
    6     4     7    1
    7     7     8    1
    8     7     9    1
    9     7    10    1
   10    10    11    1
   11    10    12    1
   12    10    13    1
   13    13    14    1
   14    13    15    1
   15    13    16    1
@<TRIPOS>SUBSTRUCTURE
       1 MOL1            1 RESIDUE      1      MOL     
@<SCITEGIC>MOL_PROPERTY
VConf Rank
SciTegic.value.IntegerValue
705

@<SCITEGIC>MOL_PROPERTY
Conf_Id
SciTegic.value.IntegerValue
19

@<SCITEGIC>MOL_PROPERTY
Delta U+W
SciTegic.value.DoubleValue
0.048

@<SCITEGIC>MOL_PROPERTY
U+W
SciTegic.value.DoubleValue
-56.856

@<SCITEGIC>MOL_PROPERTY
Grad RMS
SciTegic.value.DoubleValue
0.000000

@<SCITEGIC>MOL_PROPERTY
U
SciTegic.value.DoubleValue
8.276

@<SCITEGIC>MOL_PROPERTY
W
SciTegic.value.DoubleValue
-65.132

@<SCITEGIC>MOL_PROPERTY
W(PB)
SciTegic.value.DoubleValue
-67.031

@<SCITEGIC>MOL_PROPERTY
W(SA)
SciTegic.value.DoubleValue
1.899

@<SCITEGIC>MOL_PROPERTY
Valence
SciTegic.value.DoubleValue
6.513

@<SCITEGIC>MOL_PROPERTY
Coulomb
SciTegic.value.DoubleValue
1.428

@<SCITEGIC>MOL_PROPERTY
VdW
SciTegic.value.DoubleValue
0.335

@<SCITEGIC>MOL_PROPERTY
VdW6
SciTegic.value.DoubleValue
-5.021

@<SCITEGIC>MOL_PROPERTY
VdW12
SciTegic.value.DoubleValue
5.356

@<SCITEGIC>MOL_PROPERTY
Bond
SciTegic.value.DoubleValue
0.092

@<SCITEGIC>MOL_PROPERTY
Angle
SciTegic.value.DoubleValue
2.417

@<SCITEGIC>MOL_PROPERTY
Pdih
SciTegic.value.DoubleValue
4.003

@<SCITEGIC>MOL_PROPERTY
Idih
SciTegic.value.DoubleValue
0.001

@<SCITEGIC>MOL_PROPERTY
Tether
SciTegic.value.DoubleValue
0.000

@<TRIPOS>MOLECULE
guest-s18_confgen4.mol2 : confsearch ligand conformer 706
          16          15           1
SMALL
USER_CHARGES
 
@<TRIPOS>ATOM
       1    C1      19.597616   19.058155   24.440708 C.2        1 MOL1         0.6075
       2    O1      19.716585   17.937460   24.894834 O.co2      1 MOL1        -0.6830
       3    O2      18.673943   19.798568   24.714348 O.co2      1 MOL1        -0.6830
       4    C2      20.680056   19.569889   23.494162 C.3        1 MOL1        -0.2050
       5    H1      21.650334   19.317541   23.938140 H          1 MOL1         0.0710
       6    H2      20.623793   20.664646   23.456377 H          1 MOL1         0.0710
       7    C3      20.597786   18.980374   22.062119 C.3        1 MOL1        -0.1947
       8    H3      21.486711   19.291701   21.496923 H          1 MOL1         0.0712
       9    H4      20.626544   17.883241   22.117748 H          1 MOL1         0.0712
      10    C4      19.329920   19.432565   21.305661 C.3        1 MOL1        -0.1921
      11    H5      19.296225   20.529973   21.261630 H          1 MOL1         0.0712
      12    H6      18.433143   19.108414   21.851959 H          1 MOL1         0.0712
      13    C5      19.289855   18.860293   19.874839 C.3        1 MOL1        -0.2936
      14    H7      20.158005   19.196163   19.292669 H          1 MOL1         0.0724
      15    H8      18.382823   19.190210   19.351804 H          1 MOL1         0.0724
      16    H9      19.291460   17.762484   19.891100 H          1 MOL1         0.0724
@<TRIPOS>BOND
    1     1     2    1
    2     1     3    2
    3     1     4    1
    4     4     5    1
    5     4     6    1
    6     4     7    1
    7     7     8    1
    8     7     9    1
    9     7    10    1
   10    10    11    1
   11    10    12    1
   12    10    13    1
   13    13    14    1
   14    13    15    1
   15    13    16    1
@<TRIPOS>SUBSTRUCTURE
       1 MOL1            1 RESIDUE      1      MOL     
@<SCITEGIC>MOL_PROPERTY
VConf Rank
SciTegic.value.IntegerValue
706

@<SCITEGIC>MOL_PROPERTY
Conf_Id
SciTegic.value.IntegerValue
20

@<SCITEGIC>MOL_PROPERTY
Delta U+W
SciTegic.value.DoubleValue
-0.010

@<SCITEGIC>MOL_PROPERTY
U+W
SciTegic.value.DoubleValue
-56.914

@<SCITEGIC>MOL_PROPERTY
Grad RMS
SciTegic.value.DoubleValue
0.000000

@<SCITEGIC>MOL_PROPERTY
U
SciTegic.value.DoubleValue
8.277

@<SCITEGIC>MOL_PROPERTY
W
SciTegic.value.DoubleValue
-65.191

@<SCITEGIC>MOL_PROPERTY
W(PB)
SciTegic.value.DoubleValue
-67.081

@<SCITEGIC>MOL_PROPERTY
W(SA)
SciTegic.value.DoubleValue
1.890

@<SCITEGIC>MOL_PROPERTY
Valence
SciTegic.value.DoubleValue
6.513

@<SCITEGIC>MOL_PROPERTY
Coulomb
SciTegic.value.DoubleValue
1.429

@<SCITEGIC>MOL_PROPERTY
VdW
SciTegic.value.DoubleValue
0.335

@<SCITEGIC>MOL_PROPERTY
VdW6
SciTegic.value.DoubleValue
-5.021

@<SCITEGIC>MOL_PROPERTY
VdW12
SciTegic.value.DoubleValue
5.356

@<SCITEGIC>MOL_PROPERTY
Bond
SciTegic.value.DoubleValue
0.092

@<SCITEGIC>MOL_PROPERTY
Angle
SciTegic.value.DoubleValue
2.417

@<SCITEGIC>MOL_PROPERTY
Pdih
SciTegic.value.DoubleValue
4.002

@<SCITEGIC>MOL_PROPERTY
Idih
SciTegic.value.DoubleValue
0.001

@<SCITEGIC>MOL_PROPERTY
Tether
SciTegic.value.DoubleValue
0.000

@<TRIPOS>MOLECULE
guest-s18_confgen4.mol2 : confsearch ligand conformer 707
          16          15           1
SMALL
USER_CHARGES
 
@<TRIPOS>ATOM
       1    C1      20.113411   18.972437   24.298610 C.2        1 MOL1         0.6075
       2    O1      20.203725   17.900899   24.864681 O.co2      1 MOL1        -0.6830
       3    O2      19.401880   19.877619   24.686771 O.co2      1 MOL1        -0.6830
       4    C2      20.965886   19.202787   23.053632 C.3        1 MOL1        -0.2050
       5    H1      21.995369   18.924748   23.308075 H          1 MOL1         0.0710
       6    H2      20.980648   20.275809   22.830804 H          1 MOL1         0.0710
       7    C3      20.508270   18.391680   21.810503 C.3        1 MOL1        -0.1947
       8    H3      21.220897   18.555941   20.991020 H          1 MOL1         0.0712
       9    H4      20.556772   17.320569   22.050760 H          1 MOL1         0.0712
      10    C4      19.080627   18.729400   21.318800 C.3        1 MOL1        -0.1921
      11    H5      18.353232   18.535849   22.119444 H          1 MOL1         0.0712
      12    H6      18.821658   18.050023   20.495083 H          1 MOL1         0.0712
      13    C5      18.934440   20.185482   20.827988 C.3        1 MOL1        -0.2936
      14    H7      19.064190   20.898277   21.652352 H          1 MOL1         0.0724
      15    H8      17.935638   20.348491   20.402918 H          1 MOL1         0.0724
      16    H9      19.674958   20.415736   20.051018 H          1 MOL1         0.0724
@<TRIPOS>BOND
    1     1     2    1
    2     1     3    2
    3     1     4    1
    4     4     5    1
    5     4     6    1
    6     4     7    1
    7     7     8    1
    8     7     9    1
    9     7    10    1
   10    10    11    1
   11    10    12    1
   12    10    13    1
   13    13    14    1
   14    13    15    1
   15    13    16    1
@<TRIPOS>SUBSTRUCTURE
       1 MOL1            1 RESIDUE      1      MOL     
@<SCITEGIC>MOL_PROPERTY
VConf Rank
SciTegic.value.IntegerValue
707

@<SCITEGIC>MOL_PROPERTY
Conf_Id
SciTegic.value.IntegerValue
37

@<SCITEGIC>MOL_PROPERTY
Delta U+W
SciTegic.value.DoubleValue
1.063

@<SCITEGIC>MOL_PROPERTY
U+W
SciTegic.value.DoubleValue
-55.841

@<SCITEGIC>MOL_PROPERTY
Grad RMS
SciTegic.value.DoubleValue
0.000000

@<SCITEGIC>MOL_PROPERTY
U
SciTegic.value.DoubleValue
9.719

@<SCITEGIC>MOL_PROPERTY
W
SciTegic.value.DoubleValue
-65.560

@<SCITEGIC>MOL_PROPERTY
W(PB)
SciTegic.value.DoubleValue
-67.414

@<SCITEGIC>MOL_PROPERTY
W(SA)
SciTegic.value.DoubleValue
1.854

@<SCITEGIC>MOL_PROPERTY
Valence
SciTegic.value.DoubleValue
7.002

@<SCITEGIC>MOL_PROPERTY
Coulomb
SciTegic.value.DoubleValue
2.402

@<SCITEGIC>MOL_PROPERTY
VdW
SciTegic.value.DoubleValue
0.314

@<SCITEGIC>MOL_PROPERTY
VdW6
SciTegic.value.DoubleValue
-5.861

@<SCITEGIC>MOL_PROPERTY
VdW12
SciTegic.value.DoubleValue
6.175

@<SCITEGIC>MOL_PROPERTY
Bond
SciTegic.value.DoubleValue
0.134

@<SCITEGIC>MOL_PROPERTY
Angle
SciTegic.value.DoubleValue
2.733

@<SCITEGIC>MOL_PROPERTY
Pdih
SciTegic.value.DoubleValue
4.133

@<SCITEGIC>MOL_PROPERTY
Idih
SciTegic.value.DoubleValue
0.002

@<SCITEGIC>MOL_PROPERTY
Tether
SciTegic.value.DoubleValue
0.000

@<TRIPOS>MOLECULE
guest-s18_confgen4.mol2 : confsearch ligand conformer 708
          16          15           1
SMALL
USER_CHARGES
 
@<TRIPOS>ATOM
       1    C1      18.156290   18.976001   21.355908 C.2        1 MOL1         0.6075
       2    O1      17.263550   19.757479   21.618765 O.co2      1 MOL1        -0.6830
       3    O2      18.411270   18.604625   20.227473 O.co2      1 MOL1        -0.6830
       4    C2      18.976583   18.405787   22.509911 C.3        1 MOL1        -0.2050
       5    H1      19.535911   17.535562   22.147823 H          1 MOL1         0.0710
       6    H2      18.268669   18.030058   23.257954 H          1 MOL1         0.0710
       7    C3      19.932395   19.431506   23.178495 C.3        1 MOL1        -0.1947
       8    H3      19.334648   20.262862   23.577118 H          1 MOL1         0.0712
       9    H4      20.418969   18.959978   24.042948 H          1 MOL1         0.0712
      10    C4      21.016155   20.003233   22.233728 C.3        1 MOL1        -0.1921
      11    H5      21.583120   20.774181   22.773465 H          1 MOL1         0.0712
      12    H6      20.541125   20.508725   21.381424 H          1 MOL1         0.0712
      13    C5      21.999883   18.931910   21.717020 C.3        1 MOL1        -0.2936
      14    H7      22.462486   18.387000   22.550169 H          1 MOL1         0.0724
      15    H8      22.801896   19.398584   21.130632 H          1 MOL1         0.0724
      16    H9      21.493347   18.206659   21.067466 H          1 MOL1         0.0724
@<TRIPOS>BOND
    1     1     2    1
    2     1     3    2
    3     1     4    1
    4     4     5    1
    5     4     6    1
    6     4     7    1
    7     7     8    1
    8     7     9    1
    9     7    10    1
   10    10    11    1
   11    10    12    1
   12    10    13    1
   13    13    14    1
   14    13    15    1
   15    13    16    1
@<TRIPOS>SUBSTRUCTURE
       1 MOL1            1 RESIDUE      1      MOL     
@<SCITEGIC>MOL_PROPERTY
VConf Rank
SciTegic.value.IntegerValue
708

@<SCITEGIC>MOL_PROPERTY
Conf_Id
SciTegic.value.IntegerValue
39

@<SCITEGIC>MOL_PROPERTY
Delta U+W
SciTegic.value.DoubleValue
1.129

@<SCITEGIC>MOL_PROPERTY
U+W
SciTegic.value.DoubleValue
-55.775

@<SCITEGIC>MOL_PROPERTY
Grad RMS
SciTegic.value.DoubleValue
0.000000

@<SCITEGIC>MOL_PROPERTY
U
SciTegic.value.DoubleValue
9.718

@<SCITEGIC>MOL_PROPERTY
W
SciTegic.value.DoubleValue
-65.493

@<SCITEGIC>MOL_PROPERTY
W(PB)
SciTegic.value.DoubleValue
-67.361

@<SCITEGIC>MOL_PROPERTY
W(SA)
SciTegic.value.DoubleValue
1.869

@<SCITEGIC>MOL_PROPERTY
Valence
SciTegic.value.DoubleValue
7.002

@<SCITEGIC>MOL_PROPERTY
Coulomb
SciTegic.value.DoubleValue
2.402

@<SCITEGIC>MOL_PROPERTY
VdW
SciTegic.value.DoubleValue
0.314

@<SCITEGIC>MOL_PROPERTY
VdW6
SciTegic.value.DoubleValue
-5.861

@<SCITEGIC>MOL_PROPERTY
VdW12
SciTegic.value.DoubleValue
6.175

@<SCITEGIC>MOL_PROPERTY
Bond
SciTegic.value.DoubleValue
0.134

@<SCITEGIC>MOL_PROPERTY
Angle
SciTegic.value.DoubleValue
2.734

@<SCITEGIC>MOL_PROPERTY
Pdih
SciTegic.value.DoubleValue
4.133

@<SCITEGIC>MOL_PROPERTY
Idih
SciTegic.value.DoubleValue
0.002

@<SCITEGIC>MOL_PROPERTY
Tether
SciTegic.value.DoubleValue
0.000

@<TRIPOS>MOLECULE
guest-s18_confgen4.mol2 : confsearch ligand conformer 709
          16          15           1
SMALL
USER_CHARGES
 
@<TRIPOS>ATOM
       1    C1      21.747270   18.776639   22.956770 C.2        1 MOL1         0.6075
       2    O1      21.786544   17.820065   23.705264 O.co2      1 MOL1        -0.6830
       3    O2      22.245291   19.853330   23.221102 O.co2      1 MOL1        -0.6830
       4    C2      21.118509   18.587457   21.577450 C.3        1 MOL1        -0.2050
       5    H1      20.792680   17.545320   21.473695 H          1 MOL1         0.0710
       6    H2      21.922916   18.738174   20.848092 H          1 MOL1         0.0710
       7    C3      19.946827   19.553093   21.243248 C.3        1 MOL1        -0.1947
       8    H3      20.208700   20.577431   21.542740 H          1 MOL1         0.0712
       9    H4      19.828853   19.577801   20.151495 H          1 MOL1         0.0712
      10    C4      18.583263   19.152452   21.856227 C.3        1 MOL1        -0.1921
      11    H5      18.326073   18.127266   21.556098 H          1 MOL1         0.0712
      12    H6      17.806580   19.802515   21.430229 H          1 MOL1         0.0712
      13    C5      18.531204   19.271700   23.393548 C.3        1 MOL1        -0.2936
      14    H7      19.172350   18.522785   23.874232 H          1 MOL1         0.0724
      15    H8      17.507816   19.111572   23.756596 H          1 MOL1         0.0724
      16    H9      18.856414   20.267220   23.722954 H          1 MOL1         0.0724
@<TRIPOS>BOND
    1     1     2    1
    2     1     3    2
    3     1     4    1
    4     4     5    1
    5     4     6    1
    6     4     7    1
    7     7     8    1
    8     7     9    1
    9     7    10    1
   10    10    11    1
   11    10    12    1
   12    10    13    1
   13    13    14    1
   14    13    15    1
   15    13    16    1
@<TRIPOS>SUBSTRUCTURE
       1 MOL1            1 RESIDUE      1      MOL     
@<SCITEGIC>MOL_PROPERTY
VConf Rank
SciTegic.value.IntegerValue
709

@<SCITEGIC>MOL_PROPERTY
Conf_Id
SciTegic.value.IntegerValue
47

@<SCITEGIC>MOL_PROPERTY
Delta U+W
SciTegic.value.DoubleValue
2.301

@<SCITEGIC>MOL_PROPERTY
U+W
SciTegic.value.DoubleValue
-54.603

@<SCITEGIC>MOL_PROPERTY
Grad RMS
SciTegic.value.DoubleValue
0.000000

@<SCITEGIC>MOL_PROPERTY
U
SciTegic.value.DoubleValue
11.258

@<SCITEGIC>MOL_PROPERTY
W
SciTegic.value.DoubleValue
-65.861

@<SCITEGIC>MOL_PROPERTY
W(PB)
SciTegic.value.DoubleValue
-67.702

@<SCITEGIC>MOL_PROPERTY
W(SA)
SciTegic.value.DoubleValue
1.841

@<SCITEGIC>MOL_PROPERTY
Valence
SciTegic.value.DoubleValue
8.169

@<SCITEGIC>MOL_PROPERTY
Coulomb
SciTegic.value.DoubleValue
2.735

@<SCITEGIC>MOL_PROPERTY
VdW
SciTegic.value.DoubleValue
0.355

@<SCITEGIC>MOL_PROPERTY
VdW6
SciTegic.value.DoubleValue
-6.245

@<SCITEGIC>MOL_PROPERTY
VdW12
SciTegic.value.DoubleValue
6.600

@<SCITEGIC>MOL_PROPERTY
Bond
SciTegic.value.DoubleValue
0.149

@<SCITEGIC>MOL_PROPERTY
Angle
SciTegic.value.DoubleValue
3.168

@<SCITEGIC>MOL_PROPERTY
Pdih
SciTegic.value.DoubleValue
4.840

@<SCITEGIC>MOL_PROPERTY
Idih
SciTegic.value.DoubleValue
0.011

@<SCITEGIC>MOL_PROPERTY
Tether
SciTegic.value.DoubleValue
0.000

@<TRIPOS>MOLECULE
guest-s18_confgen4.mol2 : confsearch ligand conformer 710
          16          15           1
SMALL
USER_CHARGES
 
@<TRIPOS>ATOM
       1    C1      18.242811   17.966757   22.273520 C.2        1 MOL1         0.6075
       2    O1      17.293682   18.645499   22.613550 O.co2      1 MOL1        -0.6830
       3    O2      18.478751   16.867955   22.735889 O.co2      1 MOL1        -0.6830
       4    C2      19.133823   18.480210   21.143860 C.3        1 MOL1        -0.2050
       5    H1      18.491330   18.569578   20.260138 H          1 MOL1         0.0710
       6    H2      19.886349   17.717836   20.908341 H          1 MOL1         0.0710
       7    C3      19.820332   19.849612   21.409244 C.3        1 MOL1        -0.1947
       8    H3      20.114845   20.274583   20.440165 H          1 MOL1         0.0712
       9    H4      19.096069   20.554131   21.841258 H          1 MOL1         0.0712
      10    C4      21.086052   19.777596   22.297123 C.3        1 MOL1        -0.1921
      11    H5      21.574367   20.761834   22.286200 H          1 MOL1         0.0712
      12    H6      21.806701   19.070980   21.862853 H          1 MOL1         0.0712
      13    C5      20.798758   19.390854   23.762789 C.3        1 MOL1        -0.2936
      14    H7      21.706495   19.491968   24.371525 H          1 MOL1         0.0724
      15    H8      20.462652   18.349870   23.842698 H          1 MOL1         0.0724
      16    H9      20.025138   20.037754   24.196795 H          1 MOL1         0.0724
@<TRIPOS>BOND
    1     1     2    1
    2     1     3    2
    3     1     4    1
    4     4     5    1
    5     4     6    1
    6     4     7    1
    7     7     8    1
    8     7     9    1
    9     7    10    1
   10    10    11    1
   11    10    12    1
   12    10    13    1
   13    13    14    1
   14    13    15    1
   15    13    16    1
@<TRIPOS>SUBSTRUCTURE
       1 MOL1            1 RESIDUE      1      MOL     
@<SCITEGIC>MOL_PROPERTY
VConf Rank
SciTegic.value.IntegerValue
710

@<SCITEGIC>MOL_PROPERTY
Conf_Id
SciTegic.value.IntegerValue
45

@<SCITEGIC>MOL_PROPERTY
Delta U+W
SciTegic.value.DoubleValue
2.303

@<SCITEGIC>MOL_PROPERTY
U+W
SciTegic.value.DoubleValue
-54.601

@<SCITEGIC>MOL_PROPERTY
Grad RMS
SciTegic.value.DoubleValue
0.000000

@<SCITEGIC>MOL_PROPERTY
U
SciTegic.value.DoubleValue
11.258

@<SCITEGIC>MOL_PROPERTY
W
SciTegic.value.DoubleValue
-65.860

@<SCITEGIC>MOL_PROPERTY
W(PB)
SciTegic.value.DoubleValue
-67.709

@<SCITEGIC>MOL_PROPERTY
W(SA)
SciTegic.value.DoubleValue
1.849

@<SCITEGIC>MOL_PROPERTY
Valence
SciTegic.value.DoubleValue
8.169

@<SCITEGIC>MOL_PROPERTY
Coulomb
SciTegic.value.DoubleValue
2.735

@<SCITEGIC>MOL_PROPERTY
VdW
SciTegic.value.DoubleValue
0.355

@<SCITEGIC>MOL_PROPERTY
VdW6
SciTegic.value.DoubleValue
-6.245

@<SCITEGIC>MOL_PROPERTY
VdW12
SciTegic.value.DoubleValue
6.600

@<SCITEGIC>MOL_PROPERTY
Bond
SciTegic.value.DoubleValue
0.149

@<SCITEGIC>MOL_PROPERTY
Angle
SciTegic.value.DoubleValue
3.168

@<SCITEGIC>MOL_PROPERTY
Pdih
SciTegic.value.DoubleValue
4.840

@<SCITEGIC>MOL_PROPERTY
Idih
SciTegic.value.DoubleValue
0.011

@<SCITEGIC>MOL_PROPERTY
Tether
SciTegic.value.DoubleValue
0.000

@<TRIPOS>MOLECULE
guest-s18_confgen4.mol2 : confsearch ligand conformer 711
          16          15           1
SMALL
USER_CHARGES
 
@<TRIPOS>ATOM
       1    C1      19.743756   21.005464   23.928652 C.2        1 MOL1         0.6075
       2    O1      18.623954   21.344562   23.598754 O.co2      1 MOL1        -0.6830
       3    O2      20.333819   21.496037   24.870181 O.co2      1 MOL1        -0.6830
       4    C2      20.470166   19.913305   23.141626 C.3        1 MOL1        -0.2050
       5    H1      20.728050   19.116526   23.849297 H          1 MOL1         0.0710
       6    H2      21.413705   20.341162   22.782688 H          1 MOL1         0.0710
       7    C3      19.677990   19.317043   21.947776 C.3        1 MOL1        -0.1947
       8    H3      18.731411   18.894825   22.312727 H          1 MOL1         0.0712
       9    H4      19.417789   20.120719   21.245017 H          1 MOL1         0.0712
      10    C4      20.483903   18.225544   21.212663 C.3        1 MOL1        -0.1921
      11    H5      20.743264   17.420320   21.913980 H          1 MOL1         0.0712
      12    H6      21.430059   18.646937   20.845626 H          1 MOL1         0.0712
      13    C5      19.691989   17.637292   20.028191 C.3        1 MOL1        -0.2936
      14    H7      18.754165   17.180667   20.370899 H          1 MOL1         0.0724
      15    H8      20.278884   16.863247   19.516771 H          1 MOL1         0.0724
      16    H9      19.446024   18.416331   19.294659 H          1 MOL1         0.0724
@<TRIPOS>BOND
    1     1     2    1
    2     1     3    2
    3     1     4    1
    4     4     5    1
    5     4     6    1
    6     4     7    1
    7     7     8    1
    8     7     9    1
    9     7    10    1
   10    10    11    1
   11    10    12    1
   12    10    13    1
   13    13    14    1
   14    13    15    1
   15    13    16    1
@<TRIPOS>SUBSTRUCTURE
       1 MOL1            1 RESIDUE      1      MOL     
@<SCITEGIC>MOL_PROPERTY
VConf Rank
SciTegic.value.IntegerValue
711

@<SCITEGIC>MOL_PROPERTY
Conf_Id
SciTegic.value.IntegerValue
0

@<SCITEGIC>MOL_PROPERTY
Delta U+W
SciTegic.value.DoubleValue
0.000

@<SCITEGIC>MOL_PROPERTY
U+W
SciTegic.value.DoubleValue
-56.904

@<SCITEGIC>MOL_PROPERTY
Grad RMS
SciTegic.value.DoubleValue
0.000000

@<SCITEGIC>MOL_PROPERTY
U
SciTegic.value.DoubleValue
7.329

@<SCITEGIC>MOL_PROPERTY
W
SciTegic.value.DoubleValue
-64.233

@<SCITEGIC>MOL_PROPERTY
W(PB)
SciTegic.value.DoubleValue
-66.148

@<SCITEGIC>MOL_PROPERTY
W(SA)
SciTegic.value.DoubleValue
1.915

@<SCITEGIC>MOL_PROPERTY
Valence
SciTegic.value.DoubleValue
6.755

@<SCITEGIC>MOL_PROPERTY
Coulomb
SciTegic.value.DoubleValue
-0.421

@<SCITEGIC>MOL_PROPERTY
VdW
SciTegic.value.DoubleValue
0.995

@<SCITEGIC>MOL_PROPERTY
VdW6
SciTegic.value.DoubleValue
-4.495

@<SCITEGIC>MOL_PROPERTY
VdW12
SciTegic.value.DoubleValue
5.490

@<SCITEGIC>MOL_PROPERTY
Bond
SciTegic.value.DoubleValue
0.106

@<SCITEGIC>MOL_PROPERTY
Angle
SciTegic.value.DoubleValue
2.715

@<SCITEGIC>MOL_PROPERTY
Pdih
SciTegic.value.DoubleValue
3.934

@<SCITEGIC>MOL_PROPERTY
Idih
SciTegic.value.DoubleValue
0.000

@<SCITEGIC>MOL_PROPERTY
Tether
SciTegic.value.DoubleValue
0.000

@<TRIPOS>MOLECULE
guest-s18_confgen4.mol2 : confsearch ligand conformer 712
          16          15           1
SMALL
USER_CHARGES
 
@<TRIPOS>ATOM
       1    C1      21.128964   20.825829   23.778726 C.2        1 MOL1         0.6075
       2    O1      21.293518   20.346428   24.882782 O.co2      1 MOL1        -0.6830
       3    O2      21.839281   21.692707   23.309879 O.co2      1 MOL1        -0.6830
       4    C2      19.979176   20.297908   22.927921 C.3        1 MOL1        -0.2050
       5    H1      19.611292   21.120888   22.303248 H          1 MOL1         0.0710
       6    H2      19.161404   20.010847   23.600004 H          1 MOL1         0.0710
       7    C3      20.388023   19.096118   22.041012 C.3        1 MOL1        -0.1947
       8    H3      21.215472   19.395557   21.382822 H          1 MOL1         0.0712
       9    H4      20.765631   18.285483   22.679630 H          1 MOL1         0.0712
      10    C4      19.207432   18.581760   21.191187 C.3        1 MOL1        -0.1921
      11    H5      18.829973   19.391941   20.551915 H          1 MOL1         0.0712
      12    H6      18.379995   18.281614   21.849062 H          1 MOL1         0.0712
      13    C5      19.621589   17.385856   20.311193 C.3        1 MOL1        -0.2936
      14    H7      19.974266   16.548324   20.927334 H          1 MOL1         0.0724
      15    H8      20.427585   17.666847   19.620623 H          1 MOL1         0.0724
      16    H9      18.771141   17.032486   19.713685 H          1 MOL1         0.0724
@<TRIPOS>BOND
    1     1     2    1
    2     1     3    2
    3     1     4    1
    4     4     5    1
    5     4     6    1
    6     4     7    1
    7     7     8    1
    8     7     9    1
    9     7    10    1
   10    10    11    1
   11    10    12    1
   12    10    13    1
   13    13    14    1
   14    13    15    1
   15    13    16    1
@<TRIPOS>SUBSTRUCTURE
       1 MOL1            1 RESIDUE      1      MOL     
@<SCITEGIC>MOL_PROPERTY
VConf Rank
SciTegic.value.IntegerValue
712

@<SCITEGIC>MOL_PROPERTY
Conf_Id
SciTegic.value.IntegerValue
22

@<SCITEGIC>MOL_PROPERTY
Delta U+W
SciTegic.value.DoubleValue
-1.185

@<SCITEGIC>MOL_PROPERTY
U+W
SciTegic.value.DoubleValue
-58.089

@<SCITEGIC>MOL_PROPERTY
Grad RMS
SciTegic.value.DoubleValue
0.000000

@<SCITEGIC>MOL_PROPERTY
U
SciTegic.value.DoubleValue
6.298

@<SCITEGIC>MOL_PROPERTY
W
SciTegic.value.DoubleValue
-64.387

@<SCITEGIC>MOL_PROPERTY
W(PB)
SciTegic.value.DoubleValue
-66.329

@<SCITEGIC>MOL_PROPERTY
W(SA)
SciTegic.value.DoubleValue
1.942

@<SCITEGIC>MOL_PROPERTY
Valence
SciTegic.value.DoubleValue
6.246

@<SCITEGIC>MOL_PROPERTY
Coulomb
SciTegic.value.DoubleValue
-0.408

@<SCITEGIC>MOL_PROPERTY
VdW
SciTegic.value.DoubleValue
0.460

@<SCITEGIC>MOL_PROPERTY
VdW6
SciTegic.value.DoubleValue
-4.207

@<SCITEGIC>MOL_PROPERTY
VdW12
SciTegic.value.DoubleValue
4.667

@<SCITEGIC>MOL_PROPERTY
Bond
SciTegic.value.DoubleValue
0.072

@<SCITEGIC>MOL_PROPERTY
Angle
SciTegic.value.DoubleValue
2.246

@<SCITEGIC>MOL_PROPERTY
Pdih
SciTegic.value.DoubleValue
3.928

@<SCITEGIC>MOL_PROPERTY
Idih
SciTegic.value.DoubleValue
0.001

@<SCITEGIC>MOL_PROPERTY
Tether
SciTegic.value.DoubleValue
0.000

@<TRIPOS>MOLECULE
guest-s18_confgen4.mol2 : confsearch ligand conformer 713
          16          15           1
SMALL
USER_CHARGES
 
@<TRIPOS>ATOM
       1    C1      20.349942   17.779450   19.824574 C.2        1 MOL1         0.6075
       2    O1      20.881045   16.686803   19.831220 O.co2      1 MOL1        -0.6830
       3    O2      20.284582   18.488323   18.840103 O.co2      1 MOL1        -0.6830
       4    C2      19.750857   18.297271   21.127468 C.3        1 MOL1        -0.2050
       5    H1      19.380487   17.436838   21.697597 H          1 MOL1         0.0710
       6    H2      18.883244   18.916880   20.873601 H          1 MOL1         0.0710
       7    C3      20.766673   19.104015   21.977337 C.3        1 MOL1        -0.1947
       8    H3      21.660304   18.485779   22.140540 H          1 MOL1         0.0712
       9    H4      21.098169   19.986270   21.412498 H          1 MOL1         0.0712
      10    C4      20.208614   19.542713   23.350844 C.3        1 MOL1        -0.1921
      11    H5      21.018890   20.008020   23.928989 H          1 MOL1         0.0712
      12    H6      19.887912   18.659589   23.920601 H          1 MOL1         0.0712
      13    C5      19.037875   20.542818   23.240867 C.3        1 MOL1        -0.2936
      14    H7      18.160717   20.082892   22.768803 H          1 MOL1         0.0724
      15    H8      19.326379   21.421999   22.650058 H          1 MOL1         0.0724
      16    H9      18.735027   20.889910   24.237269 H          1 MOL1         0.0724
@<TRIPOS>BOND
    1     1     2    1
    2     1     3    2
    3     1     4    1
    4     4     5    1
    5     4     6    1
    6     4     7    1
    7     7     8    1
    8     7     9    1
    9     7    10    1
   10    10    11    1
   11    10    12    1
   12    10    13    1
   13    13    14    1
   14    13    15    1
   15    13    16    1
@<TRIPOS>SUBSTRUCTURE
       1 MOL1            1 RESIDUE      1      MOL     
@<SCITEGIC>MOL_PROPERTY
VConf Rank
SciTegic.value.IntegerValue
713

@<SCITEGIC>MOL_PROPERTY
Conf_Id
SciTegic.value.IntegerValue
36

@<SCITEGIC>MOL_PROPERTY
Delta U+W
SciTegic.value.DoubleValue
-0.427

@<SCITEGIC>MOL_PROPERTY
U+W
SciTegic.value.DoubleValue
-57.331

@<SCITEGIC>MOL_PROPERTY
Grad RMS
SciTegic.value.DoubleValue
0.000000

@<SCITEGIC>MOL_PROPERTY
U
SciTegic.value.DoubleValue
7.263

@<SCITEGIC>MOL_PROPERTY
W
SciTegic.value.DoubleValue
-64.594

@<SCITEGIC>MOL_PROPERTY
W(PB)
SciTegic.value.DoubleValue
-66.513

@<SCITEGIC>MOL_PROPERTY
W(SA)
SciTegic.value.DoubleValue
1.920

@<SCITEGIC>MOL_PROPERTY
Valence
SciTegic.value.DoubleValue
6.734

@<SCITEGIC>MOL_PROPERTY
Coulomb
SciTegic.value.DoubleValue
-0.068

@<SCITEGIC>MOL_PROPERTY
VdW
SciTegic.value.DoubleValue
0.598

@<SCITEGIC>MOL_PROPERTY
VdW6
SciTegic.value.DoubleValue
-4.819

@<SCITEGIC>MOL_PROPERTY
VdW12
SciTegic.value.DoubleValue
5.417

@<SCITEGIC>MOL_PROPERTY
Bond
SciTegic.value.DoubleValue
0.107

@<SCITEGIC>MOL_PROPERTY
Angle
SciTegic.value.DoubleValue
2.469

@<SCITEGIC>MOL_PROPERTY
Pdih
SciTegic.value.DoubleValue
4.157

@<SCITEGIC>MOL_PROPERTY
Idih
SciTegic.value.DoubleValue
0.001

@<SCITEGIC>MOL_PROPERTY
Tether
SciTegic.value.DoubleValue
0.000

@<TRIPOS>MOLECULE
guest-s18_confgen4.mol2 : confsearch ligand conformer 714
          16          15           1
SMALL
USER_CHARGES
 
@<TRIPOS>ATOM
       1    C1      19.231508   20.506674   24.062761 C.2        1 MOL1         0.6075
       2    O1      18.132841   20.998645   23.898893 O.co2      1 MOL1        -0.6830
       3    O2      20.022878   20.894299   24.899107 O.co2      1 MOL1        -0.6830
       4    C2      19.647971   19.353417   23.156599 C.3        1 MOL1        -0.2050
       5    H1      18.747801   18.777718   22.912915 H          1 MOL1         0.0710
       6    H2      20.311301   18.693463   23.728457 H          1 MOL1         0.0710
       7    C3      20.356104   19.831385   21.862346 C.3        1 MOL1        -0.1947
       8    H3      19.667519   20.456541   21.277249 H          1 MOL1         0.0712
       9    H4      21.201504   20.476162   22.139819 H          1 MOL1         0.0712
      10    C4      20.882539   18.672288   20.984983 C.3        1 MOL1        -0.1921
      11    H5      21.580240   18.053777   21.566394 H          1 MOL1         0.0712
      12    H6      21.461644   19.094604   20.152159 H          1 MOL1         0.0712
      13    C5      19.757884   17.785092   20.409687 C.3        1 MOL1        -0.2936
      14    H7      19.222076   17.251337   21.204544 H          1 MOL1         0.0724
      15    H8      20.173972   17.033076   19.726790 H          1 MOL1         0.0724
      16    H9      19.031505   18.386659   19.847778 H          1 MOL1         0.0724
@<TRIPOS>BOND
    1     1     2    1
    2     1     3    2
    3     1     4    1
    4     4     5    1
    5     4     6    1
    6     4     7    1
    7     7     8    1
    8     7     9    1
    9     7    10    1
   10    10    11    1
   11    10    12    1
   12    10    13    1
   13    13    14    1
   14    13    15    1
   15    13    16    1
@<TRIPOS>SUBSTRUCTURE
       1 MOL1            1 RESIDUE      1      MOL     
@<SCITEGIC>MOL_PROPERTY
VConf Rank
SciTegic.value.IntegerValue
714

@<SCITEGIC>MOL_PROPERTY
Conf_Id
SciTegic.value.IntegerValue
17

@<SCITEGIC>MOL_PROPERTY
Delta U+W
SciTegic.value.DoubleValue
-0.432

@<SCITEGIC>MOL_PROPERTY
U+W
SciTegic.value.DoubleValue
-57.336

@<SCITEGIC>MOL_PROPERTY
Grad RMS
SciTegic.value.DoubleValue
0.000000

@<SCITEGIC>MOL_PROPERTY
U
SciTegic.value.DoubleValue
7.263

@<SCITEGIC>MOL_PROPERTY
W
SciTegic.value.DoubleValue
-64.599

@<SCITEGIC>MOL_PROPERTY
W(PB)
SciTegic.value.DoubleValue
-66.503

@<SCITEGIC>MOL_PROPERTY
W(SA)
SciTegic.value.DoubleValue
1.904

@<SCITEGIC>MOL_PROPERTY
Valence
SciTegic.value.DoubleValue
6.734

@<SCITEGIC>MOL_PROPERTY
Coulomb
SciTegic.value.DoubleValue
-0.068

@<SCITEGIC>MOL_PROPERTY
VdW
SciTegic.value.DoubleValue
0.598

@<SCITEGIC>MOL_PROPERTY
VdW6
SciTegic.value.DoubleValue
-4.819

@<SCITEGIC>MOL_PROPERTY
VdW12
SciTegic.value.DoubleValue
5.417

@<SCITEGIC>MOL_PROPERTY
Bond
SciTegic.value.DoubleValue
0.107

@<SCITEGIC>MOL_PROPERTY
Angle
SciTegic.value.DoubleValue
2.469

@<SCITEGIC>MOL_PROPERTY
Pdih
SciTegic.value.DoubleValue
4.157

@<SCITEGIC>MOL_PROPERTY
Idih
SciTegic.value.DoubleValue
0.001

@<SCITEGIC>MOL_PROPERTY
Tether
SciTegic.value.DoubleValue
0.000

@<TRIPOS>MOLECULE
guest-s18_confgen4.mol2 : confsearch ligand conformer 715
          16          15           1
SMALL
USER_CHARGES
 
@<TRIPOS>ATOM
       1    C1      20.778479   19.668739   19.875026 C.2        1 MOL1         0.6075
       2    O1      20.023786   19.228646   19.030574 O.co2      1 MOL1        -0.6830
       3    O2      21.162987   20.821109   19.896418 O.co2      1 MOL1        -0.6830
       4    C2      21.288555   18.714968   20.951889 C.3        1 MOL1        -0.2050
       5    H1      22.191988   19.144761   21.401523 H          1 MOL1         0.0710
       6    H2      21.593630   17.788170   20.451680 H          1 MOL1         0.0710
       7    C3      20.246195   18.389216   22.052983 C.3        1 MOL1        -0.1947
       8    H3      19.336680   17.986575   21.585773 H          1 MOL1         0.0712
       9    H4      20.646750   17.596861   22.699735 H          1 MOL1         0.0712
      10    C4      19.890198   19.618974   22.916199 C.3        1 MOL1        -0.1921
      11    H5      19.468992   20.411524   22.282027 H          1 MOL1         0.0712
      12    H6      20.802212   20.027890   23.372702 H          1 MOL1         0.0712
      13    C5      18.878950   19.260322   24.023038 C.3        1 MOL1        -0.2936
      14    H7      17.944705   18.877259   23.591878 H          1 MOL1         0.0724
      15    H8      18.636236   20.144810   24.626268 H          1 MOL1         0.0724
      16    H9      19.286757   18.493460   24.694627 H          1 MOL1         0.0724
@<TRIPOS>BOND
    1     1     2    1
    2     1     3    2
    3     1     4    1
    4     4     5    1
    5     4     6    1
    6     4     7    1
    7     7     8    1
    8     7     9    1
    9     7    10    1
   10    10    11    1
   11    10    12    1
   12    10    13    1
   13    13    14    1
   14    13    15    1
   15    13    16    1
@<TRIPOS>SUBSTRUCTURE
       1 MOL1            1 RESIDUE      1      MOL     
@<SCITEGIC>MOL_PROPERTY
VConf Rank
SciTegic.value.IntegerValue
715

@<SCITEGIC>MOL_PROPERTY
Conf_Id
SciTegic.value.IntegerValue
19

@<SCITEGIC>MOL_PROPERTY
Delta U+W
SciTegic.value.DoubleValue
0.048

@<SCITEGIC>MOL_PROPERTY
U+W
SciTegic.value.DoubleValue
-56.856

@<SCITEGIC>MOL_PROPERTY
Grad RMS
SciTegic.value.DoubleValue
0.000000

@<SCITEGIC>MOL_PROPERTY
U
SciTegic.value.DoubleValue
8.276

@<SCITEGIC>MOL_PROPERTY
W
SciTegic.value.DoubleValue
-65.132

@<SCITEGIC>MOL_PROPERTY
W(PB)
SciTegic.value.DoubleValue
-67.031

@<SCITEGIC>MOL_PROPERTY
W(SA)
SciTegic.value.DoubleValue
1.899

@<SCITEGIC>MOL_PROPERTY
Valence
SciTegic.value.DoubleValue
6.513

@<SCITEGIC>MOL_PROPERTY
Coulomb
SciTegic.value.DoubleValue
1.428

@<SCITEGIC>MOL_PROPERTY
VdW
SciTegic.value.DoubleValue
0.335

@<SCITEGIC>MOL_PROPERTY
VdW6
SciTegic.value.DoubleValue
-5.021

@<SCITEGIC>MOL_PROPERTY
VdW12
SciTegic.value.DoubleValue
5.356

@<SCITEGIC>MOL_PROPERTY
Bond
SciTegic.value.DoubleValue
0.092

@<SCITEGIC>MOL_PROPERTY
Angle
SciTegic.value.DoubleValue
2.417

@<SCITEGIC>MOL_PROPERTY
Pdih
SciTegic.value.DoubleValue
4.003

@<SCITEGIC>MOL_PROPERTY
Idih
SciTegic.value.DoubleValue
0.001

@<SCITEGIC>MOL_PROPERTY
Tether
SciTegic.value.DoubleValue
0.000

@<TRIPOS>MOLECULE
guest-s18_confgen4.mol2 : confsearch ligand conformer 716
          16          15           1
SMALL
USER_CHARGES
 
@<TRIPOS>ATOM
       1    C1      21.078783   20.708548   20.771807 C.2        1 MOL1         0.6075
       2    O1      21.480399   20.244006   19.723357 O.co2      1 MOL1        -0.6830
       3    O2      21.779658   21.338137   21.539045 O.co2      1 MOL1        -0.6830
       4    C2      19.608855   20.509356   21.131156 C.3        1 MOL1        -0.2050
       5    H1      19.018677   20.731999   20.234297 H          1 MOL1         0.0710
       6    H2      19.328984   21.252806   21.887489 H          1 MOL1         0.0710
       7    C3      19.268581   19.081892   21.632757 C.3        1 MOL1        -0.1947
       8    H3      18.178607   18.989672   21.732817 H          1 MOL1         0.0712
       9    H4      19.580245   18.346683   20.877803 H          1 MOL1         0.0712
      10    C4      19.933250   18.754253   22.987400 C.3        1 MOL1        -0.1921
      11    H5      19.630494   19.497315   23.738117 H          1 MOL1         0.0712
      12    H6      21.026051   18.823433   22.894001 H          1 MOL1         0.0712
      13    C5      19.551892   17.343792   23.478845 C.3        1 MOL1        -0.2936
      14    H7      18.466049   17.255130   23.614854 H          1 MOL1         0.0724
      15    H8      20.032910   17.126639   24.441437 H          1 MOL1         0.0724
      16    H9      19.871365   16.578014   22.759837 H          1 MOL1         0.0724
@<TRIPOS>BOND
    1     1     2    1
    2     1     3    2
    3     1     4    1
    4     4     5    1
    5     4     6    1
    6     4     7    1
    7     7     8    1
    8     7     9    1
    9     7    10    1
   10    10    11    1
   11    10    12    1
   12    10    13    1
   13    13    14    1
   14    13    15    1
   15    13    16    1
@<TRIPOS>SUBSTRUCTURE
       1 MOL1            1 RESIDUE      1      MOL     
@<SCITEGIC>MOL_PROPERTY
VConf Rank
SciTegic.value.IntegerValue
716

@<SCITEGIC>MOL_PROPERTY
Conf_Id
SciTegic.value.IntegerValue
20

@<SCITEGIC>MOL_PROPERTY
Delta U+W
SciTegic.value.DoubleValue
-0.010

@<SCITEGIC>MOL_PROPERTY
U+W
SciTegic.value.DoubleValue
-56.914

@<SCITEGIC>MOL_PROPERTY
Grad RMS
SciTegic.value.DoubleValue
0.000000

@<SCITEGIC>MOL_PROPERTY
U
SciTegic.value.DoubleValue
8.277

@<SCITEGIC>MOL_PROPERTY
W
SciTegic.value.DoubleValue
-65.191

@<SCITEGIC>MOL_PROPERTY
W(PB)
SciTegic.value.DoubleValue
-67.081

@<SCITEGIC>MOL_PROPERTY
W(SA)
SciTegic.value.DoubleValue
1.890

@<SCITEGIC>MOL_PROPERTY
Valence
SciTegic.value.DoubleValue
6.513

@<SCITEGIC>MOL_PROPERTY
Coulomb
SciTegic.value.DoubleValue
1.429

@<SCITEGIC>MOL_PROPERTY
VdW
SciTegic.value.DoubleValue
0.335

@<SCITEGIC>MOL_PROPERTY
VdW6
SciTegic.value.DoubleValue
-5.021

@<SCITEGIC>MOL_PROPERTY
VdW12
SciTegic.value.DoubleValue
5.356

@<SCITEGIC>MOL_PROPERTY
Bond
SciTegic.value.DoubleValue
0.092

@<SCITEGIC>MOL_PROPERTY
Angle
SciTegic.value.DoubleValue
2.417

@<SCITEGIC>MOL_PROPERTY
Pdih
SciTegic.value.DoubleValue
4.002

@<SCITEGIC>MOL_PROPERTY
Idih
SciTegic.value.DoubleValue
0.001

@<SCITEGIC>MOL_PROPERTY
Tether
SciTegic.value.DoubleValue
0.000

@<TRIPOS>MOLECULE
guest-s18_confgen4.mol2 : confsearch ligand conformer 717
          16          15           1
SMALL
USER_CHARGES
 
@<TRIPOS>ATOM
       1    C1      18.509602   19.947405   23.645168 C.2        1 MOL1         0.6075
       2    O1      17.382347   19.522806   23.805786 O.co2      1 MOL1        -0.6830
       3    O2      18.777499   21.130908   23.583099 O.co2      1 MOL1        -0.6830
       4    C2      19.651753   18.939265   23.550886 C.3        1 MOL1        -0.2050
       5    H1      19.555516   18.257663   24.404137 H          1 MOL1         0.0710
       6    H2      20.601470   19.469977   23.683660 H          1 MOL1         0.0710
       7    C3      19.664871   18.114320   22.234842 C.3        1 MOL1        -0.1947
       8    H3      20.465508   17.364296   22.287919 H          1 MOL1         0.0712
       9    H4      18.722544   17.554130   22.160259 H          1 MOL1         0.0712
      10    C4      19.845399   18.961562   20.952820 C.3        1 MOL1        -0.1921
      11    H5      19.030064   19.693645   20.869861 H          1 MOL1         0.0712
      12    H6      19.758133   18.301408   20.078915 H          1 MOL1         0.0712
      13    C5      21.204107   19.691383   20.891850 C.3        1 MOL1        -0.2936
      14    H7      21.282786   20.452375   21.678735 H          1 MOL1         0.0724
      15    H8      21.323578   20.199445   19.926210 H          1 MOL1         0.0724
      16    H9      22.036424   18.985160   21.008314 H          1 MOL1         0.0724
@<TRIPOS>BOND
    1     1     2    1
    2     1     3    2
    3     1     4    1
    4     4     5    1
    5     4     6    1
    6     4     7    1
    7     7     8    1
    8     7     9    1
    9     7    10    1
   10    10    11    1
   11    10    12    1
   12    10    13    1
   13    13    14    1
   14    13    15    1
   15    13    16    1
@<TRIPOS>SUBSTRUCTURE
       1 MOL1            1 RESIDUE      1      MOL     
@<SCITEGIC>MOL_PROPERTY
VConf Rank
SciTegic.value.IntegerValue
717

@<SCITEGIC>MOL_PROPERTY
Conf_Id
SciTegic.value.IntegerValue
37

@<SCITEGIC>MOL_PROPERTY
Delta U+W
SciTegic.value.DoubleValue
1.063

@<SCITEGIC>MOL_PROPERTY
U+W
SciTegic.value.DoubleValue
-55.841

@<SCITEGIC>MOL_PROPERTY
Grad RMS
SciTegic.value.DoubleValue
0.000000

@<SCITEGIC>MOL_PROPERTY
U
SciTegic.value.DoubleValue
9.719

@<SCITEGIC>MOL_PROPERTY
W
SciTegic.value.DoubleValue
-65.560

@<SCITEGIC>MOL_PROPERTY
W(PB)
SciTegic.value.DoubleValue
-67.414

@<SCITEGIC>MOL_PROPERTY
W(SA)
SciTegic.value.DoubleValue
1.854

@<SCITEGIC>MOL_PROPERTY
Valence
SciTegic.value.DoubleValue
7.002

@<SCITEGIC>MOL_PROPERTY
Coulomb
SciTegic.value.DoubleValue
2.402

@<SCITEGIC>MOL_PROPERTY
VdW
SciTegic.value.DoubleValue
0.314

@<SCITEGIC>MOL_PROPERTY
VdW6
SciTegic.value.DoubleValue
-5.861

@<SCITEGIC>MOL_PROPERTY
VdW12
SciTegic.value.DoubleValue
6.175

@<SCITEGIC>MOL_PROPERTY
Bond
SciTegic.value.DoubleValue
0.134

@<SCITEGIC>MOL_PROPERTY
Angle
SciTegic.value.DoubleValue
2.733

@<SCITEGIC>MOL_PROPERTY
Pdih
SciTegic.value.DoubleValue
4.133

@<SCITEGIC>MOL_PROPERTY
Idih
SciTegic.value.DoubleValue
0.002

@<SCITEGIC>MOL_PROPERTY
Tether
SciTegic.value.DoubleValue
0.000

@<TRIPOS>MOLECULE
guest-s18_confgen4.mol2 : confsearch ligand conformer 718
          16          15           1
SMALL
USER_CHARGES
 
@<TRIPOS>ATOM
       1    C1      21.679949   20.102826   21.031709 C.2        1 MOL1         0.6075
       2    O1      22.191341   19.604028   20.048620 O.co2      1 MOL1        -0.6830
       3    O2      21.299816   21.255958   21.077374 O.co2      1 MOL1        -0.6830
       4    C2      21.540701   19.243024   22.285143 C.3        1 MOL1        -0.2050
       5    H1      21.325956   19.896723   23.138261 H          1 MOL1         0.0710
       6    H2      22.520121   18.790629   22.479972 H          1 MOL1         0.0710
       7    C3      20.471685   18.121852   22.171751 C.3        1 MOL1        -0.1947
       8    H3      20.746269   17.455201   21.342574 H          1 MOL1         0.0712
       9    H4      20.496282   17.507434   23.081836 H          1 MOL1         0.0712
      10    C4      19.030233   18.635757   21.943472 C.3        1 MOL1        -0.1921
      11    H5      18.367591   17.772106   21.794673 H          1 MOL1         0.0712
      12    H6      18.984729   19.223691   21.016185 H          1 MOL1         0.0712
      13    C5      18.491803   19.479936   23.118162 C.3        1 MOL1        -0.2936
      14    H7      18.559309   18.927203   24.064204 H          1 MOL1         0.0724
      15    H8      17.438401   19.740120   22.952306 H          1 MOL1         0.0724
      16    H9      19.052113   20.417660   23.224057 H          1 MOL1         0.0724
@<TRIPOS>BOND
    1     1     2    1
    2     1     3    2
    3     1     4    1
    4     4     5    1
    5     4     6    1
    6     4     7    1
    7     7     8    1
    8     7     9    1
    9     7    10    1
   10    10    11    1
   11    10    12    1
   12    10    13    1
   13    13    14    1
   14    13    15    1
   15    13    16    1
@<TRIPOS>SUBSTRUCTURE
       1 MOL1            1 RESIDUE      1      MOL     
@<SCITEGIC>MOL_PROPERTY
VConf Rank
SciTegic.value.IntegerValue
718

@<SCITEGIC>MOL_PROPERTY
Conf_Id
SciTegic.value.IntegerValue
39

@<SCITEGIC>MOL_PROPERTY
Delta U+W
SciTegic.value.DoubleValue
1.129

@<SCITEGIC>MOL_PROPERTY
U+W
SciTegic.value.DoubleValue
-55.775

@<SCITEGIC>MOL_PROPERTY
Grad RMS
SciTegic.value.DoubleValue
0.000000

@<SCITEGIC>MOL_PROPERTY
U
SciTegic.value.DoubleValue
9.718

@<SCITEGIC>MOL_PROPERTY
W
SciTegic.value.DoubleValue
-65.493

@<SCITEGIC>MOL_PROPERTY
W(PB)
SciTegic.value.DoubleValue
-67.361

@<SCITEGIC>MOL_PROPERTY
W(SA)
SciTegic.value.DoubleValue
1.869

@<SCITEGIC>MOL_PROPERTY
Valence
SciTegic.value.DoubleValue
7.002

@<SCITEGIC>MOL_PROPERTY
Coulomb
SciTegic.value.DoubleValue
2.402

@<SCITEGIC>MOL_PROPERTY
VdW
SciTegic.value.DoubleValue
0.314

@<SCITEGIC>MOL_PROPERTY
VdW6
SciTegic.value.DoubleValue
-5.861

@<SCITEGIC>MOL_PROPERTY
VdW12
SciTegic.value.DoubleValue
6.175

@<SCITEGIC>MOL_PROPERTY
Bond
SciTegic.value.DoubleValue
0.134

@<SCITEGIC>MOL_PROPERTY
Angle
SciTegic.value.DoubleValue
2.734

@<SCITEGIC>MOL_PROPERTY
Pdih
SciTegic.value.DoubleValue
4.133

@<SCITEGIC>MOL_PROPERTY
Idih
SciTegic.value.DoubleValue
0.002

@<SCITEGIC>MOL_PROPERTY
Tether
SciTegic.value.DoubleValue
0.000

@<TRIPOS>MOLECULE
guest-s18_confgen4.mol2 : confsearch ligand conformer 719
          16          15           1
SMALL
USER_CHARGES
 
@<TRIPOS>ATOM
       1    C1      19.892748   17.344475   21.285314 C.2        1 MOL1         0.6075
       2    O1      19.012398   16.611756   21.691427 O.co2      1 MOL1        -0.6830
       3    O2      21.042478   16.983906   21.126354 O.co2      1 MOL1        -0.6830
       4    C2      19.513895   18.764579   20.868862 C.3        1 MOL1        -0.2050
       5    H1      18.433449   18.899041   21.001283 H          1 MOL1         0.0710
       6    H2      19.708352   18.832886   19.792168 H          1 MOL1         0.0710
       7    C3      20.290047   19.899271   21.594839 C.3        1 MOL1        -0.1947
       8    H3      21.360329   19.653691   21.636399 H          1 MOL1         0.0712
       9    H4      20.211678   20.808423   20.983485 H          1 MOL1         0.0712
      10    C4      19.766967   20.236992   23.011840 C.3        1 MOL1        -0.1921
      11    H5      18.696401   20.479974   22.966253 H          1 MOL1         0.0712
      12    H6      20.274914   21.146222   23.361960 H          1 MOL1         0.0712
      13    C5      20.001367   19.116997   24.046710 C.3        1 MOL1        -0.2936
      14    H7      19.382583   18.237563   23.830607 H          1 MOL1         0.0724
      15    H8      19.739931   19.464606   25.054474 H          1 MOL1         0.0724
      16    H9      21.053751   18.804437   24.057767 H          1 MOL1         0.0724
@<TRIPOS>BOND
    1     1     2    1
    2     1     3    2
    3     1     4    1
    4     4     5    1
    5     4     6    1
    6     4     7    1
    7     7     8    1
    8     7     9    1
    9     7    10    1
   10    10    11    1
   11    10    12    1
   12    10    13    1
   13    13    14    1
   14    13    15    1
   15    13    16    1
@<TRIPOS>SUBSTRUCTURE
       1 MOL1            1 RESIDUE      1      MOL     
@<SCITEGIC>MOL_PROPERTY
VConf Rank
SciTegic.value.IntegerValue
719

@<SCITEGIC>MOL_PROPERTY
Conf_Id
SciTegic.value.IntegerValue
47

@<SCITEGIC>MOL_PROPERTY
Delta U+W
SciTegic.value.DoubleValue
2.301

@<SCITEGIC>MOL_PROPERTY
U+W
SciTegic.value.DoubleValue
-54.603

@<SCITEGIC>MOL_PROPERTY
Grad RMS
SciTegic.value.DoubleValue
0.000000

@<SCITEGIC>MOL_PROPERTY
U
SciTegic.value.DoubleValue
11.258

@<SCITEGIC>MOL_PROPERTY
W
SciTegic.value.DoubleValue
-65.861

@<SCITEGIC>MOL_PROPERTY
W(PB)
SciTegic.value.DoubleValue
-67.702

@<SCITEGIC>MOL_PROPERTY
W(SA)
SciTegic.value.DoubleValue
1.841

@<SCITEGIC>MOL_PROPERTY
Valence
SciTegic.value.DoubleValue
8.169

@<SCITEGIC>MOL_PROPERTY
Coulomb
SciTegic.value.DoubleValue
2.735

@<SCITEGIC>MOL_PROPERTY
VdW
SciTegic.value.DoubleValue
0.355

@<SCITEGIC>MOL_PROPERTY
VdW6
SciTegic.value.DoubleValue
-6.245

@<SCITEGIC>MOL_PROPERTY
VdW12
SciTegic.value.DoubleValue
6.600

@<SCITEGIC>MOL_PROPERTY
Bond
SciTegic.value.DoubleValue
0.149

@<SCITEGIC>MOL_PROPERTY
Angle
SciTegic.value.DoubleValue
3.168

@<SCITEGIC>MOL_PROPERTY
Pdih
SciTegic.value.DoubleValue
4.840

@<SCITEGIC>MOL_PROPERTY
Idih
SciTegic.value.DoubleValue
0.011

@<SCITEGIC>MOL_PROPERTY
Tether
SciTegic.value.DoubleValue
0.000

@<TRIPOS>MOLECULE
guest-s18_confgen4.mol2 : confsearch ligand conformer 720
          16          15           1
SMALL
USER_CHARGES
 
@<TRIPOS>ATOM
       1    C1      21.855656   18.977589   22.476843 C.2        1 MOL1         0.6075
       2    O1      22.127277   17.866681   22.888260 O.co2      1 MOL1        -0.6830
       3    O2      22.318340   19.997122   22.949384 O.co2      1 MOL1        -0.6830
       4    C2      20.958052   19.095748   21.246391 C.3        1 MOL1        -0.2050
       5    H1      21.485410   18.589184   20.429669 H          1 MOL1         0.0710
       6    H2      20.880249   20.152061   20.961559 H          1 MOL1         0.0710
       7    C3      19.541318   18.473082   21.395178 C.3        1 MOL1        -0.1947
       8    H3      19.143459   18.291268   20.387654 H          1 MOL1         0.0712
       9    H4      19.614132   17.486914   21.874461 H          1 MOL1         0.0712
      10    C4      18.521914   19.357914   22.152443 C.3        1 MOL1        -0.1921
      11    H5      17.527664   18.899547   22.059380 H          1 MOL1         0.0712
      12    H6      18.453431   20.343355   21.671353 H          1 MOL1         0.0712
      13    C5      18.840755   19.533341   23.651727 C.3        1 MOL1        -0.2936
      14    H7      18.016434   20.048156   24.161854 H          1 MOL1         0.0724
      15    H8      19.746404   20.134047   23.799889 H          1 MOL1         0.0724
      16    H9      18.987661   18.561008   24.139903 H          1 MOL1         0.0724
@<TRIPOS>BOND
    1     1     2    1
    2     1     3    2
    3     1     4    1
    4     4     5    1
    5     4     6    1
    6     4     7    1
    7     7     8    1
    8     7     9    1
    9     7    10    1
   10    10    11    1
   11    10    12    1
   12    10    13    1
   13    13    14    1
   14    13    15    1
   15    13    16    1
@<TRIPOS>SUBSTRUCTURE
       1 MOL1            1 RESIDUE      1      MOL     
@<SCITEGIC>MOL_PROPERTY
VConf Rank
SciTegic.value.IntegerValue
720

@<SCITEGIC>MOL_PROPERTY
Conf_Id
SciTegic.value.IntegerValue
45

@<SCITEGIC>MOL_PROPERTY
Delta U+W
SciTegic.value.DoubleValue
2.303

@<SCITEGIC>MOL_PROPERTY
U+W
SciTegic.value.DoubleValue
-54.601

@<SCITEGIC>MOL_PROPERTY
Grad RMS
SciTegic.value.DoubleValue
0.000000

@<SCITEGIC>MOL_PROPERTY
U
SciTegic.value.DoubleValue
11.258

@<SCITEGIC>MOL_PROPERTY
W
SciTegic.value.DoubleValue
-65.860

@<SCITEGIC>MOL_PROPERTY
W(PB)
SciTegic.value.DoubleValue
-67.709

@<SCITEGIC>MOL_PROPERTY
W(SA)
SciTegic.value.DoubleValue
1.849

@<SCITEGIC>MOL_PROPERTY
Valence
SciTegic.value.DoubleValue
8.169

@<SCITEGIC>MOL_PROPERTY
Coulomb
SciTegic.value.DoubleValue
2.735

@<SCITEGIC>MOL_PROPERTY
VdW
SciTegic.value.DoubleValue
0.355

@<SCITEGIC>MOL_PROPERTY
VdW6
SciTegic.value.DoubleValue
-6.245

@<SCITEGIC>MOL_PROPERTY
VdW12
SciTegic.value.DoubleValue
6.600

@<SCITEGIC>MOL_PROPERTY
Bond
SciTegic.value.DoubleValue
0.149

@<SCITEGIC>MOL_PROPERTY
Angle
SciTegic.value.DoubleValue
3.168

@<SCITEGIC>MOL_PROPERTY
Pdih
SciTegic.value.DoubleValue
4.840

@<SCITEGIC>MOL_PROPERTY
Idih
SciTegic.value.DoubleValue
0.011

@<SCITEGIC>MOL_PROPERTY
Tether
SciTegic.value.DoubleValue
0.000

@<TRIPOS>MOLECULE
guest-s18_confgen4.mol2 : confsearch ligand conformer 721
          16          15           1
SMALL
USER_CHARGES
 
@<TRIPOS>ATOM
       1    C1      17.963275   17.860902   23.301983 C.2        1 MOL1         0.6075
       2    O1      17.433144   18.895299   23.658014 O.co2      1 MOL1        -0.6830
       3    O2      17.534177   16.762533   23.593142 O.co2      1 MOL1        -0.6830
       4    C2      19.230841   17.911322   22.447214 C.3        1 MOL1        -0.2050
       5    H1      19.024911   17.357632   21.523536 H          1 MOL1         0.0710
       6    H2      20.010464   17.359036   22.985110 H          1 MOL1         0.0710
       7    C3      19.741920   19.335204   22.101226 C.3        1 MOL1        -0.1947
       8    H3      18.954744   19.885463   21.567336 H          1 MOL1         0.0712
       9    H4      19.941326   19.886857   23.030412 H          1 MOL1         0.0712
      10    C4      21.020852   19.291662   21.238849 C.3        1 MOL1        -0.1921
      11    H5      20.822304   18.741730   20.308444 H          1 MOL1         0.0712
      12    H6      21.809485   18.743124   21.772387 H          1 MOL1         0.0712
      13    C5      21.523477   20.708600   20.898559 C.3        1 MOL1        -0.2936
      14    H7      20.765383   21.269776   20.336559 H          1 MOL1         0.0724
      15    H8      22.432776   20.659656   20.285435 H          1 MOL1         0.0724
      16    H9      21.759850   21.271185   21.811299 H          1 MOL1         0.0724
@<TRIPOS>BOND
    1     1     2    1
    2     1     3    2
    3     1     4    1
    4     4     5    1
    5     4     6    1
    6     4     7    1
    7     7     8    1
    8     7     9    1
    9     7    10    1
   10    10    11    1
   11    10    12    1
   12    10    13    1
   13    13    14    1
   14    13    15    1
   15    13    16    1
@<TRIPOS>SUBSTRUCTURE
       1 MOL1            1 RESIDUE      1      MOL     
@<SCITEGIC>MOL_PROPERTY
VConf Rank
SciTegic.value.IntegerValue
721

@<SCITEGIC>MOL_PROPERTY
Conf_Id
SciTegic.value.IntegerValue
0

@<SCITEGIC>MOL_PROPERTY
Delta U+W
SciTegic.value.DoubleValue
0.000

@<SCITEGIC>MOL_PROPERTY
U+W
SciTegic.value.DoubleValue
-56.904

@<SCITEGIC>MOL_PROPERTY
Grad RMS
SciTegic.value.DoubleValue
0.000000

@<SCITEGIC>MOL_PROPERTY
U
SciTegic.value.DoubleValue
7.329

@<SCITEGIC>MOL_PROPERTY
W
SciTegic.value.DoubleValue
-64.233

@<SCITEGIC>MOL_PROPERTY
W(PB)
SciTegic.value.DoubleValue
-66.148

@<SCITEGIC>MOL_PROPERTY
W(SA)
SciTegic.value.DoubleValue
1.915

@<SCITEGIC>MOL_PROPERTY
Valence
SciTegic.value.DoubleValue
6.755

@<SCITEGIC>MOL_PROPERTY
Coulomb
SciTegic.value.DoubleValue
-0.421

@<SCITEGIC>MOL_PROPERTY
VdW
SciTegic.value.DoubleValue
0.995

@<SCITEGIC>MOL_PROPERTY
VdW6
SciTegic.value.DoubleValue
-4.495

@<SCITEGIC>MOL_PROPERTY
VdW12
SciTegic.value.DoubleValue
5.490

@<SCITEGIC>MOL_PROPERTY
Bond
SciTegic.value.DoubleValue
0.106

@<SCITEGIC>MOL_PROPERTY
Angle
SciTegic.value.DoubleValue
2.715

@<SCITEGIC>MOL_PROPERTY
Pdih
SciTegic.value.DoubleValue
3.934

@<SCITEGIC>MOL_PROPERTY
Idih
SciTegic.value.DoubleValue
0.000

@<SCITEGIC>MOL_PROPERTY
Tether
SciTegic.value.DoubleValue
0.000

@<TRIPOS>MOLECULE
guest-s18_confgen4.mol2 : confsearch ligand conformer 722
          16          15           1
SMALL
USER_CHARGES
 
@<TRIPOS>ATOM
       1    C1      17.397339   19.626839   21.448011 C.2        1 MOL1         0.6075
       2    O1      17.183596   20.632631   20.801064 O.co2      1 MOL1        -0.6830
       3    O2      16.689059   18.640546   21.410473 O.co2      1 MOL1        -0.6830
       4    C2      18.631907   19.593865   22.342067 C.3        1 MOL1        -0.2050
       5    H1      18.405065   18.968249   23.213845 H          1 MOL1         0.0710
       6    H2      18.812856   20.610606   22.711318 H          1 MOL1         0.0710
       7    C3      19.889403   19.058781   21.613747 C.3        1 MOL1        -0.1947
       8    H3      19.688406   18.045390   21.239329 H          1 MOL1         0.0712
       9    H4      20.096182   19.687781   20.736734 H          1 MOL1         0.0712
      10    C4      21.123191   19.035874   22.539924 C.3        1 MOL1        -0.1921
      11    H5      20.917045   18.406407   23.416745 H          1 MOL1         0.0712
      12    H6      21.324906   20.049223   22.914052 H          1 MOL1         0.0712
      13    C5      22.370759   18.502326   21.808486 C.3        1 MOL1        -0.2936
      14    H7      22.618661   19.132227   20.944055 H          1 MOL1         0.0724
      15    H8      22.207778   17.477284   21.450439 H          1 MOL1         0.0724
      16    H9      23.238593   18.492564   22.480734 H          1 MOL1         0.0724
@<TRIPOS>BOND
    1     1     2    1
    2     1     3    2
    3     1     4    1
    4     4     5    1
    5     4     6    1
    6     4     7    1
    7     7     8    1
    8     7     9    1
    9     7    10    1
   10    10    11    1
   11    10    12    1
   12    10    13    1
   13    13    14    1
   14    13    15    1
   15    13    16    1
@<TRIPOS>SUBSTRUCTURE
       1 MOL1            1 RESIDUE      1      MOL     
@<SCITEGIC>MOL_PROPERTY
VConf Rank
SciTegic.value.IntegerValue
722

@<SCITEGIC>MOL_PROPERTY
Conf_Id
SciTegic.value.IntegerValue
22

@<SCITEGIC>MOL_PROPERTY
Delta U+W
SciTegic.value.DoubleValue
-1.185

@<SCITEGIC>MOL_PROPERTY
U+W
SciTegic.value.DoubleValue
-58.089

@<SCITEGIC>MOL_PROPERTY
Grad RMS
SciTegic.value.DoubleValue
0.000000

@<SCITEGIC>MOL_PROPERTY
U
SciTegic.value.DoubleValue
6.298

@<SCITEGIC>MOL_PROPERTY
W
SciTegic.value.DoubleValue
-64.387

@<SCITEGIC>MOL_PROPERTY
W(PB)
SciTegic.value.DoubleValue
-66.329

@<SCITEGIC>MOL_PROPERTY
W(SA)
SciTegic.value.DoubleValue
1.942

@<SCITEGIC>MOL_PROPERTY
Valence
SciTegic.value.DoubleValue
6.246

@<SCITEGIC>MOL_PROPERTY
Coulomb
SciTegic.value.DoubleValue
-0.408

@<SCITEGIC>MOL_PROPERTY
VdW
SciTegic.value.DoubleValue
0.460

@<SCITEGIC>MOL_PROPERTY
VdW6
SciTegic.value.DoubleValue
-4.207

@<SCITEGIC>MOL_PROPERTY
VdW12
SciTegic.value.DoubleValue
4.667

@<SCITEGIC>MOL_PROPERTY
Bond
SciTegic.value.DoubleValue
0.072

@<SCITEGIC>MOL_PROPERTY
Angle
SciTegic.value.DoubleValue
2.246

@<SCITEGIC>MOL_PROPERTY
Pdih
SciTegic.value.DoubleValue
3.928

@<SCITEGIC>MOL_PROPERTY
Idih
SciTegic.value.DoubleValue
0.001

@<SCITEGIC>MOL_PROPERTY
Tether
SciTegic.value.DoubleValue
0.000

@<TRIPOS>MOLECULE
guest-s18_confgen4.mol2 : confsearch ligand conformer 723
          16          15           1
SMALL
USER_CHARGES
 
@<TRIPOS>ATOM
       1    C1      19.694318   21.605809   21.231473 C.2        1 MOL1         0.6075
       2    O1      20.336193   22.512068   21.724104 O.co2      1 MOL1        -0.6830
       3    O2      18.647562   21.770094   20.637108 O.co2      1 MOL1        -0.6830
       4    C2      20.221114   20.183327   21.385113 C.3        1 MOL1        -0.2050
       5    H1      21.316859   20.225421   21.396794 H          1 MOL1         0.0710
       6    H2      19.926910   19.619538   20.492531 H          1 MOL1         0.0710
       7    C3      19.699638   19.484438   22.667537 C.3        1 MOL1        -0.1947
       8    H3      19.934424   20.116990   23.534821 H          1 MOL1         0.0712
       9    H4      18.604225   19.409949   22.624777 H          1 MOL1         0.0712
      10    C4      20.309862   18.082307   22.895711 C.3        1 MOL1        -0.1921
      11    H5      19.975448   17.706288   23.872484 H          1 MOL1         0.0712
      12    H6      21.404687   18.158210   22.950266 H          1 MOL1         0.0712
      13    C5      19.913837   17.061701   21.807381 C.3        1 MOL1        -0.2936
      14    H7      20.325641   17.338910   20.828936 H          1 MOL1         0.0724
      15    H8      18.822283   16.990030   21.714527 H          1 MOL1         0.0724
      16    H9      20.297716   16.064490   22.058805 H          1 MOL1         0.0724
@<TRIPOS>BOND
    1     1     2    1
    2     1     3    2
    3     1     4    1
    4     4     5    1
    5     4     6    1
    6     4     7    1
    7     7     8    1
    8     7     9    1
    9     7    10    1
   10    10    11    1
   11    10    12    1
   12    10    13    1
   13    13    14    1
   14    13    15    1
   15    13    16    1
@<TRIPOS>SUBSTRUCTURE
       1 MOL1            1 RESIDUE      1      MOL     
@<SCITEGIC>MOL_PROPERTY
VConf Rank
SciTegic.value.IntegerValue
723

@<SCITEGIC>MOL_PROPERTY
Conf_Id
SciTegic.value.IntegerValue
36

@<SCITEGIC>MOL_PROPERTY
Delta U+W
SciTegic.value.DoubleValue
-0.427

@<SCITEGIC>MOL_PROPERTY
U+W
SciTegic.value.DoubleValue
-57.331

@<SCITEGIC>MOL_PROPERTY
Grad RMS
SciTegic.value.DoubleValue
0.000000

@<SCITEGIC>MOL_PROPERTY
U
SciTegic.value.DoubleValue
7.263

@<SCITEGIC>MOL_PROPERTY
W
SciTegic.value.DoubleValue
-64.594

@<SCITEGIC>MOL_PROPERTY
W(PB)
SciTegic.value.DoubleValue
-66.513

@<SCITEGIC>MOL_PROPERTY
W(SA)
SciTegic.value.DoubleValue
1.920

@<SCITEGIC>MOL_PROPERTY
Valence
SciTegic.value.DoubleValue
6.734

@<SCITEGIC>MOL_PROPERTY
Coulomb
SciTegic.value.DoubleValue
-0.068

@<SCITEGIC>MOL_PROPERTY
VdW
SciTegic.value.DoubleValue
0.598

@<SCITEGIC>MOL_PROPERTY
VdW6
SciTegic.value.DoubleValue
-4.819

@<SCITEGIC>MOL_PROPERTY
VdW12
SciTegic.value.DoubleValue
5.417

@<SCITEGIC>MOL_PROPERTY
Bond
SciTegic.value.DoubleValue
0.107

@<SCITEGIC>MOL_PROPERTY
Angle
SciTegic.value.DoubleValue
2.469

@<SCITEGIC>MOL_PROPERTY
Pdih
SciTegic.value.DoubleValue
4.157

@<SCITEGIC>MOL_PROPERTY
Idih
SciTegic.value.DoubleValue
0.001

@<SCITEGIC>MOL_PROPERTY
Tether
SciTegic.value.DoubleValue
0.000

@<TRIPOS>MOLECULE
guest-s18_confgen4.mol2 : confsearch ligand conformer 724
          16          15           1
SMALL
USER_CHARGES
 
@<TRIPOS>ATOM
       1    C1      21.896211   17.558746   22.668997 C.2        1 MOL1         0.6075
       2    O1      22.656927   18.102061   23.444933 O.co2      1 MOL1        -0.6830
       3    O2      22.188592   16.573783   22.020648 O.co2      1 MOL1        -0.6830
       4    C2      20.506094   18.156867   22.483524 C.3        1 MOL1        -0.2050
       5    H1      20.198690   18.591862   23.441334 H          1 MOL1         0.0710
       6    H2      19.810664   17.339093   22.259495 H          1 MOL1         0.0710
       7    C3      20.455911   19.223909   21.359291 C.3        1 MOL1        -0.1947
       8    H3      21.124071   20.057781   21.615277 H          1 MOL1         0.0712
       9    H4      20.851445   18.781466   20.434507 H          1 MOL1         0.0712
      10    C4      19.032521   19.760957   21.083706 C.3        1 MOL1        -0.1921
      11    H5      18.366924   18.928599   20.816233 H          1 MOL1         0.0712
      12    H6      19.068494   20.423712   20.208052 H          1 MOL1         0.0712
      13    C5      18.435303   20.541249   22.274255 C.3        1 MOL1        -0.2936
      14    H7      18.274582   19.888432   23.141308 H          1 MOL1         0.0724
      15    H8      17.464674   20.974799   22.000536 H          1 MOL1         0.0724
      16    H9      19.098186   21.361823   22.578384 H          1 MOL1         0.0724
@<TRIPOS>BOND
    1     1     2    1
    2     1     3    2
    3     1     4    1
    4     4     5    1
    5     4     6    1
    6     4     7    1
    7     7     8    1
    8     7     9    1
    9     7    10    1
   10    10    11    1
   11    10    12    1
   12    10    13    1
   13    13    14    1
   14    13    15    1
   15    13    16    1
@<TRIPOS>SUBSTRUCTURE
       1 MOL1            1 RESIDUE      1      MOL     
@<SCITEGIC>MOL_PROPERTY
VConf Rank
SciTegic.value.IntegerValue
724

@<SCITEGIC>MOL_PROPERTY
Conf_Id
SciTegic.value.IntegerValue
17

@<SCITEGIC>MOL_PROPERTY
Delta U+W
SciTegic.value.DoubleValue
-0.432

@<SCITEGIC>MOL_PROPERTY
U+W
SciTegic.value.DoubleValue
-57.336

@<SCITEGIC>MOL_PROPERTY
Grad RMS
SciTegic.value.DoubleValue
0.000000

@<SCITEGIC>MOL_PROPERTY
U
SciTegic.value.DoubleValue
7.263

@<SCITEGIC>MOL_PROPERTY
W
SciTegic.value.DoubleValue
-64.599

@<SCITEGIC>MOL_PROPERTY
W(PB)
SciTegic.value.DoubleValue
-66.503

@<SCITEGIC>MOL_PROPERTY
W(SA)
SciTegic.value.DoubleValue
1.904

@<SCITEGIC>MOL_PROPERTY
Valence
SciTegic.value.DoubleValue
6.734

@<SCITEGIC>MOL_PROPERTY
Coulomb
SciTegic.value.DoubleValue
-0.068

@<SCITEGIC>MOL_PROPERTY
VdW
SciTegic.value.DoubleValue
0.598

@<SCITEGIC>MOL_PROPERTY
VdW6
SciTegic.value.DoubleValue
-4.819

@<SCITEGIC>MOL_PROPERTY
VdW12
SciTegic.value.DoubleValue
5.417

@<SCITEGIC>MOL_PROPERTY
Bond
SciTegic.value.DoubleValue
0.107

@<SCITEGIC>MOL_PROPERTY
Angle
SciTegic.value.DoubleValue
2.469

@<SCITEGIC>MOL_PROPERTY
Pdih
SciTegic.value.DoubleValue
4.157

@<SCITEGIC>MOL_PROPERTY
Idih
SciTegic.value.DoubleValue
0.001

@<SCITEGIC>MOL_PROPERTY
Tether
SciTegic.value.DoubleValue
0.000

@<TRIPOS>MOLECULE
guest-s18_confgen4.mol2 : confsearch ligand conformer 725
          16          15           1
SMALL
USER_CHARGES
 
@<TRIPOS>ATOM
       1    C1      18.322090   19.791577   23.463974 C.2        1 MOL1         0.6075
       2    O1      17.242806   19.721975   22.910218 O.co2      1 MOL1        -0.6830
       3    O2      18.541594   19.330747   24.566568 O.co2      1 MOL1        -0.6830
       4    C2      19.454851   20.518369   22.744171 C.3        1 MOL1        -0.2050
       5    H1      20.217135   20.797181   23.481919 H          1 MOL1         0.0710
       6    H2      19.043563   21.452991   22.344723 H          1 MOL1         0.0710
       7    C3      20.098091   19.702753   21.592630 C.3        1 MOL1        -0.1947
       8    H3      19.318753   19.406311   20.876823 H          1 MOL1         0.0712
       9    H4      20.799416   20.348513   21.047015 H          1 MOL1         0.0712
      10    C4      20.847391   18.450864   22.098106 C.3        1 MOL1        -0.1921
      11    H5      20.150553   17.786888   22.628461 H          1 MOL1         0.0712
      12    H6      21.617956   18.747666   22.823031 H          1 MOL1         0.0712
      13    C5      21.505133   17.677667   20.937983 C.3        1 MOL1        -0.2936
      14    H7      20.751847   17.342054   20.213156 H          1 MOL1         0.0724
      15    H8      22.032289   16.791201   21.314016 H          1 MOL1         0.0724
      16    H9      22.233632   18.306524   20.409548 H          1 MOL1         0.0724
@<TRIPOS>BOND
    1     1     2    1
    2     1     3    2
    3     1     4    1
    4     4     5    1
    5     4     6    1
    6     4     7    1
    7     7     8    1
    8     7     9    1
    9     7    10    1
   10    10    11    1
   11    10    12    1
   12    10    13    1
   13    13    14    1
   14    13    15    1
   15    13    16    1
@<TRIPOS>SUBSTRUCTURE
       1 MOL1            1 RESIDUE      1      MOL     
@<SCITEGIC>MOL_PROPERTY
VConf Rank
SciTegic.value.IntegerValue
725

@<SCITEGIC>MOL_PROPERTY
Conf_Id
SciTegic.value.IntegerValue
19

@<SCITEGIC>MOL_PROPERTY
Delta U+W
SciTegic.value.DoubleValue
0.048

@<SCITEGIC>MOL_PROPERTY
U+W
SciTegic.value.DoubleValue
-56.856

@<SCITEGIC>MOL_PROPERTY
Grad RMS
SciTegic.value.DoubleValue
0.000000

@<SCITEGIC>MOL_PROPERTY
U
SciTegic.value.DoubleValue
8.276

@<SCITEGIC>MOL_PROPERTY
W
SciTegic.value.DoubleValue
-65.132

@<SCITEGIC>MOL_PROPERTY
W(PB)
SciTegic.value.DoubleValue
-67.031

@<SCITEGIC>MOL_PROPERTY
W(SA)
SciTegic.value.DoubleValue
1.899

@<SCITEGIC>MOL_PROPERTY
Valence
SciTegic.value.DoubleValue
6.513

@<SCITEGIC>MOL_PROPERTY
Coulomb
SciTegic.value.DoubleValue
1.428

@<SCITEGIC>MOL_PROPERTY
VdW
SciTegic.value.DoubleValue
0.335

@<SCITEGIC>MOL_PROPERTY
VdW6
SciTegic.value.DoubleValue
-5.021

@<SCITEGIC>MOL_PROPERTY
VdW12
SciTegic.value.DoubleValue
5.356

@<SCITEGIC>MOL_PROPERTY
Bond
SciTegic.value.DoubleValue
0.092

@<SCITEGIC>MOL_PROPERTY
Angle
SciTegic.value.DoubleValue
2.417

@<SCITEGIC>MOL_PROPERTY
Pdih
SciTegic.value.DoubleValue
4.003

@<SCITEGIC>MOL_PROPERTY
Idih
SciTegic.value.DoubleValue
0.001

@<SCITEGIC>MOL_PROPERTY
Tether
SciTegic.value.DoubleValue
0.000

@<TRIPOS>MOLECULE
guest-s18_confgen4.mol2 : confsearch ligand conformer 726
          16          15           1
SMALL
USER_CHARGES
 
@<TRIPOS>ATOM
       1    C1      21.786443   20.373424   22.756662 C.2        1 MOL1         0.6075
       2    O1      21.677086   21.575097   22.613953 O.co2      1 MOL1        -0.6830
       3    O2      22.745817   19.736210   22.369594 O.co2      1 MOL1        -0.6830
       4    C2      20.668188   19.630022   23.482166 C.3        1 MOL1        -0.2050
       5    H1      20.412990   20.212094   24.375644 H          1 MOL1         0.0710
       6    H2      21.057528   18.666190   23.832205 H          1 MOL1         0.0710
       7    C3      19.393964   19.412764   22.625314 C.3        1 MOL1        -0.1947
       8    H3      18.601029   19.000513   23.263954 H          1 MOL1         0.0712
       9    H4      19.032014   20.383320   22.258386 H          1 MOL1         0.0712
      10    C4      19.634549   18.460089   21.434214 C.3        1 MOL1        -0.1921
      11    H5      20.008160   17.494299   21.801693 H          1 MOL1         0.0712
      12    H6      20.412425   18.872770   20.776698 H          1 MOL1         0.0712
      13    C5      18.345257   18.235046   20.619699 C.3        1 MOL1        -0.2936
      14    H7      17.558811   17.790258   21.243463 H          1 MOL1         0.0724
      15    H8      18.533683   17.556992   19.777171 H          1 MOL1         0.0724
      16    H9      17.966854   19.182589   20.214206 H          1 MOL1         0.0724
@<TRIPOS>BOND
    1     1     2    1
    2     1     3    2
    3     1     4    1
    4     4     5    1
    5     4     6    1
    6     4     7    1
    7     7     8    1
    8     7     9    1
    9     7    10    1
   10    10    11    1
   11    10    12    1
   12    10    13    1
   13    13    14    1
   14    13    15    1
   15    13    16    1
@<TRIPOS>SUBSTRUCTURE
       1 MOL1            1 RESIDUE      1      MOL     
@<SCITEGIC>MOL_PROPERTY
VConf Rank
SciTegic.value.IntegerValue
726

@<SCITEGIC>MOL_PROPERTY
Conf_Id
SciTegic.value.IntegerValue
20

@<SCITEGIC>MOL_PROPERTY
Delta U+W
SciTegic.value.DoubleValue
-0.010

@<SCITEGIC>MOL_PROPERTY
U+W
SciTegic.value.DoubleValue
-56.914

@<SCITEGIC>MOL_PROPERTY
Grad RMS
SciTegic.value.DoubleValue
0.000000

@<SCITEGIC>MOL_PROPERTY
U
SciTegic.value.DoubleValue
8.277

@<SCITEGIC>MOL_PROPERTY
W
SciTegic.value.DoubleValue
-65.191

@<SCITEGIC>MOL_PROPERTY
W(PB)
SciTegic.value.DoubleValue
-67.081

@<SCITEGIC>MOL_PROPERTY
W(SA)
SciTegic.value.DoubleValue
1.890

@<SCITEGIC>MOL_PROPERTY
Valence
SciTegic.value.DoubleValue
6.513

@<SCITEGIC>MOL_PROPERTY
Coulomb
SciTegic.value.DoubleValue
1.429

@<SCITEGIC>MOL_PROPERTY
VdW
SciTegic.value.DoubleValue
0.335

@<SCITEGIC>MOL_PROPERTY
VdW6
SciTegic.value.DoubleValue
-5.021

@<SCITEGIC>MOL_PROPERTY
VdW12
SciTegic.value.DoubleValue
5.356

@<SCITEGIC>MOL_PROPERTY
Bond
SciTegic.value.DoubleValue
0.092

@<SCITEGIC>MOL_PROPERTY
Angle
SciTegic.value.DoubleValue
2.417

@<SCITEGIC>MOL_PROPERTY
Pdih
SciTegic.value.DoubleValue
4.002

@<SCITEGIC>MOL_PROPERTY
Idih
SciTegic.value.DoubleValue
0.001

@<SCITEGIC>MOL_PROPERTY
Tether
SciTegic.value.DoubleValue
0.000

@<TRIPOS>MOLECULE
guest-s18_confgen4.mol2 : confsearch ligand conformer 727
          16          15           1
SMALL
USER_CHARGES
 
@<TRIPOS>ATOM
       1    C1      19.090553   17.427432   21.165840 C.2        1 MOL1         0.6075
       2    O1      18.143828   16.786348   21.577553 O.co2      1 MOL1        -0.6830
       3    O2      20.122831   16.921141   20.772939 O.co2      1 MOL1        -0.6830
       4    C2      18.960327   18.947135   21.108484 C.3        1 MOL1        -0.2050
       5    H1      18.018501   19.173956   20.595262 H          1 MOL1         0.0710
       6    H2      19.761818   19.345410   20.475842 H          1 MOL1         0.0710
       7    C3      18.965660   19.638838   22.499238 C.3        1 MOL1        -0.1947
       8    H3      18.787669   20.714585   22.367102 H          1 MOL1         0.0712
       9    H4      18.119385   19.256516   23.086607 H          1 MOL1         0.0712
      10    C4      20.268536   19.434191   23.308327 C.3        1 MOL1        -0.1921
      11    H5      20.439773   18.361973   23.477514 H          1 MOL1         0.0712
      12    H6      20.141711   19.887356   24.301143 H          1 MOL1         0.0712
      13    C5      21.508995   20.055752   22.632039 C.3        1 MOL1        -0.2936
      14    H7      21.745763   19.545952   21.689419 H          1 MOL1         0.0724
      15    H8      22.386445   19.968271   23.285712 H          1 MOL1         0.0724
      16    H9      21.349805   21.120893   22.419440 H          1 MOL1         0.0724
@<TRIPOS>BOND
    1     1     2    1
    2     1     3    2
    3     1     4    1
    4     4     5    1
    5     4     6    1
    6     4     7    1
    7     7     8    1
    8     7     9    1
    9     7    10    1
   10    10    11    1
   11    10    12    1
   12    10    13    1
   13    13    14    1
   14    13    15    1
   15    13    16    1
@<TRIPOS>SUBSTRUCTURE
       1 MOL1            1 RESIDUE      1      MOL     
@<SCITEGIC>MOL_PROPERTY
VConf Rank
SciTegic.value.IntegerValue
727

@<SCITEGIC>MOL_PROPERTY
Conf_Id
SciTegic.value.IntegerValue
37

@<SCITEGIC>MOL_PROPERTY
Delta U+W
SciTegic.value.DoubleValue
1.063

@<SCITEGIC>MOL_PROPERTY
U+W
SciTegic.value.DoubleValue
-55.841

@<SCITEGIC>MOL_PROPERTY
Grad RMS
SciTegic.value.DoubleValue
0.000000

@<SCITEGIC>MOL_PROPERTY
U
SciTegic.value.DoubleValue
9.719

@<SCITEGIC>MOL_PROPERTY
W
SciTegic.value.DoubleValue
-65.560

@<SCITEGIC>MOL_PROPERTY
W(PB)
SciTegic.value.DoubleValue
-67.414

@<SCITEGIC>MOL_PROPERTY
W(SA)
SciTegic.value.DoubleValue
1.854

@<SCITEGIC>MOL_PROPERTY
Valence
SciTegic.value.DoubleValue
7.002

@<SCITEGIC>MOL_PROPERTY
Coulomb
SciTegic.value.DoubleValue
2.402

@<SCITEGIC>MOL_PROPERTY
VdW
SciTegic.value.DoubleValue
0.314

@<SCITEGIC>MOL_PROPERTY
VdW6
SciTegic.value.DoubleValue
-5.861

@<SCITEGIC>MOL_PROPERTY
VdW12
SciTegic.value.DoubleValue
6.175

@<SCITEGIC>MOL_PROPERTY
Bond
SciTegic.value.DoubleValue
0.134

@<SCITEGIC>MOL_PROPERTY
Angle
SciTegic.value.DoubleValue
2.733

@<SCITEGIC>MOL_PROPERTY
Pdih
SciTegic.value.DoubleValue
4.133

@<SCITEGIC>MOL_PROPERTY
Idih
SciTegic.value.DoubleValue
0.002

@<SCITEGIC>MOL_PROPERTY
Tether
SciTegic.value.DoubleValue
0.000

@<TRIPOS>MOLECULE
guest-s18_confgen4.mol2 : confsearch ligand conformer 728
          16          15           1
SMALL
USER_CHARGES
 
@<TRIPOS>ATOM
       1    C1      21.229168   20.119280   20.605215 C.2        1 MOL1         0.6075
       2    O1      22.181693   20.844911   20.812435 O.co2      1 MOL1        -0.6830
       3    O2      21.218456   19.254680   19.751602 O.co2      1 MOL1        -0.6830
       4    C2      19.968603   20.330473   21.439552 C.3        1 MOL1        -0.2050
       5    H1      19.136102   19.804057   20.958848 H          1 MOL1         0.0710
       6    H2      19.725638   21.398687   21.397507 H          1 MOL1         0.0710
       7    C3      20.107958   19.894579   22.923890 C.3        1 MOL1        -0.1947
       8    H3      20.913833   20.479041   23.388997 H          1 MOL1         0.0712
       9    H4      19.187614   20.155244   23.463696 H          1 MOL1         0.0712
      10    C4      20.404632   18.388919   23.121281 C.3        1 MOL1        -0.1921
      11    H5      20.566659   18.198947   24.191228 H          1 MOL1         0.0712
      12    H6      21.342595   18.122471   22.614499 H          1 MOL1         0.0712
      13    C5      19.267532   17.473602   22.619644 C.3        1 MOL1        -0.2936
      14    H7      18.310496   17.742773   23.085149 H          1 MOL1         0.0724
      15    H8      19.481464   16.425705   22.866633 H          1 MOL1         0.0724
      16    H9      19.153858   17.540780   21.530124 H          1 MOL1         0.0724
@<TRIPOS>BOND
    1     1     2    1
    2     1     3    2
    3     1     4    1
    4     4     5    1
    5     4     6    1
    6     4     7    1
    7     7     8    1
    8     7     9    1
    9     7    10    1
   10    10    11    1
   11    10    12    1
   12    10    13    1
   13    13    14    1
   14    13    15    1
   15    13    16    1
@<TRIPOS>SUBSTRUCTURE
       1 MOL1            1 RESIDUE      1      MOL     
@<SCITEGIC>MOL_PROPERTY
VConf Rank
SciTegic.value.IntegerValue
728

@<SCITEGIC>MOL_PROPERTY
Conf_Id
SciTegic.value.IntegerValue
39

@<SCITEGIC>MOL_PROPERTY
Delta U+W
SciTegic.value.DoubleValue
1.129

@<SCITEGIC>MOL_PROPERTY
U+W
SciTegic.value.DoubleValue
-55.775

@<SCITEGIC>MOL_PROPERTY
Grad RMS
SciTegic.value.DoubleValue
0.000000

@<SCITEGIC>MOL_PROPERTY
U
SciTegic.value.DoubleValue
9.718

@<SCITEGIC>MOL_PROPERTY
W
SciTegic.value.DoubleValue
-65.493

@<SCITEGIC>MOL_PROPERTY
W(PB)
SciTegic.value.DoubleValue
-67.361

@<SCITEGIC>MOL_PROPERTY
W(SA)
SciTegic.value.DoubleValue
1.869

@<SCITEGIC>MOL_PROPERTY
Valence
SciTegic.value.DoubleValue
7.002

@<SCITEGIC>MOL_PROPERTY
Coulomb
SciTegic.value.DoubleValue
2.402

@<SCITEGIC>MOL_PROPERTY
VdW
SciTegic.value.DoubleValue
0.314

@<SCITEGIC>MOL_PROPERTY
VdW6
SciTegic.value.DoubleValue
-5.861

@<SCITEGIC>MOL_PROPERTY
VdW12
SciTegic.value.DoubleValue
6.175

@<SCITEGIC>MOL_PROPERTY
Bond
SciTegic.value.DoubleValue
0.134

@<SCITEGIC>MOL_PROPERTY
Angle
SciTegic.value.DoubleValue
2.734

@<SCITEGIC>MOL_PROPERTY
Pdih
SciTegic.value.DoubleValue
4.133

@<SCITEGIC>MOL_PROPERTY
Idih
SciTegic.value.DoubleValue
0.002

@<SCITEGIC>MOL_PROPERTY
Tether
SciTegic.value.DoubleValue
0.000

@<TRIPOS>MOLECULE
guest-s18_confgen4.mol2 : confsearch ligand conformer 729
          16          15           1
SMALL
USER_CHARGES
 
@<TRIPOS>ATOM
       1    C1      18.089913   19.606942   21.612138 C.2        1 MOL1         0.6075
       2    O1      18.097909   19.804439   20.413076 O.co2      1 MOL1        -0.6830
       3    O2      17.593944   20.374960   22.412964 O.co2      1 MOL1        -0.6830
       4    C2      18.651911   18.283664   22.128617 C.3        1 MOL1        -0.2050
       5    H1      18.983450   17.679487   21.275369 H          1 MOL1         0.0710
       6    H2      17.810944   17.747725   22.583913 H          1 MOL1         0.0710
       7    C3      19.795207   18.410387   23.174465 C.3        1 MOL1        -0.1947
       8    H3      19.537384   19.175060   23.920349 H          1 MOL1         0.0712
       9    H4      19.858938   17.461288   23.723647 H          1 MOL1         0.0712
      10    C4      21.191575   18.702967   22.574369 C.3        1 MOL1        -0.1921
      11    H5      21.444700   17.937506   21.827891 H          1 MOL1         0.0712
      12    H6      21.939255   18.612628   23.374436 H          1 MOL1         0.0712
      13    C5      21.318074   20.105147   21.943357 C.3        1 MOL1        -0.2936
      14    H7      20.709522   20.190727   21.034875 H          1 MOL1         0.0724
      15    H8      22.359784   20.307305   21.662750 H          1 MOL1         0.0724
      16    H9      20.998780   20.884587   22.647525 H          1 MOL1         0.0724
@<TRIPOS>BOND
    1     1     2    1
    2     1     3    2
    3     1     4    1
    4     4     5    1
    5     4     6    1
    6     4     7    1
    7     7     8    1
    8     7     9    1
    9     7    10    1
   10    10    11    1
   11    10    12    1
   12    10    13    1
   13    13    14    1
   14    13    15    1
   15    13    16    1
@<TRIPOS>SUBSTRUCTURE
       1 MOL1            1 RESIDUE      1      MOL     
@<SCITEGIC>MOL_PROPERTY
VConf Rank
SciTegic.value.IntegerValue
729

@<SCITEGIC>MOL_PROPERTY
Conf_Id
SciTegic.value.IntegerValue
47

@<SCITEGIC>MOL_PROPERTY
Delta U+W
SciTegic.value.DoubleValue
2.301

@<SCITEGIC>MOL_PROPERTY
U+W
SciTegic.value.DoubleValue
-54.603

@<SCITEGIC>MOL_PROPERTY
Grad RMS
SciTegic.value.DoubleValue
0.000000

@<SCITEGIC>MOL_PROPERTY
U
SciTegic.value.DoubleValue
11.258

@<SCITEGIC>MOL_PROPERTY
W
SciTegic.value.DoubleValue
-65.861

@<SCITEGIC>MOL_PROPERTY
W(PB)
SciTegic.value.DoubleValue
-67.702

@<SCITEGIC>MOL_PROPERTY
W(SA)
SciTegic.value.DoubleValue
1.841

@<SCITEGIC>MOL_PROPERTY
Valence
SciTegic.value.DoubleValue
8.169

@<SCITEGIC>MOL_PROPERTY
Coulomb
SciTegic.value.DoubleValue
2.735

@<SCITEGIC>MOL_PROPERTY
VdW
SciTegic.value.DoubleValue
0.355

@<SCITEGIC>MOL_PROPERTY
VdW6
SciTegic.value.DoubleValue
-6.245

@<SCITEGIC>MOL_PROPERTY
VdW12
SciTegic.value.DoubleValue
6.600

@<SCITEGIC>MOL_PROPERTY
Bond
SciTegic.value.DoubleValue
0.149

@<SCITEGIC>MOL_PROPERTY
Angle
SciTegic.value.DoubleValue
3.168

@<SCITEGIC>MOL_PROPERTY
Pdih
SciTegic.value.DoubleValue
4.840

@<SCITEGIC>MOL_PROPERTY
Idih
SciTegic.value.DoubleValue
0.011

@<SCITEGIC>MOL_PROPERTY
Tether
SciTegic.value.DoubleValue
0.000

@<TRIPOS>MOLECULE
guest-s18_confgen4.mol2 : confsearch ligand conformer 730
          16          15           1
SMALL
USER_CHARGES
 
@<TRIPOS>ATOM
       1    C1      18.454368   18.355245   21.088077 C.2        1 MOL1         0.6075
       2    O1      17.742995   17.630200   21.755474 O.co2      1 MOL1        -0.6830
       3    O2      18.903471   18.037758   20.004414 O.co2      1 MOL1        -0.6830
       4    C2      18.724898   19.771048   21.594023 C.3        1 MOL1        -0.2050
       5    H1      17.750415   20.269864   21.651589 H          1 MOL1         0.0710
       6    H2      19.310405   20.313122   20.841483 H          1 MOL1         0.0710
       7    C3      19.419724   19.859204   22.981983 C.3        1 MOL1        -0.1947
       8    H3      19.233206   20.861232   23.391379 H          1 MOL1         0.0712
       9    H4      18.949728   19.154021   23.681527 H          1 MOL1         0.0712
      10    C4      20.951418   19.638547   22.953979 C.3        1 MOL1        -0.1921
      11    H5      21.355196   19.879479   23.947060 H          1 MOL1         0.0712
      12    H6      21.417229   20.344086   22.252220 H          1 MOL1         0.0712
      13    C5      21.367578   18.197249   22.593760 C.3        1 MOL1        -0.2936
      14    H7      22.449252   18.065623   22.725763 H          1 MOL1         0.0724
      15    H8      21.132239   17.962972   21.548423 H          1 MOL1         0.0724
      16    H9      20.856032   17.467367   23.234792 H          1 MOL1         0.0724
@<TRIPOS>BOND
    1     1     2    1
    2     1     3    2
    3     1     4    1
    4     4     5    1
    5     4     6    1
    6     4     7    1
    7     7     8    1
    8     7     9    1
    9     7    10    1
   10    10    11    1
   11    10    12    1
   12    10    13    1
   13    13    14    1
   14    13    15    1
   15    13    16    1
@<TRIPOS>SUBSTRUCTURE
       1 MOL1            1 RESIDUE      1      MOL     
@<SCITEGIC>MOL_PROPERTY
VConf Rank
SciTegic.value.IntegerValue
730

@<SCITEGIC>MOL_PROPERTY
Conf_Id
SciTegic.value.IntegerValue
45

@<SCITEGIC>MOL_PROPERTY
Delta U+W
SciTegic.value.DoubleValue
2.303

@<SCITEGIC>MOL_PROPERTY
U+W
SciTegic.value.DoubleValue
-54.601

@<SCITEGIC>MOL_PROPERTY
Grad RMS
SciTegic.value.DoubleValue
0.000000

@<SCITEGIC>MOL_PROPERTY
U
SciTegic.value.DoubleValue
11.258

@<SCITEGIC>MOL_PROPERTY
W
SciTegic.value.DoubleValue
-65.860

@<SCITEGIC>MOL_PROPERTY
W(PB)
SciTegic.value.DoubleValue
-67.709

@<SCITEGIC>MOL_PROPERTY
W(SA)
SciTegic.value.DoubleValue
1.849

@<SCITEGIC>MOL_PROPERTY
Valence
SciTegic.value.DoubleValue
8.169

@<SCITEGIC>MOL_PROPERTY
Coulomb
SciTegic.value.DoubleValue
2.735

@<SCITEGIC>MOL_PROPERTY
VdW
SciTegic.value.DoubleValue
0.355

@<SCITEGIC>MOL_PROPERTY
VdW6
SciTegic.value.DoubleValue
-6.245

@<SCITEGIC>MOL_PROPERTY
VdW12
SciTegic.value.DoubleValue
6.600

@<SCITEGIC>MOL_PROPERTY
Bond
SciTegic.value.DoubleValue
0.149

@<SCITEGIC>MOL_PROPERTY
Angle
SciTegic.value.DoubleValue
3.168

@<SCITEGIC>MOL_PROPERTY
Pdih
SciTegic.value.DoubleValue
4.840

@<SCITEGIC>MOL_PROPERTY
Idih
SciTegic.value.DoubleValue
0.011

@<SCITEGIC>MOL_PROPERTY
Tether
SciTegic.value.DoubleValue
0.000

@<TRIPOS>MOLECULE
guest-s18_confgen4.mol2 : confsearch ligand conformer 731
          16          15           1
SMALL
USER_CHARGES
 
@<TRIPOS>ATOM
       1    C1      22.412931   20.325397   21.351582 C.2        1 MOL1         0.6075
       2    O1      21.912597   21.272326   20.776457 O.co2      1 MOL1        -0.6830
       3    O2      23.612422   20.192464   21.488921 O.co2      1 MOL1        -0.6830
       4    C2      21.517452   19.233893   21.940336 C.3        1 MOL1        -0.2050
       5    H1      21.743917   19.167014   23.011037 H          1 MOL1         0.0710
       6    H2      21.821144   18.282271   21.488283 H          1 MOL1         0.0710
       7    C3      19.993257   19.445958   21.739819 C.3        1 MOL1        -0.1947
       8    H3      19.695952   20.403290   22.189923 H          1 MOL1         0.0712
       9    H4      19.773260   19.517619   20.665605 H          1 MOL1         0.0712
      10    C4      19.167979   18.300797   22.363342 C.3        1 MOL1        -0.1921
      11    H5      19.385749   18.229186   23.438027 H          1 MOL1         0.0712
      12    H6      19.463097   17.342977   21.912803 H          1 MOL1         0.0712
      13    C5      17.655230   18.517072   22.160968 C.3        1 MOL1        -0.2936
      14    H7      17.326327   19.453970   22.629490 H          1 MOL1         0.0724
      15    H8      17.083374   17.694525   22.609899 H          1 MOL1         0.0724
      16    H9      17.404239   18.561223   21.093015 H          1 MOL1         0.0724
@<TRIPOS>BOND
    1     1     2    1
    2     1     3    2
    3     1     4    1
    4     4     5    1
    5     4     6    1
    6     4     7    1
    7     7     8    1
    8     7     9    1
    9     7    10    1
   10    10    11    1
   11    10    12    1
   12    10    13    1
   13    13    14    1
   14    13    15    1
   15    13    16    1
@<TRIPOS>SUBSTRUCTURE
       1 MOL1            1 RESIDUE      1      MOL     
@<SCITEGIC>MOL_PROPERTY
VConf Rank
SciTegic.value.IntegerValue
731

@<SCITEGIC>MOL_PROPERTY
Conf_Id
SciTegic.value.IntegerValue
0

@<SCITEGIC>MOL_PROPERTY
Delta U+W
SciTegic.value.DoubleValue
0.000

@<SCITEGIC>MOL_PROPERTY
U+W
SciTegic.value.DoubleValue
-56.904

@<SCITEGIC>MOL_PROPERTY
Grad RMS
SciTegic.value.DoubleValue
0.000000

@<SCITEGIC>MOL_PROPERTY
U
SciTegic.value.DoubleValue
7.329

@<SCITEGIC>MOL_PROPERTY
W
SciTegic.value.DoubleValue
-64.233

@<SCITEGIC>MOL_PROPERTY
W(PB)
SciTegic.value.DoubleValue
-66.148

@<SCITEGIC>MOL_PROPERTY
W(SA)
SciTegic.value.DoubleValue
1.915

@<SCITEGIC>MOL_PROPERTY
Valence
SciTegic.value.DoubleValue
6.755

@<SCITEGIC>MOL_PROPERTY
Coulomb
SciTegic.value.DoubleValue
-0.421

@<SCITEGIC>MOL_PROPERTY
VdW
SciTegic.value.DoubleValue
0.995

@<SCITEGIC>MOL_PROPERTY
VdW6
SciTegic.value.DoubleValue
-4.495

@<SCITEGIC>MOL_PROPERTY
VdW12
SciTegic.value.DoubleValue
5.490

@<SCITEGIC>MOL_PROPERTY
Bond
SciTegic.value.DoubleValue
0.106

@<SCITEGIC>MOL_PROPERTY
Angle
SciTegic.value.DoubleValue
2.715

@<SCITEGIC>MOL_PROPERTY
Pdih
SciTegic.value.DoubleValue
3.934

@<SCITEGIC>MOL_PROPERTY
Idih
SciTegic.value.DoubleValue
0.000

@<SCITEGIC>MOL_PROPERTY
Tether
SciTegic.value.DoubleValue
0.000

@<TRIPOS>MOLECULE
guest-s18_confgen4.mol2 : confsearch ligand conformer 732
          16          15           1
SMALL
USER_CHARGES
 
@<TRIPOS>ATOM
       1    C1      22.576573   19.834539   22.657128 C.2        1 MOL1         0.6075
       2    O1      23.325694   20.051930   21.725784 O.co2      1 MOL1        -0.6830
       3    O2      22.665465   20.388791   23.734507 O.co2      1 MOL1        -0.6830
       4    C2      21.452348   18.824259   22.457037 C.3        1 MOL1        -0.2050
       5    H1      21.262014   18.331042   23.417953 H          1 MOL1         0.0710
       6    H2      21.806278   18.053400   21.761796 H          1 MOL1         0.0710
       7    C3      20.150577   19.469401   21.921085 C.3        1 MOL1        -0.1947
       8    H3      19.815773   20.247133   22.621506 H          1 MOL1         0.0712
       9    H4      20.360072   19.969542   20.965301 H          1 MOL1         0.0712
      10    C4      19.030210   18.426354   21.727710 C.3        1 MOL1        -0.1921
      11    H5      18.819946   17.926461   22.683448 H          1 MOL1         0.0712
      12    H6      19.364401   17.648772   21.026839 H          1 MOL1         0.0712
      13    C5      17.737882   19.075451   21.194173 C.3        1 MOL1        -0.2936
      14    H7      17.912082   19.556603   20.222773 H          1 MOL1         0.0724
      15    H8      17.363618   19.836361   21.891607 H          1 MOL1         0.0724
      16    H9      16.951810   18.320555   21.062374 H          1 MOL1         0.0724
@<TRIPOS>BOND
    1     1     2    1
    2     1     3    2
    3     1     4    1
    4     4     5    1
    5     4     6    1
    6     4     7    1
    7     7     8    1
    8     7     9    1
    9     7    10    1
   10    10    11    1
   11    10    12    1
   12    10    13    1
   13    13    14    1
   14    13    15    1
   15    13    16    1
@<TRIPOS>SUBSTRUCTURE
       1 MOL1            1 RESIDUE      1      MOL     
@<SCITEGIC>MOL_PROPERTY
VConf Rank
SciTegic.value.IntegerValue
732

@<SCITEGIC>MOL_PROPERTY
Conf_Id
SciTegic.value.IntegerValue
22

@<SCITEGIC>MOL_PROPERTY
Delta U+W
SciTegic.value.DoubleValue
-1.185

@<SCITEGIC>MOL_PROPERTY
U+W
SciTegic.value.DoubleValue
-58.089

@<SCITEGIC>MOL_PROPERTY
Grad RMS
SciTegic.value.DoubleValue
0.000000

@<SCITEGIC>MOL_PROPERTY
U
SciTegic.value.DoubleValue
6.298

@<SCITEGIC>MOL_PROPERTY
W
SciTegic.value.DoubleValue
-64.387

@<SCITEGIC>MOL_PROPERTY
W(PB)
SciTegic.value.DoubleValue
-66.329

@<SCITEGIC>MOL_PROPERTY
W(SA)
SciTegic.value.DoubleValue
1.942

@<SCITEGIC>MOL_PROPERTY
Valence
SciTegic.value.DoubleValue
6.246

@<SCITEGIC>MOL_PROPERTY
Coulomb
SciTegic.value.DoubleValue
-0.408

@<SCITEGIC>MOL_PROPERTY
VdW
SciTegic.value.DoubleValue
0.460

@<SCITEGIC>MOL_PROPERTY
VdW6
SciTegic.value.DoubleValue
-4.207

@<SCITEGIC>MOL_PROPERTY
VdW12
SciTegic.value.DoubleValue
4.667

@<SCITEGIC>MOL_PROPERTY
Bond
SciTegic.value.DoubleValue
0.072

@<SCITEGIC>MOL_PROPERTY
Angle
SciTegic.value.DoubleValue
2.246

@<SCITEGIC>MOL_PROPERTY
Pdih
SciTegic.value.DoubleValue
3.928

@<SCITEGIC>MOL_PROPERTY
Idih
SciTegic.value.DoubleValue
0.001

@<SCITEGIC>MOL_PROPERTY
Tether
SciTegic.value.DoubleValue
0.000

@<TRIPOS>MOLECULE
guest-s18_confgen4.mol2 : confsearch ligand conformer 733
          16          15           1
SMALL
USER_CHARGES
 
@<TRIPOS>ATOM
       1    C1      20.456528   18.546706   24.458400 C.2        1 MOL1         0.6075
       2    O1      20.145041   17.476869   24.942569 O.co2      1 MOL1        -0.6830
       3    O2      20.674750   19.543866   25.117195 O.co2      1 MOL1        -0.6830
       4    C2      20.559412   18.648024   22.940599 C.3        1 MOL1        -0.2050
       5    H1      20.896406   17.677681   22.556627 H          1 MOL1         0.0710
       6    H2      21.341167   19.379582   22.706505 H          1 MOL1         0.0710
       7    C3      19.218875   19.050475   22.272776 C.3        1 MOL1        -0.1947
       8    H3      18.438192   18.348230   22.596527 H          1 MOL1         0.0712
       9    H4      18.913198   20.042501   22.632988 H          1 MOL1         0.0712
      10    C4      19.276801   19.050956   20.727767 C.3        1 MOL1        -0.1921
      11    H5      18.267077   19.237277   20.336550 H          1 MOL1         0.0712
      12    H6      19.571054   18.055682   20.366899 H          1 MOL1         0.0712
      13    C5      20.236747   20.115562   20.155011 C.3        1 MOL1        -0.2936
      14    H7      21.278339   19.904235   20.427424 H          1 MOL1         0.0724
      15    H8      19.979527   21.116484   20.525474 H          1 MOL1         0.0724
      16    H9      20.177603   20.135441   19.059057 H          1 MOL1         0.0724
@<TRIPOS>BOND
    1     1     2    1
    2     1     3    2
    3     1     4    1
    4     4     5    1
    5     4     6    1
    6     4     7    1
    7     7     8    1
    8     7     9    1
    9     7    10    1
   10    10    11    1
   11    10    12    1
   12    10    13    1
   13    13    14    1
   14    13    15    1
   15    13    16    1
@<TRIPOS>SUBSTRUCTURE
       1 MOL1            1 RESIDUE      1      MOL     
@<SCITEGIC>MOL_PROPERTY
VConf Rank
SciTegic.value.IntegerValue
733

@<SCITEGIC>MOL_PROPERTY
Conf_Id
SciTegic.value.IntegerValue
36

@<SCITEGIC>MOL_PROPERTY
Delta U+W
SciTegic.value.DoubleValue
-0.427

@<SCITEGIC>MOL_PROPERTY
U+W
SciTegic.value.DoubleValue
-57.331

@<SCITEGIC>MOL_PROPERTY
Grad RMS
SciTegic.value.DoubleValue
0.000000

@<SCITEGIC>MOL_PROPERTY
U
SciTegic.value.DoubleValue
7.263

@<SCITEGIC>MOL_PROPERTY
W
SciTegic.value.DoubleValue
-64.594

@<SCITEGIC>MOL_PROPERTY
W(PB)
SciTegic.value.DoubleValue
-66.513

@<SCITEGIC>MOL_PROPERTY
W(SA)
SciTegic.value.DoubleValue
1.920

@<SCITEGIC>MOL_PROPERTY
Valence
SciTegic.value.DoubleValue
6.734

@<SCITEGIC>MOL_PROPERTY
Coulomb
SciTegic.value.DoubleValue
-0.068

@<SCITEGIC>MOL_PROPERTY
VdW
SciTegic.value.DoubleValue
0.598

@<SCITEGIC>MOL_PROPERTY
VdW6
SciTegic.value.DoubleValue
-4.819

@<SCITEGIC>MOL_PROPERTY
VdW12
SciTegic.value.DoubleValue
5.417

@<SCITEGIC>MOL_PROPERTY
Bond
SciTegic.value.DoubleValue
0.107

@<SCITEGIC>MOL_PROPERTY
Angle
SciTegic.value.DoubleValue
2.469

@<SCITEGIC>MOL_PROPERTY
Pdih
SciTegic.value.DoubleValue
4.157

@<SCITEGIC>MOL_PROPERTY
Idih
SciTegic.value.DoubleValue
0.001

@<SCITEGIC>MOL_PROPERTY
Tether
SciTegic.value.DoubleValue
0.000

@<TRIPOS>MOLECULE
guest-s18_confgen4.mol2 : confsearch ligand conformer 734
          16          15           1
SMALL
USER_CHARGES
 
@<TRIPOS>ATOM
       1    C1      18.914645   19.619704   19.672319 C.2        1 MOL1         0.6075
       2    O1      19.258348   18.789527   18.854620 O.co2      1 MOL1        -0.6830
       3    O2      18.461662   20.707221   19.375485 O.co2      1 MOL1        -0.6830
       4    C2      19.079233   19.287009   21.151101 C.3        1 MOL1        -0.2050
       5    H1      18.926588   18.208289   21.270184 H          1 MOL1         0.0710
       6    H2      18.278640   19.791939   21.704873 H          1 MOL1         0.0710
       7    C3      20.463114   19.706654   21.711250 C.3        1 MOL1        -0.1947
       8    H3      21.254786   19.162594   21.177805 H          1 MOL1         0.0712
       9    H4      20.621545   20.773036   21.498746 H          1 MOL1         0.0712
      10    C4      20.606208   19.476954   23.233475 C.3        1 MOL1        -0.1921
      11    H5      19.821699   20.030428   23.767884 H          1 MOL1         0.0712
      12    H6      21.565010   19.898450   23.565662 H          1 MOL1         0.0712
      13    C5      20.553089   17.986490   23.631756 C.3        1 MOL1        -0.2936
      14    H7      19.568623   17.550162   23.421454 H          1 MOL1         0.0724
      15    H8      20.745555   17.869466   24.706125 H          1 MOL1         0.0724
      16    H9      21.310545   17.407216   23.087740 H          1 MOL1         0.0724
@<TRIPOS>BOND
    1     1     2    1
    2     1     3    2
    3     1     4    1
    4     4     5    1
    5     4     6    1
    6     4     7    1
    7     7     8    1
    8     7     9    1
    9     7    10    1
   10    10    11    1
   11    10    12    1
   12    10    13    1
   13    13    14    1
   14    13    15    1
   15    13    16    1
@<TRIPOS>SUBSTRUCTURE
       1 MOL1            1 RESIDUE      1      MOL     
@<SCITEGIC>MOL_PROPERTY
VConf Rank
SciTegic.value.IntegerValue
734

@<SCITEGIC>MOL_PROPERTY
Conf_Id
SciTegic.value.IntegerValue
17

@<SCITEGIC>MOL_PROPERTY
Delta U+W
SciTegic.value.DoubleValue
-0.432

@<SCITEGIC>MOL_PROPERTY
U+W
SciTegic.value.DoubleValue
-57.336

@<SCITEGIC>MOL_PROPERTY
Grad RMS
SciTegic.value.DoubleValue
0.000000

@<SCITEGIC>MOL_PROPERTY
U
SciTegic.value.DoubleValue
7.263

@<SCITEGIC>MOL_PROPERTY
W
SciTegic.value.DoubleValue
-64.599

@<SCITEGIC>MOL_PROPERTY
W(PB)
SciTegic.value.DoubleValue
-66.503

@<SCITEGIC>MOL_PROPERTY
W(SA)
SciTegic.value.DoubleValue
1.904

@<SCITEGIC>MOL_PROPERTY
Valence
SciTegic.value.DoubleValue
6.734

@<SCITEGIC>MOL_PROPERTY
Coulomb
SciTegic.value.DoubleValue
-0.068

@<SCITEGIC>MOL_PROPERTY
VdW
SciTegic.value.DoubleValue
0.598

@<SCITEGIC>MOL_PROPERTY
VdW6
SciTegic.value.DoubleValue
-4.819

@<SCITEGIC>MOL_PROPERTY
VdW12
SciTegic.value.DoubleValue
5.417

@<SCITEGIC>MOL_PROPERTY
Bond
SciTegic.value.DoubleValue
0.107

@<SCITEGIC>MOL_PROPERTY
Angle
SciTegic.value.DoubleValue
2.469

@<SCITEGIC>MOL_PROPERTY
Pdih
SciTegic.value.DoubleValue
4.157

@<SCITEGIC>MOL_PROPERTY
Idih
SciTegic.value.DoubleValue
0.001

@<SCITEGIC>MOL_PROPERTY
Tether
SciTegic.value.DoubleValue
0.000

@<TRIPOS>MOLECULE
guest-s18_confgen4.mol2 : confsearch ligand conformer 735
          16          15           1
SMALL
USER_CHARGES
 
@<TRIPOS>ATOM
       1    C1      19.392682   21.161960   21.116922 C.2        1 MOL1         0.6075
       2    O1      19.866139   21.376220   20.018617 O.co2      1 MOL1        -0.6830
       3    O2      18.206226   21.247271   21.364525 O.co2      1 MOL1        -0.6830
       4    C2      20.344120   20.789179   22.250629 C.3        1 MOL1        -0.2050
       5    H1      19.838399   20.970988   23.206807 H          1 MOL1         0.0710
       6    H2      21.194703   21.479628   22.205659 H          1 MOL1         0.0710
       7    C3      20.860334   19.328142   22.187953 C.3        1 MOL1        -0.1947
       8    H3      21.338779   19.152402   21.214387 H          1 MOL1         0.0712
       9    H4      21.638022   19.191846   22.951618 H          1 MOL1         0.0712
      10    C4      19.738347   18.291677   22.413936 C.3        1 MOL1        -0.1921
      11    H5      18.963721   18.405209   21.642711 H          1 MOL1         0.0712
      12    H6      19.252718   18.476359   23.382148 H          1 MOL1         0.0712
      13    C5      20.283803   16.850257   22.380304 C.3        1 MOL1        -0.2936
      14    H7      20.748058   16.628905   21.410294 H          1 MOL1         0.0724
      15    H8      19.474132   16.126691   22.541558 H          1 MOL1         0.0724
      16    H9      21.036917   16.696548   23.164273 H          1 MOL1         0.0724
@<TRIPOS>BOND
    1     1     2    1
    2     1     3    2
    3     1     4    1
    4     4     5    1
    5     4     6    1
    6     4     7    1
    7     7     8    1
    8     7     9    1
    9     7    10    1
   10    10    11    1
   11    10    12    1
   12    10    13    1
   13    13    14    1
   14    13    15    1
   15    13    16    1
@<TRIPOS>SUBSTRUCTURE
       1 MOL1            1 RESIDUE      1      MOL     
@<SCITEGIC>MOL_PROPERTY
VConf Rank
SciTegic.value.IntegerValue
735

@<SCITEGIC>MOL_PROPERTY
Conf_Id
SciTegic.value.IntegerValue
19

@<SCITEGIC>MOL_PROPERTY
Delta U+W
SciTegic.value.DoubleValue
0.048

@<SCITEGIC>MOL_PROPERTY
U+W
SciTegic.value.DoubleValue
-56.856

@<SCITEGIC>MOL_PROPERTY
Grad RMS
SciTegic.value.DoubleValue
0.000000

@<SCITEGIC>MOL_PROPERTY
U
SciTegic.value.DoubleValue
8.276

@<SCITEGIC>MOL_PROPERTY
W
SciTegic.value.DoubleValue
-65.132

@<SCITEGIC>MOL_PROPERTY
W(PB)
SciTegic.value.DoubleValue
-67.031

@<SCITEGIC>MOL_PROPERTY
W(SA)
SciTegic.value.DoubleValue
1.899

@<SCITEGIC>MOL_PROPERTY
Valence
SciTegic.value.DoubleValue
6.513

@<SCITEGIC>MOL_PROPERTY
Coulomb
SciTegic.value.DoubleValue
1.428

@<SCITEGIC>MOL_PROPERTY
VdW
SciTegic.value.DoubleValue
0.335

@<SCITEGIC>MOL_PROPERTY
VdW6
SciTegic.value.DoubleValue
-5.021

@<SCITEGIC>MOL_PROPERTY
VdW12
SciTegic.value.DoubleValue
5.356

@<SCITEGIC>MOL_PROPERTY
Bond
SciTegic.value.DoubleValue
0.092

@<SCITEGIC>MOL_PROPERTY
Angle
SciTegic.value.DoubleValue
2.417

@<SCITEGIC>MOL_PROPERTY
Pdih
SciTegic.value.DoubleValue
4.003

@<SCITEGIC>MOL_PROPERTY
Idih
SciTegic.value.DoubleValue
0.001

@<SCITEGIC>MOL_PROPERTY
Tether
SciTegic.value.DoubleValue
0.000

@<TRIPOS>MOLECULE
guest-s18_confgen4.mol2 : confsearch ligand conformer 736
          16          15           1
SMALL
USER_CHARGES
 
@<TRIPOS>ATOM
       1    C1      20.420168   16.881088   22.403578 C.2        1 MOL1         0.6075
       2    O1      19.485937   16.199954   22.777226 O.co2      1 MOL1        -0.6830
       3    O2      21.515812   16.863383   22.928471 O.co2      1 MOL1        -0.6830
       4    C2      20.210621   17.789623   21.195211 C.3        1 MOL1        -0.2050
       5    H1      19.690434   17.202260   20.429283 H          1 MOL1         0.0710
       6    H2      21.191265   18.053477   20.780719 H          1 MOL1         0.0710
       7    C3      19.397135   19.073532   21.503207 C.3        1 MOL1        -0.1947
       8    H3      19.177371   19.591143   20.559628 H          1 MOL1         0.0712
       9    H4      18.429776   18.794780   21.943817 H          1 MOL1         0.0712
      10    C4      20.144662   20.037401   22.449965 C.3        1 MOL1        -0.1921
      11    H5      21.116942   20.305447   22.013843 H          1 MOL1         0.0712
      12    H6      20.352021   19.536441   23.405875 H          1 MOL1         0.0712
      13    C5      19.329322   21.319070   22.712445 C.3        1 MOL1        -0.2936
      14    H7      19.135882   21.860391   21.777049 H          1 MOL1         0.0724
      15    H8      19.873911   21.992263   23.387243 H          1 MOL1         0.0724
      16    H9      18.363539   21.081423   23.177459 H          1 MOL1         0.0724
@<TRIPOS>BOND
    1     1     2    1
    2     1     3    2
    3     1     4    1
    4     4     5    1
    5     4     6    1
    6     4     7    1
    7     7     8    1
    8     7     9    1
    9     7    10    1
   10    10    11    1
   11    10    12    1
   12    10    13    1
   13    13    14    1
   14    13    15    1
   15    13    16    1
@<TRIPOS>SUBSTRUCTURE
       1 MOL1            1 RESIDUE      1      MOL     
@<SCITEGIC>MOL_PROPERTY
VConf Rank
SciTegic.value.IntegerValue
736

@<SCITEGIC>MOL_PROPERTY
Conf_Id
SciTegic.value.IntegerValue
20

@<SCITEGIC>MOL_PROPERTY
Delta U+W
SciTegic.value.DoubleValue
-0.010

@<SCITEGIC>MOL_PROPERTY
U+W
SciTegic.value.DoubleValue
-56.914

@<SCITEGIC>MOL_PROPERTY
Grad RMS
SciTegic.value.DoubleValue
0.000000

@<SCITEGIC>MOL_PROPERTY
U
SciTegic.value.DoubleValue
8.277

@<SCITEGIC>MOL_PROPERTY
W
SciTegic.value.DoubleValue
-65.191

@<SCITEGIC>MOL_PROPERTY
W(PB)
SciTegic.value.DoubleValue
-67.081

@<SCITEGIC>MOL_PROPERTY
W(SA)
SciTegic.value.DoubleValue
1.890

@<SCITEGIC>MOL_PROPERTY
Valence
SciTegic.value.DoubleValue
6.513

@<SCITEGIC>MOL_PROPERTY
Coulomb
SciTegic.value.DoubleValue
1.429

@<SCITEGIC>MOL_PROPERTY
VdW
SciTegic.value.DoubleValue
0.335

@<SCITEGIC>MOL_PROPERTY
VdW6
SciTegic.value.DoubleValue
-5.021

@<SCITEGIC>MOL_PROPERTY
VdW12
SciTegic.value.DoubleValue
5.356

@<SCITEGIC>MOL_PROPERTY
Bond
SciTegic.value.DoubleValue
0.092

@<SCITEGIC>MOL_PROPERTY
Angle
SciTegic.value.DoubleValue
2.417

@<SCITEGIC>MOL_PROPERTY
Pdih
SciTegic.value.DoubleValue
4.002

@<SCITEGIC>MOL_PROPERTY
Idih
SciTegic.value.DoubleValue
0.001

@<SCITEGIC>MOL_PROPERTY
Tether
SciTegic.value.DoubleValue
0.000

@<TRIPOS>MOLECULE
guest-s18_confgen4.mol2 : confsearch ligand conformer 737
          16          15           1
SMALL
USER_CHARGES
 
@<TRIPOS>ATOM
       1    C1      18.588543   20.250004   23.517514 C.2        1 MOL1         0.6075
       2    O1      17.704742   19.725904   24.166360 O.co2      1 MOL1        -0.6830
       3    O2      18.440632   21.283035   22.895203 O.co2      1 MOL1        -0.6830
       4    C2      19.965633   19.591709   23.513626 C.3        1 MOL1        -0.2050
       5    H1      20.239190   19.403136   24.558369 H          1 MOL1         0.0710
       6    H2      20.697730   20.309471   23.126200 H          1 MOL1         0.0710
       7    C3      20.031330   18.259239   22.718086 C.3        1 MOL1        -0.1947
       8    H3      21.030410   17.818391   22.835835 H          1 MOL1         0.0712
       9    H4      19.325314   17.546048   23.165584 H          1 MOL1         0.0712
      10    C4      19.711586   18.399938   21.210784 C.3        1 MOL1        -0.1921
      11    H5      18.699785   18.808001   21.079102 H          1 MOL1         0.0712
      12    H6      19.702636   17.399151   20.757492 H          1 MOL1         0.0712
      13    C5      20.727347   19.280857   20.452724 C.3        1 MOL1        -0.2936
      14    H7      20.681029   20.323566   20.791988 H          1 MOL1         0.0724
      15    H8      20.513692   19.272755   19.376088 H          1 MOL1         0.0724
      16    H9      21.752002   18.914543   20.597505 H          1 MOL1         0.0724
@<TRIPOS>BOND
    1     1     2    1
    2     1     3    2
    3     1     4    1
    4     4     5    1
    5     4     6    1
    6     4     7    1
    7     7     8    1
    8     7     9    1
    9     7    10    1
   10    10    11    1
   11    10    12    1
   12    10    13    1
   13    13    14    1
   14    13    15    1
   15    13    16    1
@<TRIPOS>SUBSTRUCTURE
       1 MOL1            1 RESIDUE      1      MOL     
@<SCITEGIC>MOL_PROPERTY
VConf Rank
SciTegic.value.IntegerValue
737

@<SCITEGIC>MOL_PROPERTY
Conf_Id
SciTegic.value.IntegerValue
37

@<SCITEGIC>MOL_PROPERTY
Delta U+W
SciTegic.value.DoubleValue
1.063

@<SCITEGIC>MOL_PROPERTY
U+W
SciTegic.value.DoubleValue
-55.841

@<SCITEGIC>MOL_PROPERTY
Grad RMS
SciTegic.value.DoubleValue
0.000000

@<SCITEGIC>MOL_PROPERTY
U
SciTegic.value.DoubleValue
9.719

@<SCITEGIC>MOL_PROPERTY
W
SciTegic.value.DoubleValue
-65.560

@<SCITEGIC>MOL_PROPERTY
W(PB)
SciTegic.value.DoubleValue
-67.414

@<SCITEGIC>MOL_PROPERTY
W(SA)
SciTegic.value.DoubleValue
1.854

@<SCITEGIC>MOL_PROPERTY
Valence
SciTegic.value.DoubleValue
7.002

@<SCITEGIC>MOL_PROPERTY
Coulomb
SciTegic.value.DoubleValue
2.402

@<SCITEGIC>MOL_PROPERTY
VdW
SciTegic.value.DoubleValue
0.314

@<SCITEGIC>MOL_PROPERTY
VdW6
SciTegic.value.DoubleValue
-5.861

@<SCITEGIC>MOL_PROPERTY
VdW12
SciTegic.value.DoubleValue
6.175

@<SCITEGIC>MOL_PROPERTY
Bond
SciTegic.value.DoubleValue
0.134

@<SCITEGIC>MOL_PROPERTY
Angle
SciTegic.value.DoubleValue
2.733

@<SCITEGIC>MOL_PROPERTY
Pdih
SciTegic.value.DoubleValue
4.133

@<SCITEGIC>MOL_PROPERTY
Idih
SciTegic.value.DoubleValue
0.002

@<SCITEGIC>MOL_PROPERTY
Tether
SciTegic.value.DoubleValue
0.000

@<TRIPOS>MOLECULE
guest-s18_confgen4.mol2 : confsearch ligand conformer 738
          16          15           1
SMALL
USER_CHARGES
 
@<TRIPOS>ATOM
       1    C1      20.728223   20.168217   20.383514 C.2        1 MOL1         0.6075
       2    O1      19.965708   20.397013   19.465360 O.co2      1 MOL1        -0.6830
       3    O2      21.488202   20.995938   20.845695 O.co2      1 MOL1        -0.6830
       4    C2      20.755153   18.755892   20.961751 C.3        1 MOL1        -0.2050
       5    H1      21.659293   18.642103   21.570710 H          1 MOL1         0.0710
       6    H2      20.858922   18.061417   20.119838 H          1 MOL1         0.0710
       7    C3      19.491179   18.380663   21.782881 C.3        1 MOL1        -0.1947
       8    H3      18.611244   18.453212   21.128811 H          1 MOL1         0.0712
       9    H4      19.560534   17.328418   22.090030 H          1 MOL1         0.0712
      10    C4      19.258310   19.261549   23.033402 C.3        1 MOL1        -0.1921
      11    H5      18.303804   18.973214   23.494824 H          1 MOL1         0.0712
      12    H6      19.152258   20.314011   22.735621 H          1 MOL1         0.0712
      13    C5      20.379505   19.132324   24.086334 C.3        1 MOL1        -0.2936
      14    H7      20.530029   18.083999   24.375163 H          1 MOL1         0.0724
      15    H8      20.123618   19.699423   24.990646 H          1 MOL1         0.0724
      16    H9      21.330317   19.526755   23.705719 H          1 MOL1         0.0724
@<TRIPOS>BOND
    1     1     2    1
    2     1     3    2
    3     1     4    1
    4     4     5    1
    5     4     6    1
    6     4     7    1
    7     7     8    1
    8     7     9    1
    9     7    10    1
   10    10    11    1
   11    10    12    1
   12    10    13    1
   13    13    14    1
   14    13    15    1
   15    13    16    1
@<TRIPOS>SUBSTRUCTURE
       1 MOL1            1 RESIDUE      1      MOL     
@<SCITEGIC>MOL_PROPERTY
VConf Rank
SciTegic.value.IntegerValue
738

@<SCITEGIC>MOL_PROPERTY
Conf_Id
SciTegic.value.IntegerValue
39

@<SCITEGIC>MOL_PROPERTY
Delta U+W
SciTegic.value.DoubleValue
1.129

@<SCITEGIC>MOL_PROPERTY
U+W
SciTegic.value.DoubleValue
-55.775

@<SCITEGIC>MOL_PROPERTY
Grad RMS
SciTegic.value.DoubleValue
0.000000

@<SCITEGIC>MOL_PROPERTY
U
SciTegic.value.DoubleValue
9.718

@<SCITEGIC>MOL_PROPERTY
W
SciTegic.value.DoubleValue
-65.493

@<SCITEGIC>MOL_PROPERTY
W(PB)
SciTegic.value.DoubleValue
-67.361

@<SCITEGIC>MOL_PROPERTY
W(SA)
SciTegic.value.DoubleValue
1.869

@<SCITEGIC>MOL_PROPERTY
Valence
SciTegic.value.DoubleValue
7.002

@<SCITEGIC>MOL_PROPERTY
Coulomb
SciTegic.value.DoubleValue
2.402

@<SCITEGIC>MOL_PROPERTY
VdW
SciTegic.value.DoubleValue
0.314

@<SCITEGIC>MOL_PROPERTY
VdW6
SciTegic.value.DoubleValue
-5.861

@<SCITEGIC>MOL_PROPERTY
VdW12
SciTegic.value.DoubleValue
6.175

@<SCITEGIC>MOL_PROPERTY
Bond
SciTegic.value.DoubleValue
0.134

@<SCITEGIC>MOL_PROPERTY
Angle
SciTegic.value.DoubleValue
2.734

@<SCITEGIC>MOL_PROPERTY
Pdih
SciTegic.value.DoubleValue
4.133

@<SCITEGIC>MOL_PROPERTY
Idih
SciTegic.value.DoubleValue
0.002

@<SCITEGIC>MOL_PROPERTY
Tether
SciTegic.value.DoubleValue
0.000

@<TRIPOS>MOLECULE
guest-s18_confgen4.mol2 : confsearch ligand conformer 739
          16          15           1
SMALL
USER_CHARGES
 
@<TRIPOS>ATOM
       1    C1      20.394346   18.454886   24.098236 C.2        1 MOL1         0.6075
       2    O1      20.238203   17.254911   24.210044 O.co2      1 MOL1        -0.6830
       3    O2      19.982927   19.261113   24.909340 O.co2      1 MOL1        -0.6830
       4    C2      21.227926   18.967241   22.925081 C.3        1 MOL1        -0.2050
       5    H1      21.585086   18.110899   22.340193 H          1 MOL1         0.0710
       6    H2      22.115398   19.441095   23.360519 H          1 MOL1         0.0710
       7    C3      20.512734   19.990560   21.998636 C.3        1 MOL1        -0.1947
       8    H3      19.981633   20.737356   22.605075 H          1 MOL1         0.0712
       9    H4      21.283807   20.543190   21.445012 H          1 MOL1         0.0712
      10    C4      19.547865   19.362619   20.964092 C.3        1 MOL1        -0.1921
      11    H5      20.082081   18.615323   20.361271 H          1 MOL1         0.0712
      12    H6      19.226672   20.148799   20.266920 H          1 MOL1         0.0712
      13    C5      18.291890   18.722292   21.590825 C.3        1 MOL1        -0.2936
      14    H7      18.546639   17.825102   22.168018 H          1 MOL1         0.0724
      15    H8      17.583505   18.420960   20.808419 H          1 MOL1         0.0724
      16    H9      17.780577   19.428472   22.258058 H          1 MOL1         0.0724
@<TRIPOS>BOND
    1     1     2    1
    2     1     3    2
    3     1     4    1
    4     4     5    1
    5     4     6    1
    6     4     7    1
    7     7     8    1
    8     7     9    1
    9     7    10    1
   10    10    11    1
   11    10    12    1
   12    10    13    1
   13    13    14    1
   14    13    15    1
   15    13    16    1
@<TRIPOS>SUBSTRUCTURE
       1 MOL1            1 RESIDUE      1      MOL     
@<SCITEGIC>MOL_PROPERTY
VConf Rank
SciTegic.value.IntegerValue
739

@<SCITEGIC>MOL_PROPERTY
Conf_Id
SciTegic.value.IntegerValue
47

@<SCITEGIC>MOL_PROPERTY
Delta U+W
SciTegic.value.DoubleValue
2.301

@<SCITEGIC>MOL_PROPERTY
U+W
SciTegic.value.DoubleValue
-54.603

@<SCITEGIC>MOL_PROPERTY
Grad RMS
SciTegic.value.DoubleValue
0.000000

@<SCITEGIC>MOL_PROPERTY
U
SciTegic.value.DoubleValue
11.258

@<SCITEGIC>MOL_PROPERTY
W
SciTegic.value.DoubleValue
-65.861

@<SCITEGIC>MOL_PROPERTY
W(PB)
SciTegic.value.DoubleValue
-67.702

@<SCITEGIC>MOL_PROPERTY
W(SA)
SciTegic.value.DoubleValue
1.841

@<SCITEGIC>MOL_PROPERTY
Valence
SciTegic.value.DoubleValue
8.169

@<SCITEGIC>MOL_PROPERTY
Coulomb
SciTegic.value.DoubleValue
2.735

@<SCITEGIC>MOL_PROPERTY
VdW
SciTegic.value.DoubleValue
0.355

@<SCITEGIC>MOL_PROPERTY
VdW6
SciTegic.value.DoubleValue
-6.245

@<SCITEGIC>MOL_PROPERTY
VdW12
SciTegic.value.DoubleValue
6.600

@<SCITEGIC>MOL_PROPERTY
Bond
SciTegic.value.DoubleValue
0.149

@<SCITEGIC>MOL_PROPERTY
Angle
SciTegic.value.DoubleValue
3.168

@<SCITEGIC>MOL_PROPERTY
Pdih
SciTegic.value.DoubleValue
4.840

@<SCITEGIC>MOL_PROPERTY
Idih
SciTegic.value.DoubleValue
0.011

@<SCITEGIC>MOL_PROPERTY
Tether
SciTegic.value.DoubleValue
0.000

@<TRIPOS>MOLECULE
guest-s18_confgen4.mol2 : confsearch ligand conformer 740
          16          15           1
SMALL
USER_CHARGES
 
@<TRIPOS>ATOM
       1    C1      19.577443   17.141800   22.182056 C.2        1 MOL1         0.6075
       2    O1      20.252134   16.610026   23.041804 O.co2      1 MOL1        -0.6830
       3    O2      19.531537   16.752029   21.031930 O.co2      1 MOL1        -0.6830
       4    C2      18.671587   18.303518   22.586410 C.3        1 MOL1        -0.2050
       5    H1      17.965468   17.902625   23.322908 H          1 MOL1         0.0710
       6    H2      18.077075   18.611549   21.717703 H          1 MOL1         0.0710
       7    C3      19.400243   19.531122   23.202071 C.3        1 MOL1        -0.1947
       8    H3      18.662028   20.114175   23.769117 H          1 MOL1         0.0712
       9    H4      20.147424   19.194693   23.934243 H          1 MOL1         0.0712
      10    C4      20.057283   20.478462   22.169401 C.3        1 MOL1        -0.1921
      11    H5      20.398026   21.381632   22.694255 H          1 MOL1         0.0712
      12    H6      19.307549   20.811028   21.438285 H          1 MOL1         0.0712
      13    C5      21.262001   19.858085   21.431788 C.3        1 MOL1        -0.2936
      14    H7      21.769426   20.615479   20.820524 H          1 MOL1         0.0724
      15    H8      20.946472   19.050125   20.760490 H          1 MOL1         0.0724
      16    H9      21.992461   19.450667   22.142962 H          1 MOL1         0.0724
@<TRIPOS>BOND
    1     1     2    1
    2     1     3    2
    3     1     4    1
    4     4     5    1
    5     4     6    1
    6     4     7    1
    7     7     8    1
    8     7     9    1
    9     7    10    1
   10    10    11    1
   11    10    12    1
   12    10    13    1
   13    13    14    1
   14    13    15    1
   15    13    16    1
@<TRIPOS>SUBSTRUCTURE
       1 MOL1            1 RESIDUE      1      MOL     
@<SCITEGIC>MOL_PROPERTY
VConf Rank
SciTegic.value.IntegerValue
740

@<SCITEGIC>MOL_PROPERTY
Conf_Id
SciTegic.value.IntegerValue
45

@<SCITEGIC>MOL_PROPERTY
Delta U+W
SciTegic.value.DoubleValue
2.303

@<SCITEGIC>MOL_PROPERTY
U+W
SciTegic.value.DoubleValue
-54.601

@<SCITEGIC>MOL_PROPERTY
Grad RMS
SciTegic.value.DoubleValue
0.000000

@<SCITEGIC>MOL_PROPERTY
U
SciTegic.value.DoubleValue
11.258

@<SCITEGIC>MOL_PROPERTY
W
SciTegic.value.DoubleValue
-65.860

@<SCITEGIC>MOL_PROPERTY
W(PB)
SciTegic.value.DoubleValue
-67.709

@<SCITEGIC>MOL_PROPERTY
W(SA)
SciTegic.value.DoubleValue
1.849

@<SCITEGIC>MOL_PROPERTY
Valence
SciTegic.value.DoubleValue
8.169

@<SCITEGIC>MOL_PROPERTY
Coulomb
SciTegic.value.DoubleValue
2.735

@<SCITEGIC>MOL_PROPERTY
VdW
SciTegic.value.DoubleValue
0.355

@<SCITEGIC>MOL_PROPERTY
VdW6
SciTegic.value.DoubleValue
-6.245

@<SCITEGIC>MOL_PROPERTY
VdW12
SciTegic.value.DoubleValue
6.600

@<SCITEGIC>MOL_PROPERTY
Bond
SciTegic.value.DoubleValue
0.149

@<SCITEGIC>MOL_PROPERTY
Angle
SciTegic.value.DoubleValue
3.168

@<SCITEGIC>MOL_PROPERTY
Pdih
SciTegic.value.DoubleValue
4.840

@<SCITEGIC>MOL_PROPERTY
Idih
SciTegic.value.DoubleValue
0.011

@<SCITEGIC>MOL_PROPERTY
Tether
SciTegic.value.DoubleValue
0.000

@<TRIPOS>MOLECULE
guest-s18_confgen4.mol2 : confsearch ligand conformer 741
          16          15           1
SMALL
USER_CHARGES
 
@<TRIPOS>ATOM
       1    C1      22.506370   18.268160   22.700263 C.2        1 MOL1         0.6075
       2    O1      22.887011   19.374977   23.028661 O.co2      1 MOL1        -0.6830
       3    O2      23.202425   17.276362   22.784862 O.co2      1 MOL1        -0.6830
       4    C2      21.090738   18.082989   22.151089 C.3        1 MOL1        -0.2050
       5    H1      20.584399   17.351146   22.791547 H          1 MOL1         0.0710
       6    H2      21.182092   17.630051   21.156772 H          1 MOL1         0.0710
       7    C3      20.239293   19.377285   22.060603 C.3        1 MOL1        -0.1947
       8    H3      20.155853   19.829407   23.058647 H          1 MOL1         0.0712
       9    H4      20.754154   20.108587   21.422179 H          1 MOL1         0.0712
      10    C4      18.829819   19.098358   21.497716 C.3        1 MOL1        -0.1921
      11    H5      18.313155   18.368438   22.136288 H          1 MOL1         0.0712
      12    H6      18.911802   18.647782   20.498837 H          1 MOL1         0.0712
      13    C5      17.989130   20.387442   21.410281 C.3        1 MOL1        -0.2936
      14    H7      17.864508   20.843000   22.401445 H          1 MOL1         0.0724
      15    H8      16.990610   20.171586   21.008403 H          1 MOL1         0.0724
      16    H9      18.467567   21.124409   20.751913 H          1 MOL1         0.0724
@<TRIPOS>BOND
    1     1     2    1
    2     1     3    2
    3     1     4    1
    4     4     5    1
    5     4     6    1
    6     4     7    1
    7     7     8    1
    8     7     9    1
    9     7    10    1
   10    10    11    1
   11    10    12    1
   12    10    13    1
   13    13    14    1
   14    13    15    1
   15    13    16    1
@<TRIPOS>SUBSTRUCTURE
       1 MOL1            1 RESIDUE      1      MOL     
@<SCITEGIC>MOL_PROPERTY
VConf Rank
SciTegic.value.IntegerValue
741

@<SCITEGIC>MOL_PROPERTY
Conf_Id
SciTegic.value.IntegerValue
0

@<SCITEGIC>MOL_PROPERTY
Delta U+W
SciTegic.value.DoubleValue
0.000

@<SCITEGIC>MOL_PROPERTY
U+W
SciTegic.value.DoubleValue
-56.904

@<SCITEGIC>MOL_PROPERTY
Grad RMS
SciTegic.value.DoubleValue
0.000000

@<SCITEGIC>MOL_PROPERTY
U
SciTegic.value.DoubleValue
7.329

@<SCITEGIC>MOL_PROPERTY
W
SciTegic.value.DoubleValue
-64.233

@<SCITEGIC>MOL_PROPERTY
W(PB)
SciTegic.value.DoubleValue
-66.148

@<SCITEGIC>MOL_PROPERTY
W(SA)
SciTegic.value.DoubleValue
1.915

@<SCITEGIC>MOL_PROPERTY
Valence
SciTegic.value.DoubleValue
6.755

@<SCITEGIC>MOL_PROPERTY
Coulomb
SciTegic.value.DoubleValue
-0.421

@<SCITEGIC>MOL_PROPERTY
VdW
SciTegic.value.DoubleValue
0.995

@<SCITEGIC>MOL_PROPERTY
VdW6
SciTegic.value.DoubleValue
-4.495

@<SCITEGIC>MOL_PROPERTY
VdW12
SciTegic.value.DoubleValue
5.490

@<SCITEGIC>MOL_PROPERTY
Bond
SciTegic.value.DoubleValue
0.106

@<SCITEGIC>MOL_PROPERTY
Angle
SciTegic.value.DoubleValue
2.715

@<SCITEGIC>MOL_PROPERTY
Pdih
SciTegic.value.DoubleValue
3.934

@<SCITEGIC>MOL_PROPERTY
Idih
SciTegic.value.DoubleValue
0.000

@<SCITEGIC>MOL_PROPERTY
Tether
SciTegic.value.DoubleValue
0.000

@<TRIPOS>MOLECULE
guest-s18_confgen4.mol2 : confsearch ligand conformer 742
          16          15           1
SMALL
USER_CHARGES
 
@<TRIPOS>ATOM
       1    C1      17.420518   18.857562   22.683501 C.2        1 MOL1         0.6075
       2    O1      17.172963   17.858477   23.328783 O.co2      1 MOL1        -0.6830
       3    O2      16.818619   19.905250   22.809642 O.co2      1 MOL1        -0.6830
       4    C2      18.560745   18.798671   21.673057 C.3        1 MOL1        -0.2050
       5    H1      18.313205   19.467821   20.840103 H          1 MOL1         0.0710
       6    H2      18.605425   17.780366   21.268201 H          1 MOL1         0.0710
       7    C3      19.928551   19.190597   22.284254 C.3        1 MOL1        -0.1947
       8    H3      19.864182   20.207327   22.696160 H          1 MOL1         0.0712
       9    H4      20.156390   18.519837   23.124328 H          1 MOL1         0.0712
      10    C4      21.063938   19.122686   21.241734 C.3        1 MOL1        -0.1921
      11    H5      20.836790   19.793844   20.401800 H          1 MOL1         0.0712
      12    H6      21.129050   18.105921   20.830046 H          1 MOL1         0.0712
      13    C5      22.422059   19.513937   21.856982 C.3        1 MOL1        -0.2936
      14    H7      22.689337   18.838732   22.680470 H          1 MOL1         0.0724
      15    H8      22.394910   20.539116   22.249082 H          1 MOL1         0.0724
      16    H9      23.218062   19.460447   21.102880 H          1 MOL1         0.0724
@<TRIPOS>BOND
    1     1     2    1
    2     1     3    2
    3     1     4    1
    4     4     5    1
    5     4     6    1
    6     4     7    1
    7     7     8    1
    8     7     9    1
    9     7    10    1
   10    10    11    1
   11    10    12    1
   12    10    13    1
   13    13    14    1
   14    13    15    1
   15    13    16    1
@<TRIPOS>SUBSTRUCTURE
       1 MOL1            1 RESIDUE      1      MOL     
@<SCITEGIC>MOL_PROPERTY
VConf Rank
SciTegic.value.IntegerValue
742

@<SCITEGIC>MOL_PROPERTY
Conf_Id
SciTegic.value.IntegerValue
22

@<SCITEGIC>MOL_PROPERTY
Delta U+W
SciTegic.value.DoubleValue
-1.185

@<SCITEGIC>MOL_PROPERTY
U+W
SciTegic.value.DoubleValue
-58.089

@<SCITEGIC>MOL_PROPERTY
Grad RMS
SciTegic.value.DoubleValue
0.000000

@<SCITEGIC>MOL_PROPERTY
U
SciTegic.value.DoubleValue
6.298

@<SCITEGIC>MOL_PROPERTY
W
SciTegic.value.DoubleValue
-64.387

@<SCITEGIC>MOL_PROPERTY
W(PB)
SciTegic.value.DoubleValue
-66.329

@<SCITEGIC>MOL_PROPERTY
W(SA)
SciTegic.value.DoubleValue
1.942

@<SCITEGIC>MOL_PROPERTY
Valence
SciTegic.value.DoubleValue
6.246

@<SCITEGIC>MOL_PROPERTY
Coulomb
SciTegic.value.DoubleValue
-0.408

@<SCITEGIC>MOL_PROPERTY
VdW
SciTegic.value.DoubleValue
0.460

@<SCITEGIC>MOL_PROPERTY
VdW6
SciTegic.value.DoubleValue
-4.207

@<SCITEGIC>MOL_PROPERTY
VdW12
SciTegic.value.DoubleValue
4.667

@<SCITEGIC>MOL_PROPERTY
Bond
SciTegic.value.DoubleValue
0.072

@<SCITEGIC>MOL_PROPERTY
Angle
SciTegic.value.DoubleValue
2.246

@<SCITEGIC>MOL_PROPERTY
Pdih
SciTegic.value.DoubleValue
3.928

@<SCITEGIC>MOL_PROPERTY
Idih
SciTegic.value.DoubleValue
0.001

@<SCITEGIC>MOL_PROPERTY
Tether
SciTegic.value.DoubleValue
0.000

@<TRIPOS>MOLECULE
guest-s18_confgen4.mol2 : confsearch ligand conformer 743
          16          15           1
SMALL
USER_CHARGES
 
@<TRIPOS>ATOM
       1    C1      21.347823   16.980631   21.675219 C.2        1 MOL1         0.6075
       2    O1      22.235420   16.889853   20.850643 O.co2      1 MOL1        -0.6830
       3    O2      20.778506   16.021766   22.157313 O.co2      1 MOL1        -0.6830
       4    C2      20.911366   18.374176   22.113520 C.3        1 MOL1        -0.2050
       5    H1      21.787840   19.032296   22.078325 H          1 MOL1         0.0710
       6    H2      20.593860   18.311279   23.160588 H          1 MOL1         0.0710
       7    C3      19.773400   18.952428   21.232810 C.3        1 MOL1        -0.1947
       8    H3      20.090145   18.921110   20.181087 H          1 MOL1         0.0712
       9    H4      18.886880   18.307842   21.309614 H          1 MOL1         0.0712
      10    C4      19.394239   20.407086   21.594220 C.3        1 MOL1        -0.1921
      11    H5      18.665269   20.775101   20.859048 H          1 MOL1         0.0712
      12    H6      20.278032   21.054018   21.506079 H          1 MOL1         0.0712
      13    C5      18.788772   20.545053   23.007481 C.3        1 MOL1        -0.2936
      14    H7      19.522494   20.295426   23.784089 H          1 MOL1         0.0724
      15    H8      17.919908   19.885051   23.128815 H          1 MOL1         0.0724
      16    H9      18.456764   21.576455   23.183516 H          1 MOL1         0.0724
@<TRIPOS>BOND
    1     1     2    1
    2     1     3    2
    3     1     4    1
    4     4     5    1
    5     4     6    1
    6     4     7    1
    7     7     8    1
    8     7     9    1
    9     7    10    1
   10    10    11    1
   11    10    12    1
   12    10    13    1
   13    13    14    1
   14    13    15    1
   15    13    16    1
@<TRIPOS>SUBSTRUCTURE
       1 MOL1            1 RESIDUE      1      MOL     
@<SCITEGIC>MOL_PROPERTY
VConf Rank
SciTegic.value.IntegerValue
743

@<SCITEGIC>MOL_PROPERTY
Conf_Id
SciTegic.value.IntegerValue
36

@<SCITEGIC>MOL_PROPERTY
Delta U+W
SciTegic.value.DoubleValue
-0.427

@<SCITEGIC>MOL_PROPERTY
U+W
SciTegic.value.DoubleValue
-57.331

@<SCITEGIC>MOL_PROPERTY
Grad RMS
SciTegic.value.DoubleValue
0.000000

@<SCITEGIC>MOL_PROPERTY
U
SciTegic.value.DoubleValue
7.263

@<SCITEGIC>MOL_PROPERTY
W
SciTegic.value.DoubleValue
-64.594

@<SCITEGIC>MOL_PROPERTY
W(PB)
SciTegic.value.DoubleValue
-66.513

@<SCITEGIC>MOL_PROPERTY
W(SA)
SciTegic.value.DoubleValue
1.920

@<SCITEGIC>MOL_PROPERTY
Valence
SciTegic.value.DoubleValue
6.734

@<SCITEGIC>MOL_PROPERTY
Coulomb
SciTegic.value.DoubleValue
-0.068

@<SCITEGIC>MOL_PROPERTY
VdW
SciTegic.value.DoubleValue
0.598

@<SCITEGIC>MOL_PROPERTY
VdW6
SciTegic.value.DoubleValue
-4.819

@<SCITEGIC>MOL_PROPERTY
VdW12
SciTegic.value.DoubleValue
5.417

@<SCITEGIC>MOL_PROPERTY
Bond
SciTegic.value.DoubleValue
0.107

@<SCITEGIC>MOL_PROPERTY
Angle
SciTegic.value.DoubleValue
2.469

@<SCITEGIC>MOL_PROPERTY
Pdih
SciTegic.value.DoubleValue
4.157

@<SCITEGIC>MOL_PROPERTY
Idih
SciTegic.value.DoubleValue
0.001

@<SCITEGIC>MOL_PROPERTY
Tether
SciTegic.value.DoubleValue
0.000

@<TRIPOS>MOLECULE
guest-s18_confgen4.mol2 : confsearch ligand conformer 744
          16          15           1
SMALL
USER_CHARGES
 
@<TRIPOS>ATOM
       1    C1      22.489874   18.731142   21.598868 C.2        1 MOL1         0.6075
       2    O1      23.110484   18.787487   22.641761 O.co2      1 MOL1        -0.6830
       3    O2      23.005000   18.841413   20.504116 O.co2      1 MOL1        -0.6830
       4    C2      20.979944   18.531315   21.667815 C.3        1 MOL1        -0.2050
       5    H1      20.764529   17.910047   22.544592 H          1 MOL1         0.0710
       6    H2      20.670924   17.962825   20.782437 H          1 MOL1         0.0710
       7    C3      20.199333   19.869225   21.742895 C.3        1 MOL1        -0.1947
       8    H3      20.485708   20.409984   22.655516 H          1 MOL1         0.0712
       9    H4      20.502695   20.503016   20.898081 H          1 MOL1         0.0712
      10    C4      18.664291   19.689140   21.702585 C.3        1 MOL1        -0.1921
      11    H5      18.376637   19.158719   20.784277 H          1 MOL1         0.0712
      12    H6      18.193664   20.680581   21.649090 H          1 MOL1         0.0712
      13    C5      18.106956   18.939311   22.931432 C.3        1 MOL1        -0.2936
      14    H7      18.462839   17.901957   22.963474 H          1 MOL1         0.0724
      15    H8      17.009993   18.913239   22.899835 H          1 MOL1         0.0724
      16    H9      18.406419   19.435740   23.863704 H          1 MOL1         0.0724
@<TRIPOS>BOND
    1     1     2    1
    2     1     3    2
    3     1     4    1
    4     4     5    1
    5     4     6    1
    6     4     7    1
    7     7     8    1
    8     7     9    1
    9     7    10    1
   10    10    11    1
   11    10    12    1
   12    10    13    1
   13    13    14    1
   14    13    15    1
   15    13    16    1
@<TRIPOS>SUBSTRUCTURE
       1 MOL1            1 RESIDUE      1      MOL     
@<SCITEGIC>MOL_PROPERTY
VConf Rank
SciTegic.value.IntegerValue
744

@<SCITEGIC>MOL_PROPERTY
Conf_Id
SciTegic.value.IntegerValue
17

@<SCITEGIC>MOL_PROPERTY
Delta U+W
SciTegic.value.DoubleValue
-0.432

@<SCITEGIC>MOL_PROPERTY
U+W
SciTegic.value.DoubleValue
-57.336

@<SCITEGIC>MOL_PROPERTY
Grad RMS
SciTegic.value.DoubleValue
0.000000

@<SCITEGIC>MOL_PROPERTY
U
SciTegic.value.DoubleValue
7.263

@<SCITEGIC>MOL_PROPERTY
W
SciTegic.value.DoubleValue
-64.599

@<SCITEGIC>MOL_PROPERTY
W(PB)
SciTegic.value.DoubleValue
-66.503

@<SCITEGIC>MOL_PROPERTY
W(SA)
SciTegic.value.DoubleValue
1.904

@<SCITEGIC>MOL_PROPERTY
Valence
SciTegic.value.DoubleValue
6.734

@<SCITEGIC>MOL_PROPERTY
Coulomb
SciTegic.value.DoubleValue
-0.068

@<SCITEGIC>MOL_PROPERTY
VdW
SciTegic.value.DoubleValue
0.598

@<SCITEGIC>MOL_PROPERTY
VdW6
SciTegic.value.DoubleValue
-4.819

@<SCITEGIC>MOL_PROPERTY
VdW12
SciTegic.value.DoubleValue
5.417

@<SCITEGIC>MOL_PROPERTY
Bond
SciTegic.value.DoubleValue
0.107

@<SCITEGIC>MOL_PROPERTY
Angle
SciTegic.value.DoubleValue
2.469

@<SCITEGIC>MOL_PROPERTY
Pdih
SciTegic.value.DoubleValue
4.157

@<SCITEGIC>MOL_PROPERTY
Idih
SciTegic.value.DoubleValue
0.001

@<SCITEGIC>MOL_PROPERTY
Tether
SciTegic.value.DoubleValue
0.000

@<TRIPOS>MOLECULE
guest-s18_confgen4.mol2 : confsearch ligand conformer 745
          16          15           1
SMALL
USER_CHARGES
 
@<TRIPOS>ATOM
       1    C1      21.073932   21.302449   21.910808 C.2        1 MOL1         0.6075
       2    O1      20.827932   21.852895   20.855898 O.co2      1 MOL1        -0.6830
       3    O2      20.926425   21.831878   22.994417 O.co2      1 MOL1        -0.6830
       4    C2      21.620192   19.877894   21.869137 C.3        1 MOL1        -0.2050
       5    H1      22.106593   19.660744   22.827961 H          1 MOL1         0.0710
       6    H2      22.403676   19.849128   21.102613 H          1 MOL1         0.0710
       7    C3      20.550500   18.799656   21.555774 C.3        1 MOL1        -0.1947
       8    H3      20.052347   19.045631   20.607636 H          1 MOL1         0.0712
       9    H4      21.051191   17.833140   21.408417 H          1 MOL1         0.0712
      10    C4      19.499373   18.662039   22.678439 C.3        1 MOL1        -0.1921
      11    H5      18.977240   19.618490   22.820922 H          1 MOL1         0.0712
      12    H6      20.000003   18.428365   23.628251 H          1 MOL1         0.0712
      13    C5      18.468773   17.561504   22.357455 C.3        1 MOL1        -0.2936
      14    H7      17.931276   17.786588   21.426926 H          1 MOL1         0.0724
      15    H8      17.729125   17.477368   23.164275 H          1 MOL1         0.0724
      16    H9      18.958521   16.585513   22.243412 H          1 MOL1         0.0724
@<TRIPOS>BOND
    1     1     2    1
    2     1     3    2
    3     1     4    1
    4     4     5    1
    5     4     6    1
    6     4     7    1
    7     7     8    1
    8     7     9    1
    9     7    10    1
   10    10    11    1
   11    10    12    1
   12    10    13    1
   13    13    14    1
   14    13    15    1
   15    13    16    1
@<TRIPOS>SUBSTRUCTURE
       1 MOL1            1 RESIDUE      1      MOL     
@<SCITEGIC>MOL_PROPERTY
VConf Rank
SciTegic.value.IntegerValue
745

@<SCITEGIC>MOL_PROPERTY
Conf_Id
SciTegic.value.IntegerValue
19

@<SCITEGIC>MOL_PROPERTY
Delta U+W
SciTegic.value.DoubleValue
0.048

@<SCITEGIC>MOL_PROPERTY
U+W
SciTegic.value.DoubleValue
-56.856

@<SCITEGIC>MOL_PROPERTY
Grad RMS
SciTegic.value.DoubleValue
0.000000

@<SCITEGIC>MOL_PROPERTY
U
SciTegic.value.DoubleValue
8.276

@<SCITEGIC>MOL_PROPERTY
W
SciTegic.value.DoubleValue
-65.132

@<SCITEGIC>MOL_PROPERTY
W(PB)
SciTegic.value.DoubleValue
-67.031

@<SCITEGIC>MOL_PROPERTY
W(SA)
SciTegic.value.DoubleValue
1.899

@<SCITEGIC>MOL_PROPERTY
Valence
SciTegic.value.DoubleValue
6.513

@<SCITEGIC>MOL_PROPERTY
Coulomb
SciTegic.value.DoubleValue
1.428

@<SCITEGIC>MOL_PROPERTY
VdW
SciTegic.value.DoubleValue
0.335

@<SCITEGIC>MOL_PROPERTY
VdW6
SciTegic.value.DoubleValue
-5.021

@<SCITEGIC>MOL_PROPERTY
VdW12
SciTegic.value.DoubleValue
5.356

@<SCITEGIC>MOL_PROPERTY
Bond
SciTegic.value.DoubleValue
0.092

@<SCITEGIC>MOL_PROPERTY
Angle
SciTegic.value.DoubleValue
2.417

@<SCITEGIC>MOL_PROPERTY
Pdih
SciTegic.value.DoubleValue
4.003

@<SCITEGIC>MOL_PROPERTY
Idih
SciTegic.value.DoubleValue
0.001

@<SCITEGIC>MOL_PROPERTY
Tether
SciTegic.value.DoubleValue
0.000

@<TRIPOS>MOLECULE
guest-s18_confgen4.mol2 : confsearch ligand conformer 746
          16          15           1
SMALL
USER_CHARGES
 
@<TRIPOS>ATOM
       1    C1      20.632671   18.834151   19.874587 C.2        1 MOL1         0.6075
       2    O1      21.776049   19.204749   19.696583 O.co2      1 MOL1        -0.6830
       3    O2      19.709148   19.131994   19.143386 O.co2      1 MOL1        -0.6830
       4    C2      20.347742   17.926648   21.068217 C.3        1 MOL1        -0.2050
       5    H1      21.125583   17.154071   21.086145 H          1 MOL1         0.0710
       6    H2      19.393999   17.412410   20.897867 H          1 MOL1         0.0710
       7    C3      20.321104   18.665191   22.431628 C.3        1 MOL1        -0.1947
       8    H3      20.250181   17.922588   23.237897 H          1 MOL1         0.0712
       9    H4      21.271085   19.198540   22.575496 H          1 MOL1         0.0712
      10    C4      19.142432   19.655900   22.547466 C.3        1 MOL1        -0.1921
      11    H5      18.194033   19.123478   22.391123 H          1 MOL1         0.0712
      12    H6      19.214326   20.416389   21.757395 H          1 MOL1         0.0712
      13    C5      19.119868   20.350758   23.923335 C.3        1 MOL1        -0.2936
      14    H7      19.013732   19.616639   24.732791 H          1 MOL1         0.0724
      15    H8      18.277412   21.051552   23.988708 H          1 MOL1         0.0724
      16    H9      20.045434   20.916616   24.092397 H          1 MOL1         0.0724
@<TRIPOS>BOND
    1     1     2    1
    2     1     3    2
    3     1     4    1
    4     4     5    1
    5     4     6    1
    6     4     7    1
    7     7     8    1
    8     7     9    1
    9     7    10    1
   10    10    11    1
   11    10    12    1
   12    10    13    1
   13    13    14    1
   14    13    15    1
   15    13    16    1
@<TRIPOS>SUBSTRUCTURE
       1 MOL1            1 RESIDUE      1      MOL     
@<SCITEGIC>MOL_PROPERTY
VConf Rank
SciTegic.value.IntegerValue
746

@<SCITEGIC>MOL_PROPERTY
Conf_Id
SciTegic.value.IntegerValue
20

@<SCITEGIC>MOL_PROPERTY
Delta U+W
SciTegic.value.DoubleValue
-0.010

@<SCITEGIC>MOL_PROPERTY
U+W
SciTegic.value.DoubleValue
-56.914

@<SCITEGIC>MOL_PROPERTY
Grad RMS
SciTegic.value.DoubleValue
0.000000

@<SCITEGIC>MOL_PROPERTY
U
SciTegic.value.DoubleValue
8.277

@<SCITEGIC>MOL_PROPERTY
W
SciTegic.value.DoubleValue
-65.191

@<SCITEGIC>MOL_PROPERTY
W(PB)
SciTegic.value.DoubleValue
-67.081

@<SCITEGIC>MOL_PROPERTY
W(SA)
SciTegic.value.DoubleValue
1.890

@<SCITEGIC>MOL_PROPERTY
Valence
SciTegic.value.DoubleValue
6.513

@<SCITEGIC>MOL_PROPERTY
Coulomb
SciTegic.value.DoubleValue
1.429

@<SCITEGIC>MOL_PROPERTY
VdW
SciTegic.value.DoubleValue
0.335

@<SCITEGIC>MOL_PROPERTY
VdW6
SciTegic.value.DoubleValue
-5.021

@<SCITEGIC>MOL_PROPERTY
VdW12
SciTegic.value.DoubleValue
5.356

@<SCITEGIC>MOL_PROPERTY
Bond
SciTegic.value.DoubleValue
0.092

@<SCITEGIC>MOL_PROPERTY
Angle
SciTegic.value.DoubleValue
2.417

@<SCITEGIC>MOL_PROPERTY
Pdih
SciTegic.value.DoubleValue
4.002

@<SCITEGIC>MOL_PROPERTY
Idih
SciTegic.value.DoubleValue
0.001

@<SCITEGIC>MOL_PROPERTY
Tether
SciTegic.value.DoubleValue
0.000

@<TRIPOS>MOLECULE
guest-s18_confgen4.mol2 : confsearch ligand conformer 747
          16          15           1
SMALL
USER_CHARGES
 
@<TRIPOS>ATOM
       1    C1      20.083256   17.087847   21.653844 C.2        1 MOL1         0.6075
       2    O1      19.364150   16.212536   22.093733 O.co2      1 MOL1        -0.6830
       3    O2      21.294050   16.999037   21.604925 O.co2      1 MOL1        -0.6830
       4    C2      19.425730   18.350371   21.102994 C.3        1 MOL1        -0.2050
       5    H1      18.642868   18.031550   20.404882 H          1 MOL1         0.0710
       6    H2      20.164277   18.901673   20.509814 H          1 MOL1         0.0710
       7    C3      18.800941   19.267899   22.189484 C.3        1 MOL1        -0.1947
       8    H3      18.283855   20.104488   21.700494 H          1 MOL1         0.0712
       9    H4      18.028916   18.701320   22.728299 H          1 MOL1         0.0712
      10    C4      19.817115   19.826572   23.213821 C.3        1 MOL1        -0.1921
      11    H5      20.316878   18.998424   23.735362 H          1 MOL1         0.0712
      12    H6      19.269693   20.390050   23.981904 H          1 MOL1         0.0712
      13    C5      20.876397   20.751705   22.577823 C.3        1 MOL1        -0.2936
      14    H7      21.528886   20.196871   21.891598 H          1 MOL1         0.0724
      15    H8      21.512900   21.196250   23.353776 H          1 MOL1         0.0724
      16    H9      20.401688   21.569156   22.019709 H          1 MOL1         0.0724
@<TRIPOS>BOND
    1     1     2    1
    2     1     3    2
    3     1     4    1
    4     4     5    1
    5     4     6    1
    6     4     7    1
    7     7     8    1
    8     7     9    1
    9     7    10    1
   10    10    11    1
   11    10    12    1
   12    10    13    1
   13    13    14    1
   14    13    15    1
   15    13    16    1
@<TRIPOS>SUBSTRUCTURE
       1 MOL1            1 RESIDUE      1      MOL     
@<SCITEGIC>MOL_PROPERTY
VConf Rank
SciTegic.value.IntegerValue
747

@<SCITEGIC>MOL_PROPERTY
Conf_Id
SciTegic.value.IntegerValue
37

@<SCITEGIC>MOL_PROPERTY
Delta U+W
SciTegic.value.DoubleValue
1.063

@<SCITEGIC>MOL_PROPERTY
U+W
SciTegic.value.DoubleValue
-55.841

@<SCITEGIC>MOL_PROPERTY
Grad RMS
SciTegic.value.DoubleValue
0.000000

@<SCITEGIC>MOL_PROPERTY
U
SciTegic.value.DoubleValue
9.719

@<SCITEGIC>MOL_PROPERTY
W
SciTegic.value.DoubleValue
-65.560

@<SCITEGIC>MOL_PROPERTY
W(PB)
SciTegic.value.DoubleValue
-67.414

@<SCITEGIC>MOL_PROPERTY
W(SA)
SciTegic.value.DoubleValue
1.854

@<SCITEGIC>MOL_PROPERTY
Valence
SciTegic.value.DoubleValue
7.002

@<SCITEGIC>MOL_PROPERTY
Coulomb
SciTegic.value.DoubleValue
2.402

@<SCITEGIC>MOL_PROPERTY
VdW
SciTegic.value.DoubleValue
0.314

@<SCITEGIC>MOL_PROPERTY
VdW6
SciTegic.value.DoubleValue
-5.861

@<SCITEGIC>MOL_PROPERTY
VdW12
SciTegic.value.DoubleValue
6.175

@<SCITEGIC>MOL_PROPERTY
Bond
SciTegic.value.DoubleValue
0.134

@<SCITEGIC>MOL_PROPERTY
Angle
SciTegic.value.DoubleValue
2.733

@<SCITEGIC>MOL_PROPERTY
Pdih
SciTegic.value.DoubleValue
4.133

@<SCITEGIC>MOL_PROPERTY
Idih
SciTegic.value.DoubleValue
0.002

@<SCITEGIC>MOL_PROPERTY
Tether
SciTegic.value.DoubleValue
0.000

@<TRIPOS>MOLECULE
guest-s18_confgen4.mol2 : confsearch ligand conformer 748
          16          15           1
SMALL
USER_CHARGES
 
@<TRIPOS>ATOM
       1    C1      20.479682   18.309866   24.127155 C.2        1 MOL1         0.6075
       2    O1      21.289035   17.429809   24.344482 O.co2      1 MOL1        -0.6830
       3    O2      20.375490   19.308491   24.811400 O.co2      1 MOL1        -0.6830
       4    C2      19.521461   18.132304   22.952408 C.3        1 MOL1        -0.2050
       5    H1      18.700847   18.851436   23.055802 H          1 MOL1         0.0710
       6    H2      19.073992   17.135782   23.045130 H          1 MOL1         0.0710
       7    C3      20.193170   18.264812   21.558160 C.3        1 MOL1        -0.1947
       8    H3      20.972869   17.495887   21.467735 H          1 MOL1         0.0712
       9    H4      19.451461   18.044299   20.778664 H          1 MOL1         0.0712
      10    C4      20.823764   19.650711   21.283154 C.3        1 MOL1        -0.1921
      11    H5      21.341071   19.616578   20.314466 H          1 MOL1         0.0712
      12    H6      21.593174   19.868286   22.036989 H          1 MOL1         0.0712
      13    C5      19.788873   20.795544   21.254919 C.3        1 MOL1        -0.2936
      14    H7      18.988463   20.585601   20.533577 H          1 MOL1         0.0724
      15    H8      20.268436   21.738973   20.963679 H          1 MOL1         0.0724
      16    H9      19.334510   20.945770   22.242580 H          1 MOL1         0.0724
@<TRIPOS>BOND
    1     1     2    1
    2     1     3    2
    3     1     4    1
    4     4     5    1
    5     4     6    1
    6     4     7    1
    7     7     8    1
    8     7     9    1
    9     7    10    1
   10    10    11    1
   11    10    12    1
   12    10    13    1
   13    13    14    1
   14    13    15    1
   15    13    16    1
@<TRIPOS>SUBSTRUCTURE
       1 MOL1            1 RESIDUE      1      MOL     
@<SCITEGIC>MOL_PROPERTY
VConf Rank
SciTegic.value.IntegerValue
748

@<SCITEGIC>MOL_PROPERTY
Conf_Id
SciTegic.value.IntegerValue
39

@<SCITEGIC>MOL_PROPERTY
Delta U+W
SciTegic.value.DoubleValue
1.129

@<SCITEGIC>MOL_PROPERTY
U+W
SciTegic.value.DoubleValue
-55.775

@<SCITEGIC>MOL_PROPERTY
Grad RMS
SciTegic.value.DoubleValue
0.000000

@<SCITEGIC>MOL_PROPERTY
U
SciTegic.value.DoubleValue
9.718

@<SCITEGIC>MOL_PROPERTY
W
SciTegic.value.DoubleValue
-65.493

@<SCITEGIC>MOL_PROPERTY
W(PB)
SciTegic.value.DoubleValue
-67.361

@<SCITEGIC>MOL_PROPERTY
W(SA)
SciTegic.value.DoubleValue
1.869

@<SCITEGIC>MOL_PROPERTY
Valence
SciTegic.value.DoubleValue
7.002

@<SCITEGIC>MOL_PROPERTY
Coulomb
SciTegic.value.DoubleValue
2.402

@<SCITEGIC>MOL_PROPERTY
VdW
SciTegic.value.DoubleValue
0.314

@<SCITEGIC>MOL_PROPERTY
VdW6
SciTegic.value.DoubleValue
-5.861

@<SCITEGIC>MOL_PROPERTY
VdW12
SciTegic.value.DoubleValue
6.175

@<SCITEGIC>MOL_PROPERTY
Bond
SciTegic.value.DoubleValue
0.134

@<SCITEGIC>MOL_PROPERTY
Angle
SciTegic.value.DoubleValue
2.734

@<SCITEGIC>MOL_PROPERTY
Pdih
SciTegic.value.DoubleValue
4.133

@<SCITEGIC>MOL_PROPERTY
Idih
SciTegic.value.DoubleValue
0.002

@<SCITEGIC>MOL_PROPERTY
Tether
SciTegic.value.DoubleValue
0.000

@<TRIPOS>MOLECULE
guest-s18_confgen4.mol2 : confsearch ligand conformer 749
          16          15           1
SMALL
USER_CHARGES
 
@<TRIPOS>ATOM
       1    C1      18.262352   17.981352   22.578748 C.2        1 MOL1         0.6075
       2    O1      17.317137   18.412902   21.948547 O.co2      1 MOL1        -0.6830
       3    O2      18.204423   17.694190   23.758299 O.co2      1 MOL1        -0.6830
       4    C2      19.562606   17.701627   21.827250 C.3        1 MOL1        -0.2050
       5    H1      19.419992   17.940281   20.766267 H          1 MOL1         0.0710
       6    H2      19.726230   16.619232   21.885536 H          1 MOL1         0.0710
       7    C3      20.819145   18.432377   22.378700 C.3        1 MOL1        -0.1947
       8    H3      20.843692   18.359675   23.474899 H          1 MOL1         0.0712
       9    H4      21.707943   17.895984   22.019851 H          1 MOL1         0.0712
      10    C4      20.951784   19.911066   21.941150 C.3        1 MOL1        -0.1921
      11    H5      20.924837   19.979611   20.844881 H          1 MOL1         0.0712
      12    H6      21.941164   20.276835   22.248772 H          1 MOL1         0.0712
      13    C5      19.877934   20.839279   22.545761 C.3        1 MOL1        -0.2936
      14    H7      18.883875   20.618756   22.138067 H          1 MOL1         0.0724
      15    H8      20.103541   21.888465   22.315372 H          1 MOL1         0.0724
      16    H9      19.834632   20.733187   23.637640 H          1 MOL1         0.0724
@<TRIPOS>BOND
    1     1     2    1
    2     1     3    2
    3     1     4    1
    4     4     5    1
    5     4     6    1
    6     4     7    1
    7     7     8    1
    8     7     9    1
    9     7    10    1
   10    10    11    1
   11    10    12    1
   12    10    13    1
   13    13    14    1
   14    13    15    1
   15    13    16    1
@<TRIPOS>SUBSTRUCTURE
       1 MOL1            1 RESIDUE      1      MOL     
@<SCITEGIC>MOL_PROPERTY
VConf Rank
SciTegic.value.IntegerValue
749

@<SCITEGIC>MOL_PROPERTY
Conf_Id
SciTegic.value.IntegerValue
47

@<SCITEGIC>MOL_PROPERTY
Delta U+W
SciTegic.value.DoubleValue
2.301

@<SCITEGIC>MOL_PROPERTY
U+W
SciTegic.value.DoubleValue
-54.603

@<SCITEGIC>MOL_PROPERTY
Grad RMS
SciTegic.value.DoubleValue
0.000000

@<SCITEGIC>MOL_PROPERTY
U
SciTegic.value.DoubleValue
11.258

@<SCITEGIC>MOL_PROPERTY
W
SciTegic.value.DoubleValue
-65.861

@<SCITEGIC>MOL_PROPERTY
W(PB)
SciTegic.value.DoubleValue
-67.702

@<SCITEGIC>MOL_PROPERTY
W(SA)
SciTegic.value.DoubleValue
1.841

@<SCITEGIC>MOL_PROPERTY
Valence
SciTegic.value.DoubleValue
8.169

@<SCITEGIC>MOL_PROPERTY
Coulomb
SciTegic.value.DoubleValue
2.735

@<SCITEGIC>MOL_PROPERTY
VdW
SciTegic.value.DoubleValue
0.355

@<SCITEGIC>MOL_PROPERTY
VdW6
SciTegic.value.DoubleValue
-6.245

@<SCITEGIC>MOL_PROPERTY
VdW12
SciTegic.value.DoubleValue
6.600

@<SCITEGIC>MOL_PROPERTY
Bond
SciTegic.value.DoubleValue
0.149

@<SCITEGIC>MOL_PROPERTY
Angle
SciTegic.value.DoubleValue
3.168

@<SCITEGIC>MOL_PROPERTY
Pdih
SciTegic.value.DoubleValue
4.840

@<SCITEGIC>MOL_PROPERTY
Idih
SciTegic.value.DoubleValue
0.011

@<SCITEGIC>MOL_PROPERTY
Tether
SciTegic.value.DoubleValue
0.000

@<TRIPOS>MOLECULE
guest-s18_confgen4.mol2 : confsearch ligand conformer 750
          16          15           1
SMALL
USER_CHARGES
 
@<TRIPOS>ATOM
       1    C1      21.739844   18.480185   21.937112 C.2        1 MOL1         0.6075
       2    O1      22.012042   17.629456   22.761326 O.co2      1 MOL1        -0.6830
       3    O2      22.477316   19.406677   21.664044 O.co2      1 MOL1        -0.6830
       4    C2      20.446244   18.328770   21.138777 C.3        1 MOL1        -0.2050
       5    H1      20.533075   17.386098   20.585985 H          1 MOL1         0.0710
       6    H2      20.393856   19.127832   20.389288 H          1 MOL1         0.0710
       7    C3      19.142619   18.299125   21.985340 C.3        1 MOL1        -0.1947
       8    H3      18.354251   17.834886   21.377547 H          1 MOL1         0.0712
       9    H4      19.277375   17.644574   22.857661 H          1 MOL1         0.0712
      10    C4      18.633017   19.688870   22.437530 C.3        1 MOL1        -0.1921
      11    H5      17.636153   19.565208   22.882799 H          1 MOL1         0.0712
      12    H6      18.501371   20.340697   21.562874 H          1 MOL1         0.0712
      13    C5      19.546388   20.382871   23.469228 C.3        1 MOL1        -0.2936
      14    H7      19.068068   21.292346   23.855019 H          1 MOL1         0.0724
      15    H8      20.502868   20.678310   23.021051 H          1 MOL1         0.0724
      16    H9      19.753667   19.721111   24.320367 H          1 MOL1         0.0724
@<TRIPOS>BOND
    1     1     2    1
    2     1     3    2
    3     1     4    1
    4     4     5    1
    5     4     6    1
    6     4     7    1
    7     7     8    1
    8     7     9    1
    9     7    10    1
   10    10    11    1
   11    10    12    1
   12    10    13    1
   13    13    14    1
   14    13    15    1
   15    13    16    1
@<TRIPOS>SUBSTRUCTURE
       1 MOL1            1 RESIDUE      1      MOL     
@<SCITEGIC>MOL_PROPERTY
VConf Rank
SciTegic.value.IntegerValue
750

@<SCITEGIC>MOL_PROPERTY
Conf_Id
SciTegic.value.IntegerValue
45

@<SCITEGIC>MOL_PROPERTY
Delta U+W
SciTegic.value.DoubleValue
2.303

@<SCITEGIC>MOL_PROPERTY
U+W
SciTegic.value.DoubleValue
-54.601

@<SCITEGIC>MOL_PROPERTY
Grad RMS
SciTegic.value.DoubleValue
0.000000

@<SCITEGIC>MOL_PROPERTY
U
SciTegic.value.DoubleValue
11.258

@<SCITEGIC>MOL_PROPERTY
W
SciTegic.value.DoubleValue
-65.860

@<SCITEGIC>MOL_PROPERTY
W(PB)
SciTegic.value.DoubleValue
-67.709

@<SCITEGIC>MOL_PROPERTY
W(SA)
SciTegic.value.DoubleValue
1.849

@<SCITEGIC>MOL_PROPERTY
Valence
SciTegic.value.DoubleValue
8.169

@<SCITEGIC>MOL_PROPERTY
Coulomb
SciTegic.value.DoubleValue
2.735

@<SCITEGIC>MOL_PROPERTY
VdW
SciTegic.value.DoubleValue
0.355

@<SCITEGIC>MOL_PROPERTY
VdW6
SciTegic.value.DoubleValue
-6.245

@<SCITEGIC>MOL_PROPERTY
VdW12
SciTegic.value.DoubleValue
6.600

@<SCITEGIC>MOL_PROPERTY
Bond
SciTegic.value.DoubleValue
0.149

@<SCITEGIC>MOL_PROPERTY
Angle
SciTegic.value.DoubleValue
3.168

@<SCITEGIC>MOL_PROPERTY
Pdih
SciTegic.value.DoubleValue
4.840

@<SCITEGIC>MOL_PROPERTY
Idih
SciTegic.value.DoubleValue
0.011

@<SCITEGIC>MOL_PROPERTY
Tether
SciTegic.value.DoubleValue
0.000

@<TRIPOS>MOLECULE
guest-s18_confgen4.mol2 : confsearch ligand conformer 751
          16          15           1
SMALL
USER_CHARGES
 
@<TRIPOS>ATOM
       1    C1      21.244977   17.253597   20.325054 C.2        1 MOL1         0.6075
       2    O1      20.240633   16.591197   20.150997 O.co2      1 MOL1        -0.6830
       3    O2      22.320107   16.966705   19.838125 O.co2      1 MOL1        -0.6830
       4    C2      21.184787   18.512054   21.192555 C.3        1 MOL1        -0.2050
       5    H1      21.527103   19.351403   20.575729 H          1 MOL1         0.0710
       6    H2      21.916164   18.388242   21.999971 H          1 MOL1         0.0710
       7    C3      19.791609   18.837969   21.793540 C.3        1 MOL1        -0.1947
       8    H3      19.062070   18.955503   20.980258 H          1 MOL1         0.0712
       9    H4      19.451544   17.991360   22.405976 H          1 MOL1         0.0712
      10    C4      19.822957   20.119951   22.651908 C.3        1 MOL1        -0.1921
      11    H5      20.161217   20.967779   22.040133 H          1 MOL1         0.0712
      12    H6      20.550924   20.003070   23.466710 H          1 MOL1         0.0712
      13    C5      18.436624   20.438335   23.245921 C.3        1 MOL1        -0.2936
      14    H7      17.694591   20.591253   22.451269 H          1 MOL1         0.0724
      15    H8      18.476453   21.352134   23.852986 H          1 MOL1         0.0724
      16    H9      18.087168   19.619429   23.888373 H          1 MOL1         0.0724
@<TRIPOS>BOND
    1     1     2    1
    2     1     3    2
    3     1     4    1
    4     4     5    1
    5     4     6    1
    6     4     7    1
    7     7     8    1
    8     7     9    1
    9     7    10    1
   10    10    11    1
   11    10    12    1
   12    10    13    1
   13    13    14    1
   14    13    15    1
   15    13    16    1
@<TRIPOS>SUBSTRUCTURE
       1 MOL1            1 RESIDUE      1      MOL     
@<SCITEGIC>MOL_PROPERTY
VConf Rank
SciTegic.value.IntegerValue
751

@<SCITEGIC>MOL_PROPERTY
Conf_Id
SciTegic.value.IntegerValue
0

@<SCITEGIC>MOL_PROPERTY
Delta U+W
SciTegic.value.DoubleValue
0.000

@<SCITEGIC>MOL_PROPERTY
U+W
SciTegic.value.DoubleValue
-56.904

@<SCITEGIC>MOL_PROPERTY
Grad RMS
SciTegic.value.DoubleValue
0.000000

@<SCITEGIC>MOL_PROPERTY
U
SciTegic.value.DoubleValue
7.329

@<SCITEGIC>MOL_PROPERTY
W
SciTegic.value.DoubleValue
-64.233

@<SCITEGIC>MOL_PROPERTY
W(PB)
SciTegic.value.DoubleValue
-66.148

@<SCITEGIC>MOL_PROPERTY
W(SA)
SciTegic.value.DoubleValue
1.915

@<SCITEGIC>MOL_PROPERTY
Valence
SciTegic.value.DoubleValue
6.755

@<SCITEGIC>MOL_PROPERTY
Coulomb
SciTegic.value.DoubleValue
-0.421

@<SCITEGIC>MOL_PROPERTY
VdW
SciTegic.value.DoubleValue
0.995

@<SCITEGIC>MOL_PROPERTY
VdW6
SciTegic.value.DoubleValue
-4.495

@<SCITEGIC>MOL_PROPERTY
VdW12
SciTegic.value.DoubleValue
5.490

@<SCITEGIC>MOL_PROPERTY
Bond
SciTegic.value.DoubleValue
0.106

@<SCITEGIC>MOL_PROPERTY
Angle
SciTegic.value.DoubleValue
2.715

@<SCITEGIC>MOL_PROPERTY
Pdih
SciTegic.value.DoubleValue
3.934

@<SCITEGIC>MOL_PROPERTY
Idih
SciTegic.value.DoubleValue
0.000

@<SCITEGIC>MOL_PROPERTY
Tether
SciTegic.value.DoubleValue
0.000

@<TRIPOS>MOLECULE
guest-s18_confgen4.mol2 : confsearch ligand conformer 752
          16          15           1
SMALL
USER_CHARGES
 
@<TRIPOS>ATOM
       1    C1      18.946539   16.672521   21.417587 C.2        1 MOL1         0.6075
       2    O1      17.830726   16.505098   21.867890 O.co2      1 MOL1        -0.6830
       3    O2      19.346185   16.144936   20.398872 O.co2      1 MOL1        -0.6830
       4    C2      19.890768   17.610170   22.161785 C.3        1 MOL1        -0.2050
       5    H1      20.915148   17.244216   22.021879 H          1 MOL1         0.0710
       6    H2      19.665666   17.541248   23.232966 H          1 MOL1         0.0710
       7    C3      19.779342   19.079744   21.686395 C.3        1 MOL1        -0.1947
       8    H3      19.995260   19.130510   20.610127 H          1 MOL1         0.0712
       9    H4      18.745700   19.427542   21.821203 H          1 MOL1         0.0712
      10    C4      20.744351   20.006534   22.454756 C.3        1 MOL1        -0.1921
      11    H5      21.778188   19.659457   22.319632 H          1 MOL1         0.0712
      12    H6      20.528329   19.956536   23.531033 H          1 MOL1         0.0712
      13    C5      20.627984   21.467287   21.976467 C.3        1 MOL1        -0.2936
      14    H7      19.610557   21.850708   22.129114 H          1 MOL1         0.0724
      15    H8      20.869624   21.551430   20.908758 H          1 MOL1         0.0724
      16    H9      21.320377   22.112657   22.532559 H          1 MOL1         0.0724
@<TRIPOS>BOND
    1     1     2    1
    2     1     3    2
    3     1     4    1
    4     4     5    1
    5     4     6    1
    6     4     7    1
    7     7     8    1
    8     7     9    1
    9     7    10    1
   10    10    11    1
   11    10    12    1
   12    10    13    1
   13    13    14    1
   14    13    15    1
   15    13    16    1
@<TRIPOS>SUBSTRUCTURE
       1 MOL1            1 RESIDUE      1      MOL     
@<SCITEGIC>MOL_PROPERTY
VConf Rank
SciTegic.value.IntegerValue
752

@<SCITEGIC>MOL_PROPERTY
Conf_Id
SciTegic.value.IntegerValue
22

@<SCITEGIC>MOL_PROPERTY
Delta U+W
SciTegic.value.DoubleValue
-1.185

@<SCITEGIC>MOL_PROPERTY
U+W
SciTegic.value.DoubleValue
-58.089

@<SCITEGIC>MOL_PROPERTY
Grad RMS
SciTegic.value.DoubleValue
0.000000

@<SCITEGIC>MOL_PROPERTY
U
SciTegic.value.DoubleValue
6.298

@<SCITEGIC>MOL_PROPERTY
W
SciTegic.value.DoubleValue
-64.387

@<SCITEGIC>MOL_PROPERTY
W(PB)
SciTegic.value.DoubleValue
-66.329

@<SCITEGIC>MOL_PROPERTY
W(SA)
SciTegic.value.DoubleValue
1.942

@<SCITEGIC>MOL_PROPERTY
Valence
SciTegic.value.DoubleValue
6.246

@<SCITEGIC>MOL_PROPERTY
Coulomb
SciTegic.value.DoubleValue
-0.408

@<SCITEGIC>MOL_PROPERTY
VdW
SciTegic.value.DoubleValue
0.460

@<SCITEGIC>MOL_PROPERTY
VdW6
SciTegic.value.DoubleValue
-4.207

@<SCITEGIC>MOL_PROPERTY
VdW12
SciTegic.value.DoubleValue
4.667

@<SCITEGIC>MOL_PROPERTY
Bond
SciTegic.value.DoubleValue
0.072

@<SCITEGIC>MOL_PROPERTY
Angle
SciTegic.value.DoubleValue
2.246

@<SCITEGIC>MOL_PROPERTY
Pdih
SciTegic.value.DoubleValue
3.928

@<SCITEGIC>MOL_PROPERTY
Idih
SciTegic.value.DoubleValue
0.001

@<SCITEGIC>MOL_PROPERTY
Tether
SciTegic.value.DoubleValue
0.000

@<TRIPOS>MOLECULE
guest-s18_confgen4.mol2 : confsearch ligand conformer 753
          16          15           1
SMALL
USER_CHARGES
 
@<TRIPOS>ATOM
       1    C1      22.289165   20.053113   21.302413 C.2        1 MOL1         0.6075
       2    O1      22.795938   19.797070   20.228347 O.co2      1 MOL1        -0.6830
       3    O2      22.921303   20.420658   22.272603 O.co2      1 MOL1        -0.6830
       4    C2      20.780649   19.884598   21.445778 C.3        1 MOL1        -0.2050
       5    H1      20.318959   20.113253   20.477726 H          1 MOL1         0.0710
       6    H2      20.426616   20.636262   22.160466 H          1 MOL1         0.0710
       7    C3      20.376082   18.460481   21.907525 C.3        1 MOL1        -0.1947
       8    H3      20.818775   17.727019   21.219423 H          1 MOL1         0.0712
       9    H4      20.809267   18.259086   22.897019 H          1 MOL1         0.0712
      10    C4      18.846532   18.239389   21.952285 C.3        1 MOL1        -0.1921
      11    H5      18.648934   17.182796   22.180046 H          1 MOL1         0.0712
      12    H6      18.414691   18.429324   20.959905 H          1 MOL1         0.0712
      13    C5      18.135265   19.116787   23.004525 C.3        1 MOL1        -0.2936
      14    H7      18.209690   20.182463   22.754372 H          1 MOL1         0.0724
      15    H8      18.569979   18.965179   24.001164 H          1 MOL1         0.0724
      16    H9      17.068871   18.862093   23.058770 H          1 MOL1         0.0724
@<TRIPOS>BOND
    1     1     2    1
    2     1     3    2
    3     1     4    1
    4     4     5    1
    5     4     6    1
    6     4     7    1
    7     7     8    1
    8     7     9    1
    9     7    10    1
   10    10    11    1
   11    10    12    1
   12    10    13    1
   13    13    14    1
   14    13    15    1
   15    13    16    1
@<TRIPOS>SUBSTRUCTURE
       1 MOL1            1 RESIDUE      1      MOL     
@<SCITEGIC>MOL_PROPERTY
VConf Rank
SciTegic.value.IntegerValue
753

@<SCITEGIC>MOL_PROPERTY
Conf_Id
SciTegic.value.IntegerValue
36

@<SCITEGIC>MOL_PROPERTY
Delta U+W
SciTegic.value.DoubleValue
-0.427

@<SCITEGIC>MOL_PROPERTY
U+W
SciTegic.value.DoubleValue
-57.331

@<SCITEGIC>MOL_PROPERTY
Grad RMS
SciTegic.value.DoubleValue
0.000000

@<SCITEGIC>MOL_PROPERTY
U
SciTegic.value.DoubleValue
7.263

@<SCITEGIC>MOL_PROPERTY
W
SciTegic.value.DoubleValue
-64.594

@<SCITEGIC>MOL_PROPERTY
W(PB)
SciTegic.value.DoubleValue
-66.513

@<SCITEGIC>MOL_PROPERTY
W(SA)
SciTegic.value.DoubleValue
1.920

@<SCITEGIC>MOL_PROPERTY
Valence
SciTegic.value.DoubleValue
6.734

@<SCITEGIC>MOL_PROPERTY
Coulomb
SciTegic.value.DoubleValue
-0.068

@<SCITEGIC>MOL_PROPERTY
VdW
SciTegic.value.DoubleValue
0.598

@<SCITEGIC>MOL_PROPERTY
VdW6
SciTegic.value.DoubleValue
-4.819

@<SCITEGIC>MOL_PROPERTY
VdW12
SciTegic.value.DoubleValue
5.417

@<SCITEGIC>MOL_PROPERTY
Bond
SciTegic.value.DoubleValue
0.107

@<SCITEGIC>MOL_PROPERTY
Angle
SciTegic.value.DoubleValue
2.469

@<SCITEGIC>MOL_PROPERTY
Pdih
SciTegic.value.DoubleValue
4.157

@<SCITEGIC>MOL_PROPERTY
Idih
SciTegic.value.DoubleValue
0.001

@<SCITEGIC>MOL_PROPERTY
Tether
SciTegic.value.DoubleValue
0.000

@<TRIPOS>MOLECULE
guest-s18_confgen4.mol2 : confsearch ligand conformer 754
          16          15           1
SMALL
USER_CHARGES
 
@<TRIPOS>ATOM
       1    C1      20.836471   21.578156   21.947384 C.2        1 MOL1         0.6075
       2    O1      21.713455   21.745084   22.771393 O.co2      1 MOL1        -0.6830
       3    O2      20.204516   22.486533   21.445906 O.co2      1 MOL1        -0.6830
       4    C2      20.496486   20.150286   21.534865 C.3        1 MOL1        -0.2050
       5    H1      21.419818   19.561349   21.576435 H          1 MOL1         0.0710
       6    H2      20.168193   20.167118   20.488678 H          1 MOL1         0.0710
       7    C3      19.401726   19.511036   22.428091 C.3        1 MOL1        -0.1947
       8    H3      19.758772   19.460604   23.466014 H          1 MOL1         0.0712
       9    H4      18.521811   20.169175   22.433843 H          1 MOL1         0.0712
      10    C4      18.966718   18.104320   21.956578 C.3        1 MOL1        -0.1921
      11    H5      18.598628   18.156618   20.922579 H          1 MOL1         0.0712
      12    H6      18.119030   17.772107   22.571695 H          1 MOL1         0.0712
      13    C5      20.093960   17.054179   22.053840 C.3        1 MOL1        -0.2936
      14    H7      20.918020   17.285858   21.367523 H          1 MOL1         0.0724
      15    H8      19.713895   16.058147   21.792154 H          1 MOL1         0.0724
      16    H9      20.497787   17.004569   23.073503 H          1 MOL1         0.0724
@<TRIPOS>BOND
    1     1     2    1
    2     1     3    2
    3     1     4    1
    4     4     5    1
    5     4     6    1
    6     4     7    1
    7     7     8    1
    8     7     9    1
    9     7    10    1
   10    10    11    1
   11    10    12    1
   12    10    13    1
   13    13    14    1
   14    13    15    1
   15    13    16    1
@<TRIPOS>SUBSTRUCTURE
       1 MOL1            1 RESIDUE      1      MOL     
@<SCITEGIC>MOL_PROPERTY
VConf Rank
SciTegic.value.IntegerValue
754

@<SCITEGIC>MOL_PROPERTY
Conf_Id
SciTegic.value.IntegerValue
17

@<SCITEGIC>MOL_PROPERTY
Delta U+W
SciTegic.value.DoubleValue
-0.432

@<SCITEGIC>MOL_PROPERTY
U+W
SciTegic.value.DoubleValue
-57.336

@<SCITEGIC>MOL_PROPERTY
Grad RMS
SciTegic.value.DoubleValue
0.000000

@<SCITEGIC>MOL_PROPERTY
U
SciTegic.value.DoubleValue
7.263

@<SCITEGIC>MOL_PROPERTY
W
SciTegic.value.DoubleValue
-64.599

@<SCITEGIC>MOL_PROPERTY
W(PB)
SciTegic.value.DoubleValue
-66.503

@<SCITEGIC>MOL_PROPERTY
W(SA)
SciTegic.value.DoubleValue
1.904

@<SCITEGIC>MOL_PROPERTY
Valence
SciTegic.value.DoubleValue
6.734

@<SCITEGIC>MOL_PROPERTY
Coulomb
SciTegic.value.DoubleValue
-0.068

@<SCITEGIC>MOL_PROPERTY
VdW
SciTegic.value.DoubleValue
0.598

@<SCITEGIC>MOL_PROPERTY
VdW6
SciTegic.value.DoubleValue
-4.819

@<SCITEGIC>MOL_PROPERTY
VdW12
SciTegic.value.DoubleValue
5.417

@<SCITEGIC>MOL_PROPERTY
Bond
SciTegic.value.DoubleValue
0.107

@<SCITEGIC>MOL_PROPERTY
Angle
SciTegic.value.DoubleValue
2.469

@<SCITEGIC>MOL_PROPERTY
Pdih
SciTegic.value.DoubleValue
4.157

@<SCITEGIC>MOL_PROPERTY
Idih
SciTegic.value.DoubleValue
0.001

@<SCITEGIC>MOL_PROPERTY
Tether
SciTegic.value.DoubleValue
0.000

@<TRIPOS>MOLECULE
guest-s18_confgen4.mol2 : confsearch ligand conformer 755
          16          15           1
SMALL
USER_CHARGES
 
@<TRIPOS>ATOM
       1    C1      18.526208   20.770169   22.676855 C.2        1 MOL1         0.6075
       2    O1      18.237263   20.767041   23.857043 O.co2      1 MOL1        -0.6830
       3    O2      18.816864   21.775650   22.059774 O.co2      1 MOL1        -0.6830
       4    C2      18.498569   19.441922   21.925531 C.3        1 MOL1        -0.2050
       5    H1      18.433045   19.648622   20.850326 H          1 MOL1         0.0710
       6    H2      17.572915   18.925438   22.205963 H          1 MOL1         0.0710
       7    C3      19.712821   18.523452   22.220554 C.3        1 MOL1        -0.1947
       8    H3      19.782567   18.348527   23.303217 H          1 MOL1         0.0712
       9    H4      19.541336   17.544621   21.752536 H          1 MOL1         0.0712
      10    C4      21.042215   19.110719   21.699005 C.3        1 MOL1        -0.1921
      11    H5      21.234646   20.081760   22.176262 H          1 MOL1         0.0712
      12    H6      20.966701   19.296666   20.618682 H          1 MOL1         0.0712
      13    C5      22.226656   18.163450   21.974916 C.3        1 MOL1        -0.2936
      14    H7      22.343839   17.985077   23.051903 H          1 MOL1         0.0724
      15    H8      23.163100   18.595818   21.599088 H          1 MOL1         0.0724
      16    H9      22.078355   17.194348   21.480685 H          1 MOL1         0.0724
@<TRIPOS>BOND
    1     1     2    1
    2     1     3    2
    3     1     4    1
    4     4     5    1
    5     4     6    1
    6     4     7    1
    7     7     8    1
    8     7     9    1
    9     7    10    1
   10    10    11    1
   11    10    12    1
   12    10    13    1
   13    13    14    1
   14    13    15    1
   15    13    16    1
@<TRIPOS>SUBSTRUCTURE
       1 MOL1            1 RESIDUE      1      MOL     
@<SCITEGIC>MOL_PROPERTY
VConf Rank
SciTegic.value.IntegerValue
755

@<SCITEGIC>MOL_PROPERTY
Conf_Id
SciTegic.value.IntegerValue
19

@<SCITEGIC>MOL_PROPERTY
Delta U+W
SciTegic.value.DoubleValue
0.048

@<SCITEGIC>MOL_PROPERTY
U+W
SciTegic.value.DoubleValue
-56.856

@<SCITEGIC>MOL_PROPERTY
Grad RMS
SciTegic.value.DoubleValue
0.000000

@<SCITEGIC>MOL_PROPERTY
U
SciTegic.value.DoubleValue
8.276

@<SCITEGIC>MOL_PROPERTY
W
SciTegic.value.DoubleValue
-65.132

@<SCITEGIC>MOL_PROPERTY
W(PB)
SciTegic.value.DoubleValue
-67.031

@<SCITEGIC>MOL_PROPERTY
W(SA)
SciTegic.value.DoubleValue
1.899

@<SCITEGIC>MOL_PROPERTY
Valence
SciTegic.value.DoubleValue
6.513

@<SCITEGIC>MOL_PROPERTY
Coulomb
SciTegic.value.DoubleValue
1.428

@<SCITEGIC>MOL_PROPERTY
VdW
SciTegic.value.DoubleValue
0.335

@<SCITEGIC>MOL_PROPERTY
VdW6
SciTegic.value.DoubleValue
-5.021

@<SCITEGIC>MOL_PROPERTY
VdW12
SciTegic.value.DoubleValue
5.356

@<SCITEGIC>MOL_PROPERTY
Bond
SciTegic.value.DoubleValue
0.092

@<SCITEGIC>MOL_PROPERTY
Angle
SciTegic.value.DoubleValue
2.417

@<SCITEGIC>MOL_PROPERTY
Pdih
SciTegic.value.DoubleValue
4.003

@<SCITEGIC>MOL_PROPERTY
Idih
SciTegic.value.DoubleValue
0.001

@<SCITEGIC>MOL_PROPERTY
Tether
SciTegic.value.DoubleValue
0.000

@<TRIPOS>MOLECULE
guest-s18_confgen4.mol2 : confsearch ligand conformer 756
          16          15           1
SMALL
USER_CHARGES
 
@<TRIPOS>ATOM
       1    C1      19.640117   21.365551   21.255199 C.2        1 MOL1         0.6075
       2    O1      19.579011   22.211330   22.125410 O.co2      1 MOL1        -0.6830
       3    O2      18.861454   21.302682   20.324612 O.co2      1 MOL1        -0.6830
       4    C2      20.770532   20.342358   21.324031 C.3        1 MOL1        -0.2050
       5    H1      21.694597   20.888739   21.547207 H          1 MOL1         0.0710
       6    H2      20.898970   19.894498   20.331051 H          1 MOL1         0.0710
       7    C3      20.555838   19.233778   22.387045 C.3        1 MOL1        -0.1947
       8    H3      21.470831   18.630802   22.462978 H          1 MOL1         0.0712
       9    H4      20.400321   19.697905   23.370927 H          1 MOL1         0.0712
      10    C4      19.364823   18.310627   22.050195 C.3        1 MOL1        -0.1921
      11    H5      19.515799   17.856933   21.060879 H          1 MOL1         0.0712
      12    H6      18.439479   18.900582   21.991770 H          1 MOL1         0.0712
      13    C5      19.194657   17.198477   23.104006 C.3        1 MOL1        -0.2936
      14    H7      20.092917   16.569710   23.160526 H          1 MOL1         0.0724
      15    H8      18.344121   16.552443   22.850342 H          1 MOL1         0.0724
      16    H9      19.011332   17.625263   24.098841 H          1 MOL1         0.0724
@<TRIPOS>BOND
    1     1     2    1
    2     1     3    2
    3     1     4    1
    4     4     5    1
    5     4     6    1
    6     4     7    1
    7     7     8    1
    8     7     9    1
    9     7    10    1
   10    10    11    1
   11    10    12    1
   12    10    13    1
   13    13    14    1
   14    13    15    1
   15    13    16    1
@<TRIPOS>SUBSTRUCTURE
       1 MOL1            1 RESIDUE      1      MOL     
@<SCITEGIC>MOL_PROPERTY
VConf Rank
SciTegic.value.IntegerValue
756

@<SCITEGIC>MOL_PROPERTY
Conf_Id
SciTegic.value.IntegerValue
20

@<SCITEGIC>MOL_PROPERTY
Delta U+W
SciTegic.value.DoubleValue
-0.010

@<SCITEGIC>MOL_PROPERTY
U+W
SciTegic.value.DoubleValue
-56.914

@<SCITEGIC>MOL_PROPERTY
Grad RMS
SciTegic.value.DoubleValue
0.000000

@<SCITEGIC>MOL_PROPERTY
U
SciTegic.value.DoubleValue
8.277

@<SCITEGIC>MOL_PROPERTY
W
SciTegic.value.DoubleValue
-65.191

@<SCITEGIC>MOL_PROPERTY
W(PB)
SciTegic.value.DoubleValue
-67.081

@<SCITEGIC>MOL_PROPERTY
W(SA)
SciTegic.value.DoubleValue
1.890

@<SCITEGIC>MOL_PROPERTY
Valence
SciTegic.value.DoubleValue
6.513

@<SCITEGIC>MOL_PROPERTY
Coulomb
SciTegic.value.DoubleValue
1.429

@<SCITEGIC>MOL_PROPERTY
VdW
SciTegic.value.DoubleValue
0.335

@<SCITEGIC>MOL_PROPERTY
VdW6
SciTegic.value.DoubleValue
-5.021

@<SCITEGIC>MOL_PROPERTY
VdW12
SciTegic.value.DoubleValue
5.356

@<SCITEGIC>MOL_PROPERTY
Bond
SciTegic.value.DoubleValue
0.092

@<SCITEGIC>MOL_PROPERTY
Angle
SciTegic.value.DoubleValue
2.417

@<SCITEGIC>MOL_PROPERTY
Pdih
SciTegic.value.DoubleValue
4.002

@<SCITEGIC>MOL_PROPERTY
Idih
SciTegic.value.DoubleValue
0.001

@<SCITEGIC>MOL_PROPERTY
Tether
SciTegic.value.DoubleValue
0.000

@<TRIPOS>MOLECULE
guest-s18_confgen4.mol2 : confsearch ligand conformer 757
          16          15           1
SMALL
USER_CHARGES
 
@<TRIPOS>ATOM
       1    C1      19.517067   21.258172   21.852236 C.2        1 MOL1         0.6075
       2    O1      18.440393   21.710512   21.516157 O.co2      1 MOL1        -0.6830
       3    O2      20.569522   21.580306   21.337582 O.co2      1 MOL1        -0.6830
       4    C2      19.549438   20.258197   23.004949 C.3        1 MOL1        -0.2050
       5    H1      18.978485   20.696271   23.831983 H          1 MOL1         0.0710
       6    H2      20.582446   20.161743   23.358272 H          1 MOL1         0.0710
       7    C3      18.958082   18.865126   22.655190 C.3        1 MOL1        -0.1947
       8    H3      18.948295   18.240859   23.558830 H          1 MOL1         0.0712
       9    H4      17.908098   18.992306   22.357342 H          1 MOL1         0.0712
      10    C4      19.710157   18.117659   21.528395 C.3        1 MOL1        -0.1921
      11    H5      19.696942   18.717284   20.607594 H          1 MOL1         0.0712
      12    H6      19.169808   17.188677   21.300048 H          1 MOL1         0.0712
      13    C5      21.167637   17.768149   21.897225 C.3        1 MOL1        -0.2936
      14    H7      21.776797   18.673609   22.013651 H          1 MOL1         0.0724
      15    H8      21.627223   17.158567   21.108523 H          1 MOL1         0.0724
      16    H9      21.211210   17.198313   22.834484 H          1 MOL1         0.0724
@<TRIPOS>BOND
    1     1     2    1
    2     1     3    2
    3     1     4    1
    4     4     5    1
    5     4     6    1
    6     4     7    1
    7     7     8    1
    8     7     9    1
    9     7    10    1
   10    10    11    1
   11    10    12    1
   12    10    13    1
   13    13    14    1
   14    13    15    1
   15    13    16    1
@<TRIPOS>SUBSTRUCTURE
       1 MOL1            1 RESIDUE      1      MOL     
@<SCITEGIC>MOL_PROPERTY
VConf Rank
SciTegic.value.IntegerValue
757

@<SCITEGIC>MOL_PROPERTY
Conf_Id
SciTegic.value.IntegerValue
37

@<SCITEGIC>MOL_PROPERTY
Delta U+W
SciTegic.value.DoubleValue
1.063

@<SCITEGIC>MOL_PROPERTY
U+W
SciTegic.value.DoubleValue
-55.841

@<SCITEGIC>MOL_PROPERTY
Grad RMS
SciTegic.value.DoubleValue
0.000000

@<SCITEGIC>MOL_PROPERTY
U
SciTegic.value.DoubleValue
9.719

@<SCITEGIC>MOL_PROPERTY
W
SciTegic.value.DoubleValue
-65.560

@<SCITEGIC>MOL_PROPERTY
W(PB)
SciTegic.value.DoubleValue
-67.414

@<SCITEGIC>MOL_PROPERTY
W(SA)
SciTegic.value.DoubleValue
1.854

@<SCITEGIC>MOL_PROPERTY
Valence
SciTegic.value.DoubleValue
7.002

@<SCITEGIC>MOL_PROPERTY
Coulomb
SciTegic.value.DoubleValue
2.402

@<SCITEGIC>MOL_PROPERTY
VdW
SciTegic.value.DoubleValue
0.314

@<SCITEGIC>MOL_PROPERTY
VdW6
SciTegic.value.DoubleValue
-5.861

@<SCITEGIC>MOL_PROPERTY
VdW12
SciTegic.value.DoubleValue
6.175

@<SCITEGIC>MOL_PROPERTY
Bond
SciTegic.value.DoubleValue
0.134

@<SCITEGIC>MOL_PROPERTY
Angle
SciTegic.value.DoubleValue
2.733

@<SCITEGIC>MOL_PROPERTY
Pdih
SciTegic.value.DoubleValue
4.133

@<SCITEGIC>MOL_PROPERTY
Idih
SciTegic.value.DoubleValue
0.002

@<SCITEGIC>MOL_PROPERTY
Tether
SciTegic.value.DoubleValue
0.000

@<TRIPOS>MOLECULE
guest-s18_confgen4.mol2 : confsearch ligand conformer 758
          16          15           1
SMALL
USER_CHARGES
 
@<TRIPOS>ATOM
       1    C1      22.253662   18.844372   21.941600 C.2        1 MOL1         0.6075
       2    O1      23.069009   19.207749   22.766192 O.co2      1 MOL1        -0.6830
       3    O2      22.270627   17.746750   21.420794 O.co2      1 MOL1        -0.6830
       4    C2      21.172769   19.833538   21.513853 C.3        1 MOL1        -0.2050
       5    H1      20.703545   19.466104   20.594033 H          1 MOL1         0.0710
       6    H2      21.675524   20.771917   21.252005 H          1 MOL1         0.0710
       7    C3      20.099990   20.113096   22.601820 C.3        1 MOL1        -0.1947
       8    H3      20.597197   20.529984   23.488581 H          1 MOL1         0.0712
       9    H4      19.413819   20.890497   22.239621 H          1 MOL1         0.0712
      10    C4      19.282306   18.869787   23.025573 C.3        1 MOL1        -0.1921
      11    H5      18.614106   19.151919   23.850824 H          1 MOL1         0.0712
      12    H6      19.954864   18.096839   23.422834 H          1 MOL1         0.0712
      13    C5      18.435085   18.278625   21.878758 C.3        1 MOL1        -0.2936
      14    H7      17.778592   19.041308   21.440126 H          1 MOL1         0.0724
      15    H8      17.803638   17.461284   22.250361 H          1 MOL1         0.0724
      16    H9      19.071566   17.870380   21.083324 H          1 MOL1         0.0724
@<TRIPOS>BOND
    1     1     2    1
    2     1     3    2
    3     1     4    1
    4     4     5    1
    5     4     6    1
    6     4     7    1
    7     7     8    1
    8     7     9    1
    9     7    10    1
   10    10    11    1
   11    10    12    1
   12    10    13    1
   13    13    14    1
   14    13    15    1
   15    13    16    1
@<TRIPOS>SUBSTRUCTURE
       1 MOL1            1 RESIDUE      1      MOL     
@<SCITEGIC>MOL_PROPERTY
VConf Rank
SciTegic.value.IntegerValue
758

@<SCITEGIC>MOL_PROPERTY
Conf_Id
SciTegic.value.IntegerValue
39

@<SCITEGIC>MOL_PROPERTY
Delta U+W
SciTegic.value.DoubleValue
1.129

@<SCITEGIC>MOL_PROPERTY
U+W
SciTegic.value.DoubleValue
-55.775

@<SCITEGIC>MOL_PROPERTY
Grad RMS
SciTegic.value.DoubleValue
0.000000

@<SCITEGIC>MOL_PROPERTY
U
SciTegic.value.DoubleValue
9.718

@<SCITEGIC>MOL_PROPERTY
W
SciTegic.value.DoubleValue
-65.493

@<SCITEGIC>MOL_PROPERTY
W(PB)
SciTegic.value.DoubleValue
-67.361

@<SCITEGIC>MOL_PROPERTY
W(SA)
SciTegic.value.DoubleValue
1.869

@<SCITEGIC>MOL_PROPERTY
Valence
SciTegic.value.DoubleValue
7.002

@<SCITEGIC>MOL_PROPERTY
Coulomb
SciTegic.value.DoubleValue
2.402

@<SCITEGIC>MOL_PROPERTY
VdW
SciTegic.value.DoubleValue
0.314

@<SCITEGIC>MOL_PROPERTY
VdW6
SciTegic.value.DoubleValue
-5.861

@<SCITEGIC>MOL_PROPERTY
VdW12
SciTegic.value.DoubleValue
6.175

@<SCITEGIC>MOL_PROPERTY
Bond
SciTegic.value.DoubleValue
0.134

@<SCITEGIC>MOL_PROPERTY
Angle
SciTegic.value.DoubleValue
2.734

@<SCITEGIC>MOL_PROPERTY
Pdih
SciTegic.value.DoubleValue
4.133

@<SCITEGIC>MOL_PROPERTY
Idih
SciTegic.value.DoubleValue
0.002

@<SCITEGIC>MOL_PROPERTY
Tether
SciTegic.value.DoubleValue
0.000

@<TRIPOS>MOLECULE
guest-s18_confgen4.mol2 : confsearch ligand conformer 759
          16          15           1
SMALL
USER_CHARGES
 
@<TRIPOS>ATOM
       1    C1      18.926602   19.485267   23.964130 C.2        1 MOL1         0.6075
       2    O1      17.791318   19.052781   23.934025 O.co2      1 MOL1        -0.6830
       3    O2      19.201721   20.617814   24.308809 O.co2      1 MOL1        -0.6830
       4    C2      20.071656   18.527970   23.638413 C.3        1 MOL1        -0.2050
       5    H1      19.657244   17.534656   23.427302 H          1 MOL1         0.0710
       6    H2      20.664051   18.431659   24.555769 H          1 MOL1         0.0710
       7    C3      21.005224   18.978579   22.479800 C.3        1 MOL1        -0.1947
       8    H3      21.253247   20.043290   22.591226 H          1 MOL1         0.0712
       9    H4      21.954456   18.434799   22.578356 H          1 MOL1         0.0712
      10    C4      20.451504   18.707745   21.060080 C.3        1 MOL1        -0.1921
      11    H5      20.202984   17.642807   20.953423 H          1 MOL1         0.0712
      12    H6      21.248104   18.912965   20.331653 H          1 MOL1         0.0712
      13    C5      19.222753   19.566501   20.695394 C.3        1 MOL1        -0.2936
      14    H7      18.345615   19.281111   21.288842 H          1 MOL1         0.0724
      15    H8      18.962311   19.434255   19.637353 H          1 MOL1         0.0724
      16    H9      19.422497   20.632620   20.865165 H          1 MOL1         0.0724
@<TRIPOS>BOND
    1     1     2    1
    2     1     3    2
    3     1     4    1
    4     4     5    1
    5     4     6    1
    6     4     7    1
    7     7     8    1
    8     7     9    1
    9     7    10    1
   10    10    11    1
   11    10    12    1
   12    10    13    1
   13    13    14    1
   14    13    15    1
   15    13    16    1
@<TRIPOS>SUBSTRUCTURE
       1 MOL1            1 RESIDUE      1      MOL     
@<SCITEGIC>MOL_PROPERTY
VConf Rank
SciTegic.value.IntegerValue
759

@<SCITEGIC>MOL_PROPERTY
Conf_Id
SciTegic.value.IntegerValue
47

@<SCITEGIC>MOL_PROPERTY
Delta U+W
SciTegic.value.DoubleValue
2.301

@<SCITEGIC>MOL_PROPERTY
U+W
SciTegic.value.DoubleValue
-54.603

@<SCITEGIC>MOL_PROPERTY
Grad RMS
SciTegic.value.DoubleValue
0.000000

@<SCITEGIC>MOL_PROPERTY
U
SciTegic.value.DoubleValue
11.258

@<SCITEGIC>MOL_PROPERTY
W
SciTegic.value.DoubleValue
-65.861

@<SCITEGIC>MOL_PROPERTY
W(PB)
SciTegic.value.DoubleValue
-67.702

@<SCITEGIC>MOL_PROPERTY
W(SA)
SciTegic.value.DoubleValue
1.841

@<SCITEGIC>MOL_PROPERTY
Valence
SciTegic.value.DoubleValue
8.169

@<SCITEGIC>MOL_PROPERTY
Coulomb
SciTegic.value.DoubleValue
2.735

@<SCITEGIC>MOL_PROPERTY
VdW
SciTegic.value.DoubleValue
0.355

@<SCITEGIC>MOL_PROPERTY
VdW6
SciTegic.value.DoubleValue
-6.245

@<SCITEGIC>MOL_PROPERTY
VdW12
SciTegic.value.DoubleValue
6.600

@<SCITEGIC>MOL_PROPERTY
Bond
SciTegic.value.DoubleValue
0.149

@<SCITEGIC>MOL_PROPERTY
Angle
SciTegic.value.DoubleValue
3.168

@<SCITEGIC>MOL_PROPERTY
Pdih
SciTegic.value.DoubleValue
4.840

@<SCITEGIC>MOL_PROPERTY
Idih
SciTegic.value.DoubleValue
0.011

@<SCITEGIC>MOL_PROPERTY
Tether
SciTegic.value.DoubleValue
0.000

@<TRIPOS>MOLECULE
guest-s18_confgen4.mol2 : confsearch ligand conformer 760
          16          15           1
SMALL
USER_CHARGES
 
@<TRIPOS>ATOM
       1    C1      18.444972   17.734711   22.081508 C.2        1 MOL1         0.6075
       2    O1      18.136080   17.649522   20.909123 O.co2      1 MOL1        -0.6830
       3    O2      17.633562   17.820212   22.982130 O.co2      1 MOL1        -0.6830
       4    C2      19.924298   17.638964   22.450418 C.3        1 MOL1        -0.2050
       5    H1      20.262196   16.650619   22.117632 H          1 MOL1         0.0710
       6    H2      20.021193   17.651797   23.542858 H          1 MOL1         0.0710
       7    C3      20.838773   18.724772   21.816585 C.3        1 MOL1        -0.1947
       8    H3      21.872834   18.355453   21.844434 H          1 MOL1         0.0712
       9    H4      20.590372   18.849573   20.753447 H          1 MOL1         0.0712
      10    C4      20.807972   20.095908   22.533940 C.3        1 MOL1        -0.1921
      11    H5      21.599152   20.728424   22.108202 H          1 MOL1         0.0712
      12    H6      21.054988   19.966579   23.596714 H          1 MOL1         0.0712
      13    C5      19.462883   20.839695   22.400515 C.3        1 MOL1        -0.2936
      14    H7      19.544884   21.856854   22.804785 H          1 MOL1         0.0724
      15    H8      18.666751   20.327947   22.954850 H          1 MOL1         0.0724
      16    H9      19.157244   20.915986   21.348805 H          1 MOL1         0.0724
@<TRIPOS>BOND
    1     1     2    1
    2     1     3    2
    3     1     4    1
    4     4     5    1
    5     4     6    1
    6     4     7    1
    7     7     8    1
    8     7     9    1
    9     7    10    1
   10    10    11    1
   11    10    12    1
   12    10    13    1
   13    13    14    1
   14    13    15    1
   15    13    16    1
@<TRIPOS>SUBSTRUCTURE
       1 MOL1            1 RESIDUE      1      MOL     
@<SCITEGIC>MOL_PROPERTY
VConf Rank
SciTegic.value.IntegerValue
760

@<SCITEGIC>MOL_PROPERTY
Conf_Id
SciTegic.value.IntegerValue
45

@<SCITEGIC>MOL_PROPERTY
Delta U+W
SciTegic.value.DoubleValue
2.303

@<SCITEGIC>MOL_PROPERTY
U+W
SciTegic.value.DoubleValue
-54.601

@<SCITEGIC>MOL_PROPERTY
Grad RMS
SciTegic.value.DoubleValue
0.000000

@<SCITEGIC>MOL_PROPERTY
U
SciTegic.value.DoubleValue
11.258

@<SCITEGIC>MOL_PROPERTY
W
SciTegic.value.DoubleValue
-65.860

@<SCITEGIC>MOL_PROPERTY
W(PB)
SciTegic.value.DoubleValue
-67.709

@<SCITEGIC>MOL_PROPERTY
W(SA)
SciTegic.value.DoubleValue
1.849

@<SCITEGIC>MOL_PROPERTY
Valence
SciTegic.value.DoubleValue
8.169

@<SCITEGIC>MOL_PROPERTY
Coulomb
SciTegic.value.DoubleValue
2.735

@<SCITEGIC>MOL_PROPERTY
VdW
SciTegic.value.DoubleValue
0.355

@<SCITEGIC>MOL_PROPERTY
VdW6
SciTegic.value.DoubleValue
-6.245

@<SCITEGIC>MOL_PROPERTY
VdW12
SciTegic.value.DoubleValue
6.600

@<SCITEGIC>MOL_PROPERTY
Bond
SciTegic.value.DoubleValue
0.149

@<SCITEGIC>MOL_PROPERTY
Angle
SciTegic.value.DoubleValue
3.168

@<SCITEGIC>MOL_PROPERTY
Pdih
SciTegic.value.DoubleValue
4.840

@<SCITEGIC>MOL_PROPERTY
Idih
SciTegic.value.DoubleValue
0.011

@<SCITEGIC>MOL_PROPERTY
Tether
SciTegic.value.DoubleValue
0.000

@<TRIPOS>MOLECULE
guest-s18_confgen4.mol2 : confsearch ligand conformer 761
          16          15           1
SMALL
USER_CHARGES
 
@<TRIPOS>ATOM
       1    C1      18.957320   19.425153   24.466272 C.2        1 MOL1         0.6075
       2    O1      18.667662   18.251250   24.592072 O.co2      1 MOL1        -0.6830
       3    O2      18.748667   20.254795   25.328521 O.co2      1 MOL1        -0.6830
       4    C2      19.615862   19.911426   23.174082 C.3        1 MOL1        -0.2050
       5    H1      20.567887   20.380964   23.448569 H          1 MOL1         0.0710
       6    H2      18.977588   20.699933   22.758119 H          1 MOL1         0.0710
       7    C3      19.861871   18.816881   22.101795 C.3        1 MOL1        -0.1947
       8    H3      20.497323   18.027111   22.525982 H          1 MOL1         0.0712
       9    H4      18.905387   18.346424   21.834813 H          1 MOL1         0.0712
      10    C4      20.527666   19.394332   20.835097 C.3        1 MOL1        -0.1921
      11    H5      21.485204   19.863595   21.100452 H          1 MOL1         0.0712
      12    H6      19.892322   20.183103   20.408860 H          1 MOL1         0.0712
      13    C5      20.769383   18.302620   19.774022 C.3        1 MOL1        -0.2936
      14    H7      21.428205   17.515407   20.163533 H          1 MOL1         0.0724
      15    H8      21.243008   18.729717   18.880485 H          1 MOL1         0.0724
      16    H9      19.823574   17.837270   19.466834 H          1 MOL1         0.0724
@<TRIPOS>BOND
    1     1     2    1
    2     1     3    2
    3     1     4    1
    4     4     5    1
    5     4     6    1
    6     4     7    1
    7     7     8    1
    8     7     9    1
    9     7    10    1
   10    10    11    1
   11    10    12    1
   12    10    13    1
   13    13    14    1
   14    13    15    1
   15    13    16    1
@<TRIPOS>SUBSTRUCTURE
       1 MOL1            1 RESIDUE      1      MOL     
@<SCITEGIC>MOL_PROPERTY
VConf Rank
SciTegic.value.IntegerValue
761

@<SCITEGIC>MOL_PROPERTY
Conf_Id
SciTegic.value.IntegerValue
0

@<SCITEGIC>MOL_PROPERTY
Delta U+W
SciTegic.value.DoubleValue
0.000

@<SCITEGIC>MOL_PROPERTY
U+W
SciTegic.value.DoubleValue
-56.904

@<SCITEGIC>MOL_PROPERTY
Grad RMS
SciTegic.value.DoubleValue
0.000000

@<SCITEGIC>MOL_PROPERTY
U
SciTegic.value.DoubleValue
7.329

@<SCITEGIC>MOL_PROPERTY
W
SciTegic.value.DoubleValue
-64.233

@<SCITEGIC>MOL_PROPERTY
W(PB)
SciTegic.value.DoubleValue
-66.148

@<SCITEGIC>MOL_PROPERTY
W(SA)
SciTegic.value.DoubleValue
1.915

@<SCITEGIC>MOL_PROPERTY
Valence
SciTegic.value.DoubleValue
6.755

@<SCITEGIC>MOL_PROPERTY
Coulomb
SciTegic.value.DoubleValue
-0.421

@<SCITEGIC>MOL_PROPERTY
VdW
SciTegic.value.DoubleValue
0.995

@<SCITEGIC>MOL_PROPERTY
VdW6
SciTegic.value.DoubleValue
-4.495

@<SCITEGIC>MOL_PROPERTY
VdW12
SciTegic.value.DoubleValue
5.490

@<SCITEGIC>MOL_PROPERTY
Bond
SciTegic.value.DoubleValue
0.106

@<SCITEGIC>MOL_PROPERTY
Angle
SciTegic.value.DoubleValue
2.715

@<SCITEGIC>MOL_PROPERTY
Pdih
SciTegic.value.DoubleValue
3.934

@<SCITEGIC>MOL_PROPERTY
Idih
SciTegic.value.DoubleValue
0.000

@<SCITEGIC>MOL_PROPERTY
Tether
SciTegic.value.DoubleValue
0.000

@<TRIPOS>MOLECULE
guest-s18_confgen4.mol2 : confsearch ligand conformer 762
          16          15           1
SMALL
USER_CHARGES
 
@<TRIPOS>ATOM
       1    C1      22.744581   18.811533   22.142471 C.2        1 MOL1         0.6075
       2    O1      23.105297   18.034361   23.003708 O.co2      1 MOL1        -0.6830
       3    O2      23.356687   19.002581   21.110643 O.co2      1 MOL1        -0.6830
       4    C2      21.443187   19.575399   22.360338 C.3        1 MOL1        -0.2050
       5    H1      21.537193   20.554609   21.875407 H          1 MOL1         0.0710
       6    H2      21.329871   19.756258   23.436117 H          1 MOL1         0.0710
       7    C3      20.204685   18.824825   21.811874 C.3        1 MOL1        -0.1947
       8    H3      20.338633   18.640290   20.736907 H          1 MOL1         0.0712
       9    H4      20.131335   17.841868   22.297638 H          1 MOL1         0.0712
      10    C4      18.902381   19.618685   22.045011 C.3        1 MOL1        -0.1921
      11    H5      18.975075   20.601466   21.558807 H          1 MOL1         0.0712
      12    H6      18.767741   19.802872   23.119946 H          1 MOL1         0.0712
      13    C5      17.674131   18.865761   21.496734 C.3        1 MOL1        -0.2936
      14    H7      17.559035   17.891035   21.988804 H          1 MOL1         0.0724
      15    H8      17.767912   18.695507   20.416137 H          1 MOL1         0.0724
      16    H9      16.756999   19.443542   21.670481 H          1 MOL1         0.0724
@<TRIPOS>BOND
    1     1     2    1
    2     1     3    2
    3     1     4    1
    4     4     5    1
    5     4     6    1
    6     4     7    1
    7     7     8    1
    8     7     9    1
    9     7    10    1
   10    10    11    1
   11    10    12    1
   12    10    13    1
   13    13    14    1
   14    13    15    1
   15    13    16    1
@<TRIPOS>SUBSTRUCTURE
       1 MOL1            1 RESIDUE      1      MOL     
@<SCITEGIC>MOL_PROPERTY
VConf Rank
SciTegic.value.IntegerValue
762

@<SCITEGIC>MOL_PROPERTY
Conf_Id
SciTegic.value.IntegerValue
22

@<SCITEGIC>MOL_PROPERTY
Delta U+W
SciTegic.value.DoubleValue
-1.185

@<SCITEGIC>MOL_PROPERTY
U+W
SciTegic.value.DoubleValue
-58.089

@<SCITEGIC>MOL_PROPERTY
Grad RMS
SciTegic.value.DoubleValue
0.000000

@<SCITEGIC>MOL_PROPERTY
U
SciTegic.value.DoubleValue
6.298

@<SCITEGIC>MOL_PROPERTY
W
SciTegic.value.DoubleValue
-64.387

@<SCITEGIC>MOL_PROPERTY
W(PB)
SciTegic.value.DoubleValue
-66.329

@<SCITEGIC>MOL_PROPERTY
W(SA)
SciTegic.value.DoubleValue
1.942

@<SCITEGIC>MOL_PROPERTY
Valence
SciTegic.value.DoubleValue
6.246

@<SCITEGIC>MOL_PROPERTY
Coulomb
SciTegic.value.DoubleValue
-0.408

@<SCITEGIC>MOL_PROPERTY
VdW
SciTegic.value.DoubleValue
0.460

@<SCITEGIC>MOL_PROPERTY
VdW6
SciTegic.value.DoubleValue
-4.207

@<SCITEGIC>MOL_PROPERTY
VdW12
SciTegic.value.DoubleValue
4.667

@<SCITEGIC>MOL_PROPERTY
Bond
SciTegic.value.DoubleValue
0.072

@<SCITEGIC>MOL_PROPERTY
Angle
SciTegic.value.DoubleValue
2.246

@<SCITEGIC>MOL_PROPERTY
Pdih
SciTegic.value.DoubleValue
3.928

@<SCITEGIC>MOL_PROPERTY
Idih
SciTegic.value.DoubleValue
0.001

@<SCITEGIC>MOL_PROPERTY
Tether
SciTegic.value.DoubleValue
0.000

@<TRIPOS>MOLECULE
guest-s18_confgen4.mol2 : confsearch ligand conformer 763
          16          15           1
SMALL
USER_CHARGES
 
@<TRIPOS>ATOM
       1    C1      19.713829   21.720271   21.902016 C.2        1 MOL1         0.6075
       2    O1      20.638917   22.454398   21.616949 O.co2      1 MOL1        -0.6830
       3    O2      18.729197   22.086670   22.512105 O.co2      1 MOL1        -0.6830
       4    C2      19.802952   20.255306   21.489091 C.3        1 MOL1        -0.2050
       5    H1      20.364803   20.200101   20.548963 H          1 MOL1         0.0710
       6    H2      18.785869   19.904017   21.281114 H          1 MOL1         0.0710
       7    C3      20.476586   19.366865   22.566998 C.3        1 MOL1        -0.1947
       8    H3      21.457480   19.795373   22.815302 H          1 MOL1         0.0712
       9    H4      19.881859   19.396460   23.490433 H          1 MOL1         0.0712
      10    C4      20.674150   17.900068   22.119914 C.3        1 MOL1        -0.1921
      11    H5      21.251460   17.370690   22.890486 H          1 MOL1         0.0712
      12    H6      21.278820   17.869602   21.202948 H          1 MOL1         0.0712
      13    C5      19.344937   17.149433   21.890408 C.3        1 MOL1        -0.2936
      14    H7      18.783641   17.575959   21.049691 H          1 MOL1         0.0724
      15    H8      18.710526   17.191231   22.785409 H          1 MOL1         0.0724
      16    H9      19.535691   16.093128   21.660541 H          1 MOL1         0.0724
@<TRIPOS>BOND
    1     1     2    1
    2     1     3    2
    3     1     4    1
    4     4     5    1
    5     4     6    1
    6     4     7    1
    7     7     8    1
    8     7     9    1
    9     7    10    1
   10    10    11    1
   11    10    12    1
   12    10    13    1
   13    13    14    1
   14    13    15    1
   15    13    16    1
@<TRIPOS>SUBSTRUCTURE
       1 MOL1            1 RESIDUE      1      MOL     
@<SCITEGIC>MOL_PROPERTY
VConf Rank
SciTegic.value.IntegerValue
763

@<SCITEGIC>MOL_PROPERTY
Conf_Id
SciTegic.value.IntegerValue
36

@<SCITEGIC>MOL_PROPERTY
Delta U+W
SciTegic.value.DoubleValue
-0.427

@<SCITEGIC>MOL_PROPERTY
U+W
SciTegic.value.DoubleValue
-57.331

@<SCITEGIC>MOL_PROPERTY
Grad RMS
SciTegic.value.DoubleValue
0.000000

@<SCITEGIC>MOL_PROPERTY
U
SciTegic.value.DoubleValue
7.263

@<SCITEGIC>MOL_PROPERTY
W
SciTegic.value.DoubleValue
-64.594

@<SCITEGIC>MOL_PROPERTY
W(PB)
SciTegic.value.DoubleValue
-66.513

@<SCITEGIC>MOL_PROPERTY
W(SA)
SciTegic.value.DoubleValue
1.920

@<SCITEGIC>MOL_PROPERTY
Valence
SciTegic.value.DoubleValue
6.734

@<SCITEGIC>MOL_PROPERTY
Coulomb
SciTegic.value.DoubleValue
-0.068

@<SCITEGIC>MOL_PROPERTY
VdW
SciTegic.value.DoubleValue
0.598

@<SCITEGIC>MOL_PROPERTY
VdW6
SciTegic.value.DoubleValue
-4.819

@<SCITEGIC>MOL_PROPERTY
VdW12
SciTegic.value.DoubleValue
5.417

@<SCITEGIC>MOL_PROPERTY
Bond
SciTegic.value.DoubleValue
0.107

@<SCITEGIC>MOL_PROPERTY
Angle
SciTegic.value.DoubleValue
2.469

@<SCITEGIC>MOL_PROPERTY
Pdih
SciTegic.value.DoubleValue
4.157

@<SCITEGIC>MOL_PROPERTY
Idih
SciTegic.value.DoubleValue
0.001

@<SCITEGIC>MOL_PROPERTY
Tether
SciTegic.value.DoubleValue
0.000

@<TRIPOS>MOLECULE
guest-s18_confgen4.mol2 : confsearch ligand conformer 764
          16          15           1
SMALL
USER_CHARGES
 
@<TRIPOS>ATOM
       1    C1      22.145382   20.517711   21.768967 C.2        1 MOL1         0.6075
       2    O1      21.942449   21.575516   21.206983 O.co2      1 MOL1        -0.6830
       3    O2      23.245781   20.013804   21.874771 O.co2      1 MOL1        -0.6830
       4    C2      20.952025   19.772031   22.355851 C.3        1 MOL1        -0.2050
       5    H1      20.225815   20.518734   22.696690 H          1 MOL1         0.0710
       6    H2      21.295067   19.223908   23.241544 H          1 MOL1         0.0710
       7    C3      20.296373   18.796226   21.344457 C.3        1 MOL1        -0.1947
       8    H3      19.918689   19.361877   20.481495 H          1 MOL1         0.0712
       9    H4      21.068784   18.117441   20.957080 H          1 MOL1         0.0712
      10    C4      19.154449   17.951968   21.955723 C.3        1 MOL1        -0.1921
      11    H5      19.534746   17.377213   22.811533 H          1 MOL1         0.0712
      12    H6      18.821420   17.216217   21.210692 H          1 MOL1         0.0712
      13    C5      17.940900   18.798016   22.396666 C.3        1 MOL1        -0.2936
      14    H7      18.200806   19.471821   23.222631 H          1 MOL1         0.0724
      15    H8      17.125734   18.148796   22.741666 H          1 MOL1         0.0724
      16    H9      17.560869   19.403860   21.563731 H          1 MOL1         0.0724
@<TRIPOS>BOND
    1     1     2    1
    2     1     3    2
    3     1     4    1
    4     4     5    1
    5     4     6    1
    6     4     7    1
    7     7     8    1
    8     7     9    1
    9     7    10    1
   10    10    11    1
   11    10    12    1
   12    10    13    1
   13    13    14    1
   14    13    15    1
   15    13    16    1
@<TRIPOS>SUBSTRUCTURE
       1 MOL1            1 RESIDUE      1      MOL     
@<SCITEGIC>MOL_PROPERTY
VConf Rank
SciTegic.value.IntegerValue
764

@<SCITEGIC>MOL_PROPERTY
Conf_Id
SciTegic.value.IntegerValue
17

@<SCITEGIC>MOL_PROPERTY
Delta U+W
SciTegic.value.DoubleValue
-0.432

@<SCITEGIC>MOL_PROPERTY
U+W
SciTegic.value.DoubleValue
-57.336

@<SCITEGIC>MOL_PROPERTY
Grad RMS
SciTegic.value.DoubleValue
0.000000

@<SCITEGIC>MOL_PROPERTY
U
SciTegic.value.DoubleValue
7.263

@<SCITEGIC>MOL_PROPERTY
W
SciTegic.value.DoubleValue
-64.599

@<SCITEGIC>MOL_PROPERTY
W(PB)
SciTegic.value.DoubleValue
-66.503

@<SCITEGIC>MOL_PROPERTY
W(SA)
SciTegic.value.DoubleValue
1.904

@<SCITEGIC>MOL_PROPERTY
Valence
SciTegic.value.DoubleValue
6.734

@<SCITEGIC>MOL_PROPERTY
Coulomb
SciTegic.value.DoubleValue
-0.068

@<SCITEGIC>MOL_PROPERTY
VdW
SciTegic.value.DoubleValue
0.598

@<SCITEGIC>MOL_PROPERTY
VdW6
SciTegic.value.DoubleValue
-4.819

@<SCITEGIC>MOL_PROPERTY
VdW12
SciTegic.value.DoubleValue
5.417

@<SCITEGIC>MOL_PROPERTY
Bond
SciTegic.value.DoubleValue
0.107

@<SCITEGIC>MOL_PROPERTY
Angle
SciTegic.value.DoubleValue
2.469

@<SCITEGIC>MOL_PROPERTY
Pdih
SciTegic.value.DoubleValue
4.157

@<SCITEGIC>MOL_PROPERTY
Idih
SciTegic.value.DoubleValue
0.001

@<SCITEGIC>MOL_PROPERTY
Tether
SciTegic.value.DoubleValue
0.000

@<TRIPOS>MOLECULE
guest-s18_confgen4.mol2 : confsearch ligand conformer 765
          16          15           1
SMALL
USER_CHARGES
 
@<TRIPOS>ATOM
       1    C1      21.664478   20.278616   23.492276 C.2        1 MOL1         0.6075
       2    O1      21.495202   20.061479   24.675720 O.co2      1 MOL1        -0.6830
       3    O2      22.747697   20.211909   22.945971 O.co2      1 MOL1        -0.6830
       4    C2      20.453975   20.679970   22.653772 C.3        1 MOL1        -0.2050
       5    H1      20.808390   21.166784   21.736991 H          1 MOL1         0.0710
       6    H2      19.898750   21.436959   23.220275 H          1 MOL1         0.0710
       7    C3      19.509447   19.501179   22.302557 C.3        1 MOL1        -0.1947
       8    H3      19.185476   19.005801   23.228444 H          1 MOL1         0.0712
       9    H4      18.604668   19.899839   21.824012 H          1 MOL1         0.0712
      10    C4      20.170449   18.470564   21.361764 C.3        1 MOL1        -0.1921
      11    H5      21.066328   18.049455   21.839037 H          1 MOL1         0.0712
      12    H6      20.504978   18.969667   20.441784 H          1 MOL1         0.0712
      13    C5      19.199920   17.328260   21.001820 C.3        1 MOL1        -0.2936
      14    H7      18.873567   16.792124   21.902655 H          1 MOL1         0.0724
      15    H8      19.685223   16.604732   20.333909 H          1 MOL1         0.0724
      16    H9      18.308552   17.715945   20.491353 H          1 MOL1         0.0724
@<TRIPOS>BOND
    1     1     2    1
    2     1     3    2
    3     1     4    1
    4     4     5    1
    5     4     6    1
    6     4     7    1
    7     7     8    1
    8     7     9    1
    9     7    10    1
   10    10    11    1
   11    10    12    1
   12    10    13    1
   13    13    14    1
   14    13    15    1
   15    13    16    1
@<TRIPOS>SUBSTRUCTURE
       1 MOL1            1 RESIDUE      1      MOL     
@<SCITEGIC>MOL_PROPERTY
VConf Rank
SciTegic.value.IntegerValue
765

@<SCITEGIC>MOL_PROPERTY
Conf_Id
SciTegic.value.IntegerValue
19

@<SCITEGIC>MOL_PROPERTY
Delta U+W
SciTegic.value.DoubleValue
0.048

@<SCITEGIC>MOL_PROPERTY
U+W
SciTegic.value.DoubleValue
-56.856

@<SCITEGIC>MOL_PROPERTY
Grad RMS
SciTegic.value.DoubleValue
0.000000

@<SCITEGIC>MOL_PROPERTY
U
SciTegic.value.DoubleValue
8.276

@<SCITEGIC>MOL_PROPERTY
W
SciTegic.value.DoubleValue
-65.132

@<SCITEGIC>MOL_PROPERTY
W(PB)
SciTegic.value.DoubleValue
-67.031

@<SCITEGIC>MOL_PROPERTY
W(SA)
SciTegic.value.DoubleValue
1.899

@<SCITEGIC>MOL_PROPERTY
Valence
SciTegic.value.DoubleValue
6.513

@<SCITEGIC>MOL_PROPERTY
Coulomb
SciTegic.value.DoubleValue
1.428

@<SCITEGIC>MOL_PROPERTY
VdW
SciTegic.value.DoubleValue
0.335

@<SCITEGIC>MOL_PROPERTY
VdW6
SciTegic.value.DoubleValue
-5.021

@<SCITEGIC>MOL_PROPERTY
VdW12
SciTegic.value.DoubleValue
5.356

@<SCITEGIC>MOL_PROPERTY
Bond
SciTegic.value.DoubleValue
0.092

@<SCITEGIC>MOL_PROPERTY
Angle
SciTegic.value.DoubleValue
2.417

@<SCITEGIC>MOL_PROPERTY
Pdih
SciTegic.value.DoubleValue
4.003

@<SCITEGIC>MOL_PROPERTY
Idih
SciTegic.value.DoubleValue
0.001

@<SCITEGIC>MOL_PROPERTY
Tether
SciTegic.value.DoubleValue
0.000

@<TRIPOS>MOLECULE
guest-s18_confgen4.mol2 : confsearch ligand conformer 766
          16          15           1
SMALL
USER_CHARGES
 
@<TRIPOS>ATOM
       1    C1      21.057629   17.227863   21.423385 C.2        1 MOL1         0.6075
       2    O1      22.123895   17.094677   21.990554 O.co2      1 MOL1        -0.6830
       3    O2      20.922346   17.139059   20.219195 O.co2      1 MOL1        -0.6830
       4    C2      19.819032   17.497939   22.273346 C.3        1 MOL1        -0.2050
       5    H1      19.844154   16.802113   23.120359 H          1 MOL1         0.0710
       6    H2      18.928227   17.248147   21.684146 H          1 MOL1         0.0710
       7    C3      19.720047   18.952515   22.801980 C.3        1 MOL1        -0.1947
       8    H3      18.882859   19.018200   23.510049 H          1 MOL1         0.0712
       9    H4      20.630968   19.197942   23.365550 H          1 MOL1         0.0712
      10    C4      19.511505   19.982615   21.670789 C.3        1 MOL1        -0.1921
      11    H5      18.607215   19.728830   21.100499 H          1 MOL1         0.0712
      12    H6      20.354107   19.940151   20.966556 H          1 MOL1         0.0712
      13    C5      19.382767   21.414967   22.225898 C.3        1 MOL1        -0.2936
      14    H7      18.526177   21.496784   22.907788 H          1 MOL1         0.0724
      15    H8      19.236086   22.134174   21.409600 H          1 MOL1         0.0724
      16    H9      20.287785   21.705700   22.775324 H          1 MOL1         0.0724
@<TRIPOS>BOND
    1     1     2    1
    2     1     3    2
    3     1     4    1
    4     4     5    1
    5     4     6    1
    6     4     7    1
    7     7     8    1
    8     7     9    1
    9     7    10    1
   10    10    11    1
   11    10    12    1
   12    10    13    1
   13    13    14    1
   14    13    15    1
   15    13    16    1
@<TRIPOS>SUBSTRUCTURE
       1 MOL1            1 RESIDUE      1      MOL     
@<SCITEGIC>MOL_PROPERTY
VConf Rank
SciTegic.value.IntegerValue
766

@<SCITEGIC>MOL_PROPERTY
Conf_Id
SciTegic.value.IntegerValue
20

@<SCITEGIC>MOL_PROPERTY
Delta U+W
SciTegic.value.DoubleValue
-0.010

@<SCITEGIC>MOL_PROPERTY
U+W
SciTegic.value.DoubleValue
-56.914

@<SCITEGIC>MOL_PROPERTY
Grad RMS
SciTegic.value.DoubleValue
0.000000

@<SCITEGIC>MOL_PROPERTY
U
SciTegic.value.DoubleValue
8.277

@<SCITEGIC>MOL_PROPERTY
W
SciTegic.value.DoubleValue
-65.191

@<SCITEGIC>MOL_PROPERTY
W(PB)
SciTegic.value.DoubleValue
-67.081

@<SCITEGIC>MOL_PROPERTY
W(SA)
SciTegic.value.DoubleValue
1.890

@<SCITEGIC>MOL_PROPERTY
Valence
SciTegic.value.DoubleValue
6.513

@<SCITEGIC>MOL_PROPERTY
Coulomb
SciTegic.value.DoubleValue
1.429

@<SCITEGIC>MOL_PROPERTY
VdW
SciTegic.value.DoubleValue
0.335

@<SCITEGIC>MOL_PROPERTY
VdW6
SciTegic.value.DoubleValue
-5.021

@<SCITEGIC>MOL_PROPERTY
VdW12
SciTegic.value.DoubleValue
5.356

@<SCITEGIC>MOL_PROPERTY
Bond
SciTegic.value.DoubleValue
0.092

@<SCITEGIC>MOL_PROPERTY
Angle
SciTegic.value.DoubleValue
2.417

@<SCITEGIC>MOL_PROPERTY
Pdih
SciTegic.value.DoubleValue
4.002

@<SCITEGIC>MOL_PROPERTY
Idih
SciTegic.value.DoubleValue
0.001

@<SCITEGIC>MOL_PROPERTY
Tether
SciTegic.value.DoubleValue
0.000

@<TRIPOS>MOLECULE
guest-s18_confgen4.mol2 : confsearch ligand conformer 767
          16          15           1
SMALL
USER_CHARGES
 
@<TRIPOS>ATOM
       1    C1      20.074049   20.651458   20.638388 C.2        1 MOL1         0.6075
       2    O1      21.151570   21.048362   20.240641 O.co2      1 MOL1        -0.6830
       3    O2      19.149460   21.388836   20.917149 O.co2      1 MOL1        -0.6830
       4    C2      19.862542   19.144796   20.760776 C.3        1 MOL1        -0.2050
       5    H1      20.174517   18.694147   19.811320 H          1 MOL1         0.0710
       6    H2      18.789086   18.947008   20.859868 H          1 MOL1         0.0710
       7    C3      20.650707   18.484437   21.924993 C.3        1 MOL1        -0.1947
       8    H3      20.503626   17.396608   21.888012 H          1 MOL1         0.0712
       9    H4      21.724359   18.655636   21.765878 H          1 MOL1         0.0712
      10    C4      20.264994   19.002622   23.330944 C.3        1 MOL1        -0.1921
      11    H5      20.440761   20.085656   23.392111 H          1 MOL1         0.0712
      12    H6      20.930490   18.539156   24.072188 H          1 MOL1         0.0712
      13    C5      18.801859   18.693609   23.713291 C.3        1 MOL1        -0.2936
      14    H7      18.098897   19.238881   23.070631 H          1 MOL1         0.0724
      15    H8      18.604707   18.994489   24.750336 H          1 MOL1         0.0724
      16    H9      18.589976   17.620045   23.625937 H          1 MOL1         0.0724
@<TRIPOS>BOND
    1     1     2    1
    2     1     3    2
    3     1     4    1
    4     4     5    1
    5     4     6    1
    6     4     7    1
    7     7     8    1
    8     7     9    1
    9     7    10    1
   10    10    11    1
   11    10    12    1
   12    10    13    1
   13    13    14    1
   14    13    15    1
   15    13    16    1
@<TRIPOS>SUBSTRUCTURE
       1 MOL1            1 RESIDUE      1      MOL     
@<SCITEGIC>MOL_PROPERTY
VConf Rank
SciTegic.value.IntegerValue
767

@<SCITEGIC>MOL_PROPERTY
Conf_Id
SciTegic.value.IntegerValue
37

@<SCITEGIC>MOL_PROPERTY
Delta U+W
SciTegic.value.DoubleValue
1.063

@<SCITEGIC>MOL_PROPERTY
U+W
SciTegic.value.DoubleValue
-55.841

@<SCITEGIC>MOL_PROPERTY
Grad RMS
SciTegic.value.DoubleValue
0.000000

@<SCITEGIC>MOL_PROPERTY
U
SciTegic.value.DoubleValue
9.719

@<SCITEGIC>MOL_PROPERTY
W
SciTegic.value.DoubleValue
-65.560

@<SCITEGIC>MOL_PROPERTY
W(PB)
SciTegic.value.DoubleValue
-67.414

@<SCITEGIC>MOL_PROPERTY
W(SA)
SciTegic.value.DoubleValue
1.854

@<SCITEGIC>MOL_PROPERTY
Valence
SciTegic.value.DoubleValue
7.002

@<SCITEGIC>MOL_PROPERTY
Coulomb
SciTegic.value.DoubleValue
2.402

@<SCITEGIC>MOL_PROPERTY
VdW
SciTegic.value.DoubleValue
0.314

@<SCITEGIC>MOL_PROPERTY
VdW6
SciTegic.value.DoubleValue
-5.861

@<SCITEGIC>MOL_PROPERTY
VdW12
SciTegic.value.DoubleValue
6.175

@<SCITEGIC>MOL_PROPERTY
Bond
SciTegic.value.DoubleValue
0.134

@<SCITEGIC>MOL_PROPERTY
Angle
SciTegic.value.DoubleValue
2.733

@<SCITEGIC>MOL_PROPERTY
Pdih
SciTegic.value.DoubleValue
4.133

@<SCITEGIC>MOL_PROPERTY
Idih
SciTegic.value.DoubleValue
0.002

@<SCITEGIC>MOL_PROPERTY
Tether
SciTegic.value.DoubleValue
0.000

@<TRIPOS>MOLECULE
guest-s18_confgen4.mol2 : confsearch ligand conformer 768
          16          15           1
SMALL
USER_CHARGES
 
@<TRIPOS>ATOM
       1    C1      20.901357   18.037569   20.491602 C.2        1 MOL1         0.6075
       2    O1      20.366089   18.034674   19.400609 O.co2      1 MOL1        -0.6830
       3    O2      22.096123   18.190050   20.651556 O.co2      1 MOL1        -0.6830
       4    C2      20.029041   17.802370   21.721842 C.3        1 MOL1        -0.2050
       5    H1      20.677458   17.563650   22.572616 H          1 MOL1         0.0710
       6    H2      19.428557   16.905762   21.528466 H          1 MOL1         0.0710
       7    C3      19.085257   18.986466   22.068062 C.3        1 MOL1        -0.1947
       8    H3      18.414247   19.163463   21.216140 H          1 MOL1         0.0712
       9    H4      18.442808   18.700151   22.911658 H          1 MOL1         0.0712
      10    C4      19.816882   20.306100   22.410527 C.3        1 MOL1        -0.1921
      11    H5      19.067924   21.096400   22.557554 H          1 MOL1         0.0712
      12    H6      20.436891   20.622141   21.560054 H          1 MOL1         0.0712
      13    C5      20.690809   20.206103   23.678870 C.3        1 MOL1        -0.2936
      14    H7      20.101636   19.857416   24.536983 H          1 MOL1         0.0724
      15    H8      21.111440   21.187562   23.933169 H          1 MOL1         0.0724
      16    H9      21.529779   19.514272   23.530593 H          1 MOL1         0.0724
@<TRIPOS>BOND
    1     1     2    1
    2     1     3    2
    3     1     4    1
    4     4     5    1
    5     4     6    1
    6     4     7    1
    7     7     8    1
    8     7     9    1
    9     7    10    1
   10    10    11    1
   11    10    12    1
   12    10    13    1
   13    13    14    1
   14    13    15    1
   15    13    16    1
@<TRIPOS>SUBSTRUCTURE
       1 MOL1            1 RESIDUE      1      MOL     
@<SCITEGIC>MOL_PROPERTY
VConf Rank
SciTegic.value.IntegerValue
768

@<SCITEGIC>MOL_PROPERTY
Conf_Id
SciTegic.value.IntegerValue
39

@<SCITEGIC>MOL_PROPERTY
Delta U+W
SciTegic.value.DoubleValue
1.129

@<SCITEGIC>MOL_PROPERTY
U+W
SciTegic.value.DoubleValue
-55.775

@<SCITEGIC>MOL_PROPERTY
Grad RMS
SciTegic.value.DoubleValue
0.000000

@<SCITEGIC>MOL_PROPERTY
U
SciTegic.value.DoubleValue
9.718

@<SCITEGIC>MOL_PROPERTY
W
SciTegic.value.DoubleValue
-65.493

@<SCITEGIC>MOL_PROPERTY
W(PB)
SciTegic.value.DoubleValue
-67.361

@<SCITEGIC>MOL_PROPERTY
W(SA)
SciTegic.value.DoubleValue
1.869

@<SCITEGIC>MOL_PROPERTY
Valence
SciTegic.value.DoubleValue
7.002

@<SCITEGIC>MOL_PROPERTY
Coulomb
SciTegic.value.DoubleValue
2.402

@<SCITEGIC>MOL_PROPERTY
VdW
SciTegic.value.DoubleValue
0.314

@<SCITEGIC>MOL_PROPERTY
VdW6
SciTegic.value.DoubleValue
-5.861

@<SCITEGIC>MOL_PROPERTY
VdW12
SciTegic.value.DoubleValue
6.175

@<SCITEGIC>MOL_PROPERTY
Bond
SciTegic.value.DoubleValue
0.134

@<SCITEGIC>MOL_PROPERTY
Angle
SciTegic.value.DoubleValue
2.734

@<SCITEGIC>MOL_PROPERTY
Pdih
SciTegic.value.DoubleValue
4.133

@<SCITEGIC>MOL_PROPERTY
Idih
SciTegic.value.DoubleValue
0.002

@<SCITEGIC>MOL_PROPERTY
Tether
SciTegic.value.DoubleValue
0.000

@<TRIPOS>MOLECULE
guest-s18_confgen4.mol2 : confsearch ligand conformer 769
          16          15           1
SMALL
USER_CHARGES
 
@<TRIPOS>ATOM
       1    C1      20.015780   19.693489   24.164562 C.2        1 MOL1         0.6075
       2    O1      20.722352   18.955670   24.822741 O.co2      1 MOL1        -0.6830
       3    O2      18.913678   20.059327   24.523299 O.co2      1 MOL1        -0.6830
       4    C2      20.580096   20.260389   22.863091 C.3        1 MOL1        -0.2050
       5    H1      21.605546   19.894845   22.729639 H          1 MOL1         0.0710
       6    H2      20.650165   21.345330   23.003602 H          1 MOL1         0.0710
       7    C3      19.735663   19.969832   21.590499 C.3        1 MOL1        -0.1947
       8    H3      18.671314   20.146710   21.798863 H          1 MOL1         0.0712
       9    H4      20.019066   20.701032   20.821420 H          1 MOL1         0.0712
      10    C4      19.932197   18.555869   20.992465 C.3        1 MOL1        -0.1921
      11    H5      20.997590   18.382272   20.787446 H          1 MOL1         0.0712
      12    H6      19.420635   18.515564   20.020882 H          1 MOL1         0.0712
      13    C5      19.383032   17.420711   21.881352 C.3        1 MOL1        -0.2936
      14    H7      19.972515   17.311869   22.799863 H          1 MOL1         0.0724
      15    H8      19.423105   16.462089   21.348241 H          1 MOL1         0.0724
      16    H9      18.338556   17.609820   22.161775 H          1 MOL1         0.0724
@<TRIPOS>BOND
    1     1     2    1
    2     1     3    2
    3     1     4    1
    4     4     5    1
    5     4     6    1
    6     4     7    1
    7     7     8    1
    8     7     9    1
    9     7    10    1
   10    10    11    1
   11    10    12    1
   12    10    13    1
   13    13    14    1
   14    13    15    1
   15    13    16    1
@<TRIPOS>SUBSTRUCTURE
       1 MOL1            1 RESIDUE      1      MOL     
@<SCITEGIC>MOL_PROPERTY
VConf Rank
SciTegic.value.IntegerValue
769

@<SCITEGIC>MOL_PROPERTY
Conf_Id
SciTegic.value.IntegerValue
47

@<SCITEGIC>MOL_PROPERTY
Delta U+W
SciTegic.value.DoubleValue
2.301

@<SCITEGIC>MOL_PROPERTY
U+W
SciTegic.value.DoubleValue
-54.603

@<SCITEGIC>MOL_PROPERTY
Grad RMS
SciTegic.value.DoubleValue
0.000000

@<SCITEGIC>MOL_PROPERTY
U
SciTegic.value.DoubleValue
11.258

@<SCITEGIC>MOL_PROPERTY
W
SciTegic.value.DoubleValue
-65.861

@<SCITEGIC>MOL_PROPERTY
W(PB)
SciTegic.value.DoubleValue
-67.702

@<SCITEGIC>MOL_PROPERTY
W(SA)
SciTegic.value.DoubleValue
1.841

@<SCITEGIC>MOL_PROPERTY
Valence
SciTegic.value.DoubleValue
8.169

@<SCITEGIC>MOL_PROPERTY
Coulomb
SciTegic.value.DoubleValue
2.735

@<SCITEGIC>MOL_PROPERTY
VdW
SciTegic.value.DoubleValue
0.355

@<SCITEGIC>MOL_PROPERTY
VdW6
SciTegic.value.DoubleValue
-6.245

@<SCITEGIC>MOL_PROPERTY
VdW12
SciTegic.value.DoubleValue
6.600

@<SCITEGIC>MOL_PROPERTY
Bond
SciTegic.value.DoubleValue
0.149

@<SCITEGIC>MOL_PROPERTY
Angle
SciTegic.value.DoubleValue
3.168

@<SCITEGIC>MOL_PROPERTY
Pdih
SciTegic.value.DoubleValue
4.840

@<SCITEGIC>MOL_PROPERTY
Idih
SciTegic.value.DoubleValue
0.011

@<SCITEGIC>MOL_PROPERTY
Tether
SciTegic.value.DoubleValue
0.000

@<TRIPOS>MOLECULE
guest-s18_confgen4.mol2 : confsearch ligand conformer 770
          16          15           1
SMALL
USER_CHARGES
 
@<TRIPOS>ATOM
       1    C1      21.286290   19.836563   23.477549 C.2        1 MOL1         0.6075
       2    O1      21.263904   19.208557   24.517869 O.co2      1 MOL1        -0.6830
       3    O2      21.326869   21.050199   23.430023 O.co2      1 MOL1        -0.6830
       4    C2      21.358048   19.060681   22.163576 C.3        1 MOL1        -0.2050
       5    H1      22.292403   18.488123   22.193684 H          1 MOL1         0.0710
       6    H2      21.452937   19.771828   21.333970 H          1 MOL1         0.0710
       7    C3      20.176307   18.084722   21.902849 C.3        1 MOL1        -0.1947
       8    H3      20.503507   17.347868   21.156900 H          1 MOL1         0.0712
       9    H4      19.953876   17.513809   22.815057 H          1 MOL1         0.0712
      10    C4      18.888111   18.756419   21.369056 C.3        1 MOL1        -0.1921
      11    H5      18.183259   17.967976   21.071003 H          1 MOL1         0.0712
      12    H6      19.115063   19.327573   20.458283 H          1 MOL1         0.0712
      13    C5      18.190782   19.672633   22.395978 C.3        1 MOL1        -0.2936
      14    H7      17.217751   20.007034   22.013676 H          1 MOL1         0.0724
      15    H8      18.788949   20.568333   22.603141 H          1 MOL1         0.0724
      16    H9      18.020098   19.144697   23.343332 H          1 MOL1         0.0724
@<TRIPOS>BOND
    1     1     2    1
    2     1     3    2
    3     1     4    1
    4     4     5    1
    5     4     6    1
    6     4     7    1
    7     7     8    1
    8     7     9    1
    9     7    10    1
   10    10    11    1
   11    10    12    1
   12    10    13    1
   13    13    14    1
   14    13    15    1
   15    13    16    1
@<TRIPOS>SUBSTRUCTURE
       1 MOL1            1 RESIDUE      1      MOL     
@<SCITEGIC>MOL_PROPERTY
VConf Rank
SciTegic.value.IntegerValue
770

@<SCITEGIC>MOL_PROPERTY
Conf_Id
SciTegic.value.IntegerValue
45

@<SCITEGIC>MOL_PROPERTY
Delta U+W
SciTegic.value.DoubleValue
2.303

@<SCITEGIC>MOL_PROPERTY
U+W
SciTegic.value.DoubleValue
-54.601

@<SCITEGIC>MOL_PROPERTY
Grad RMS
SciTegic.value.DoubleValue
0.000000

@<SCITEGIC>MOL_PROPERTY
U
SciTegic.value.DoubleValue
11.258

@<SCITEGIC>MOL_PROPERTY
W
SciTegic.value.DoubleValue
-65.860

@<SCITEGIC>MOL_PROPERTY
W(PB)
SciTegic.value.DoubleValue
-67.709

@<SCITEGIC>MOL_PROPERTY
W(SA)
SciTegic.value.DoubleValue
1.849

@<SCITEGIC>MOL_PROPERTY
Valence
SciTegic.value.DoubleValue
8.169

@<SCITEGIC>MOL_PROPERTY
Coulomb
SciTegic.value.DoubleValue
2.735

@<SCITEGIC>MOL_PROPERTY
VdW
SciTegic.value.DoubleValue
0.355

@<SCITEGIC>MOL_PROPERTY
VdW6
SciTegic.value.DoubleValue
-6.245

@<SCITEGIC>MOL_PROPERTY
VdW12
SciTegic.value.DoubleValue
6.600

@<SCITEGIC>MOL_PROPERTY
Bond
SciTegic.value.DoubleValue
0.149

@<SCITEGIC>MOL_PROPERTY
Angle
SciTegic.value.DoubleValue
3.168

@<SCITEGIC>MOL_PROPERTY
Pdih
SciTegic.value.DoubleValue
4.840

@<SCITEGIC>MOL_PROPERTY
Idih
SciTegic.value.DoubleValue
0.011

@<SCITEGIC>MOL_PROPERTY
Tether
SciTegic.value.DoubleValue
0.000

@<TRIPOS>MOLECULE
guest-s18_confgen4.mol2 : confsearch ligand conformer 771
          16          15           1
SMALL
USER_CHARGES
 
@<TRIPOS>ATOM
       1    C1      19.545470   18.105712   19.403147 C.2        1 MOL1         0.6075
       2    O1      18.388235   17.807475   19.625946 O.co2      1 MOL1        -0.6830
       3    O2      20.084965   17.911627   18.332358 O.co2      1 MOL1        -0.6830
       4    C2      20.387760   18.756720   20.501613 C.3        1 MOL1        -0.2050
       5    H1      20.750409   19.715008   20.111317 H          1 MOL1         0.0710
       6    H2      21.267240   18.121316   20.659539 H          1 MOL1         0.0710
       7    C3      19.656905   18.984093   21.851613 C.3        1 MOL1        -0.1947
       8    H3      18.773809   19.616737   21.686171 H          1 MOL1         0.0712
       9    H4      19.291189   18.021406   22.234959 H          1 MOL1         0.0712
      10    C4      20.578760   19.643336   22.898915 C.3        1 MOL1        -0.1921
      11    H5      20.943810   20.607053   22.517486 H          1 MOL1         0.0712
      12    H6      21.461507   19.010774   23.066611 H          1 MOL1         0.0712
      13    C5      19.847327   19.866541   24.237319 C.3        1 MOL1        -0.2936
      14    H7      18.976778   20.522266   24.104511 H          1 MOL1         0.0724
      15    H8      20.516469   20.335707   24.970310 H          1 MOL1         0.0724
      16    H9      19.498293   18.914212   24.657693 H          1 MOL1         0.0724
@<TRIPOS>BOND
    1     1     2    1
    2     1     3    2
    3     1     4    1
    4     4     5    1
    5     4     6    1
    6     4     7    1
    7     7     8    1
    8     7     9    1
    9     7    10    1
   10    10    11    1
   11    10    12    1
   12    10    13    1
   13    13    14    1
   14    13    15    1
   15    13    16    1
@<TRIPOS>SUBSTRUCTURE
       1 MOL1            1 RESIDUE      1      MOL     
@<SCITEGIC>MOL_PROPERTY
VConf Rank
SciTegic.value.IntegerValue
771

@<SCITEGIC>MOL_PROPERTY
Conf_Id
SciTegic.value.IntegerValue
0

@<SCITEGIC>MOL_PROPERTY
Delta U+W
SciTegic.value.DoubleValue
0.000

@<SCITEGIC>MOL_PROPERTY
U+W
SciTegic.value.DoubleValue
-56.904

@<SCITEGIC>MOL_PROPERTY
Grad RMS
SciTegic.value.DoubleValue
0.000000

@<SCITEGIC>MOL_PROPERTY
U
SciTegic.value.DoubleValue
7.329

@<SCITEGIC>MOL_PROPERTY
W
SciTegic.value.DoubleValue
-64.233

@<SCITEGIC>MOL_PROPERTY
W(PB)
SciTegic.value.DoubleValue
-66.148

@<SCITEGIC>MOL_PROPERTY
W(SA)
SciTegic.value.DoubleValue
1.915

@<SCITEGIC>MOL_PROPERTY
Valence
SciTegic.value.DoubleValue
6.755

@<SCITEGIC>MOL_PROPERTY
Coulomb
SciTegic.value.DoubleValue
-0.421

@<SCITEGIC>MOL_PROPERTY
VdW
SciTegic.value.DoubleValue
0.995

@<SCITEGIC>MOL_PROPERTY
VdW6
SciTegic.value.DoubleValue
-4.495

@<SCITEGIC>MOL_PROPERTY
VdW12
SciTegic.value.DoubleValue
5.490

@<SCITEGIC>MOL_PROPERTY
Bond
SciTegic.value.DoubleValue
0.106

@<SCITEGIC>MOL_PROPERTY
Angle
SciTegic.value.DoubleValue
2.715

@<SCITEGIC>MOL_PROPERTY
Pdih
SciTegic.value.DoubleValue
3.934

@<SCITEGIC>MOL_PROPERTY
Idih
SciTegic.value.DoubleValue
0.000

@<SCITEGIC>MOL_PROPERTY
Tether
SciTegic.value.DoubleValue
0.000

@<TRIPOS>MOLECULE
guest-s18_confgen4.mol2 : confsearch ligand conformer 772
          16          15           1
SMALL
USER_CHARGES
 
@<TRIPOS>ATOM
       1    C1      19.543331   19.030628   24.627954 C.2        1 MOL1         0.6075
       2    O1      19.840655   17.982087   25.164613 O.co2      1 MOL1        -0.6830
       3    O2      19.580873   20.107231   25.189522 O.co2      1 MOL1        -0.6830
       4    C2      19.117203   18.995688   23.164473 C.3        1 MOL1        -0.2050
       5    H1      18.386588   19.797497   23.002752 H          1 MOL1         0.0710
       6    H2      18.600883   18.045407   22.982183 H          1 MOL1         0.0710
       7    C3      20.307368   19.152741   22.186258 C.3        1 MOL1        -0.1947
       8    H3      20.821352   20.102536   22.389384 H          1 MOL1         0.0712
       9    H4      21.035697   18.350404   22.368857 H          1 MOL1         0.0712
      10    C4      19.849108   19.113938   20.713487 C.3        1 MOL1        -0.1921
      11    H5      19.121263   19.916576   20.530314 H          1 MOL1         0.0712
      12    H6      19.335627   18.164000   20.509789 H          1 MOL1         0.0712
      13    C5      21.038659   19.270769   19.745772 C.3        1 MOL1        -0.2936
      14    H7      21.768170   18.462269   19.885816 H          1 MOL1         0.0724
      15    H8      21.552238   20.227781   19.906509 H          1 MOL1         0.0724
      16    H9      20.695728   19.241041   18.703340 H          1 MOL1         0.0724
@<TRIPOS>BOND
    1     1     2    1
    2     1     3    2
    3     1     4    1
    4     4     5    1
    5     4     6    1
    6     4     7    1
    7     7     8    1
    8     7     9    1
    9     7    10    1
   10    10    11    1
   11    10    12    1
   12    10    13    1
   13    13    14    1
   14    13    15    1
   15    13    16    1
@<TRIPOS>SUBSTRUCTURE
       1 MOL1            1 RESIDUE      1      MOL     
@<SCITEGIC>MOL_PROPERTY
VConf Rank
SciTegic.value.IntegerValue
772

@<SCITEGIC>MOL_PROPERTY
Conf_Id
SciTegic.value.IntegerValue
22

@<SCITEGIC>MOL_PROPERTY
Delta U+W
SciTegic.value.DoubleValue
-1.185

@<SCITEGIC>MOL_PROPERTY
U+W
SciTegic.value.DoubleValue
-58.089

@<SCITEGIC>MOL_PROPERTY
Grad RMS
SciTegic.value.DoubleValue
0.000000

@<SCITEGIC>MOL_PROPERTY
U
SciTegic.value.DoubleValue
6.298

@<SCITEGIC>MOL_PROPERTY
W
SciTegic.value.DoubleValue
-64.387

@<SCITEGIC>MOL_PROPERTY
W(PB)
SciTegic.value.DoubleValue
-66.329

@<SCITEGIC>MOL_PROPERTY
W(SA)
SciTegic.value.DoubleValue
1.942

@<SCITEGIC>MOL_PROPERTY
Valence
SciTegic.value.DoubleValue
6.246

@<SCITEGIC>MOL_PROPERTY
Coulomb
SciTegic.value.DoubleValue
-0.408

@<SCITEGIC>MOL_PROPERTY
VdW
SciTegic.value.DoubleValue
0.460

@<SCITEGIC>MOL_PROPERTY
VdW6
SciTegic.value.DoubleValue
-4.207

@<SCITEGIC>MOL_PROPERTY
VdW12
SciTegic.value.DoubleValue
4.667

@<SCITEGIC>MOL_PROPERTY
Bond
SciTegic.value.DoubleValue
0.072

@<SCITEGIC>MOL_PROPERTY
Angle
SciTegic.value.DoubleValue
2.246

@<SCITEGIC>MOL_PROPERTY
Pdih
SciTegic.value.DoubleValue
3.928

@<SCITEGIC>MOL_PROPERTY
Idih
SciTegic.value.DoubleValue
0.001

@<SCITEGIC>MOL_PROPERTY
Tether
SciTegic.value.DoubleValue
0.000

@<TRIPOS>MOLECULE
guest-s18_confgen4.mol2 : confsearch ligand conformer 773
          16          15           1
SMALL
USER_CHARGES
 
@<TRIPOS>ATOM
       1    C1      20.283424   16.774770   21.000621 C.2        1 MOL1         0.6075
       2    O1      21.276869   16.458533   20.376878 O.co2      1 MOL1        -0.6830
       3    O2      19.223483   16.186780   20.918462 O.co2      1 MOL1        -0.6830
       4    C2      20.366228   17.987467   21.920991 C.3        1 MOL1        -0.2050
       5    H1      21.386377   18.043549   22.319382 H          1 MOL1         0.0710
       6    H2      19.695260   17.809987   22.769178 H          1 MOL1         0.0710
       7    C3      19.999190   19.312574   21.203798 C.3        1 MOL1        -0.1947
       8    H3      20.630487   19.417300   20.310532 H          1 MOL1         0.0712
       9    H4      18.961429   19.260724   20.846484 H          1 MOL1         0.0712
      10    C4      20.183713   20.564583   22.091961 C.3        1 MOL1        -0.1921
      11    H5      20.009929   21.460455   21.479980 H          1 MOL1         0.0712
      12    H6      21.224375   20.623007   22.439797 H          1 MOL1         0.0712
      13    C5      19.228569   20.597003   23.304224 C.3        1 MOL1        -0.2936
      14    H7      19.442349   19.780312   24.005007 H          1 MOL1         0.0724
      15    H8      18.182458   20.510667   22.982592 H          1 MOL1         0.0724
      16    H9      19.336576   21.541861   23.852481 H          1 MOL1         0.0724
@<TRIPOS>BOND
    1     1     2    1
    2     1     3    2
    3     1     4    1
    4     4     5    1
    5     4     6    1
    6     4     7    1
    7     7     8    1
    8     7     9    1
    9     7    10    1
   10    10    11    1
   11    10    12    1
   12    10    13    1
   13    13    14    1
   14    13    15    1
   15    13    16    1
@<TRIPOS>SUBSTRUCTURE
       1 MOL1            1 RESIDUE      1      MOL     
@<SCITEGIC>MOL_PROPERTY
VConf Rank
SciTegic.value.IntegerValue
773

@<SCITEGIC>MOL_PROPERTY
Conf_Id
SciTegic.value.IntegerValue
36

@<SCITEGIC>MOL_PROPERTY
Delta U+W
SciTegic.value.DoubleValue
-0.427

@<SCITEGIC>MOL_PROPERTY
U+W
SciTegic.value.DoubleValue
-57.331

@<SCITEGIC>MOL_PROPERTY
Grad RMS
SciTegic.value.DoubleValue
0.000000

@<SCITEGIC>MOL_PROPERTY
U
SciTegic.value.DoubleValue
7.263

@<SCITEGIC>MOL_PROPERTY
W
SciTegic.value.DoubleValue
-64.594

@<SCITEGIC>MOL_PROPERTY
W(PB)
SciTegic.value.DoubleValue
-66.513

@<SCITEGIC>MOL_PROPERTY
W(SA)
SciTegic.value.DoubleValue
1.920

@<SCITEGIC>MOL_PROPERTY
Valence
SciTegic.value.DoubleValue
6.734

@<SCITEGIC>MOL_PROPERTY
Coulomb
SciTegic.value.DoubleValue
-0.068

@<SCITEGIC>MOL_PROPERTY
VdW
SciTegic.value.DoubleValue
0.598

@<SCITEGIC>MOL_PROPERTY
VdW6
SciTegic.value.DoubleValue
-4.819

@<SCITEGIC>MOL_PROPERTY
VdW12
SciTegic.value.DoubleValue
5.417

@<SCITEGIC>MOL_PROPERTY
Bond
SciTegic.value.DoubleValue
0.107

@<SCITEGIC>MOL_PROPERTY
Angle
SciTegic.value.DoubleValue
2.469

@<SCITEGIC>MOL_PROPERTY
Pdih
SciTegic.value.DoubleValue
4.157

@<SCITEGIC>MOL_PROPERTY
Idih
SciTegic.value.DoubleValue
0.001

@<SCITEGIC>MOL_PROPERTY
Tether
SciTegic.value.DoubleValue
0.000

@<TRIPOS>MOLECULE
guest-s18_confgen4.mol2 : confsearch ligand conformer 774
          16          15           1
SMALL
USER_CHARGES
 
@<TRIPOS>ATOM
       1    C1      20.171000   16.601293   22.440639 C.2        1 MOL1         0.6075
       2    O1      19.699326   15.953180   21.527715 O.co2      1 MOL1        -0.6830
       3    O2      20.366005   16.152024   23.552451 O.co2      1 MOL1        -0.6830
       4    C2      20.518519   18.063318   22.183181 C.3        1 MOL1        -0.2050
       5    H1      20.837449   18.152268   21.138437 H          1 MOL1         0.0710
       6    H2      21.380035   18.323945   22.809624 H          1 MOL1         0.0710
       7    C3      19.335732   19.022795   22.475440 C.3        1 MOL1        -0.1947
       8    H3      18.493951   18.779506   21.812474 H          1 MOL1         0.0712
       9    H4      18.983878   18.847353   23.501524 H          1 MOL1         0.0712
      10    C4      19.703814   20.516905   22.325243 C.3        1 MOL1        -0.1921
      11    H5      20.537944   20.763161   22.996783 H          1 MOL1         0.0712
      12    H6      18.850207   21.125701   22.653922 H          1 MOL1         0.0712
      13    C5      20.068578   20.911394   20.878089 C.3        1 MOL1        -0.2936
      14    H7      20.986161   20.410411   20.545161 H          1 MOL1         0.0724
      15    H8      20.236448   21.993834   20.806325 H          1 MOL1         0.0724
      16    H9      19.260242   20.648051   20.183471 H          1 MOL1         0.0724
@<TRIPOS>BOND
    1     1     2    1
    2     1     3    2
    3     1     4    1
    4     4     5    1
    5     4     6    1
    6     4     7    1
    7     7     8    1
    8     7     9    1
    9     7    10    1
   10    10    11    1
   11    10    12    1
   12    10    13    1
   13    13    14    1
   14    13    15    1
   15    13    16    1
@<TRIPOS>SUBSTRUCTURE
       1 MOL1            1 RESIDUE      1      MOL     
@<SCITEGIC>MOL_PROPERTY
VConf Rank
SciTegic.value.IntegerValue
774

@<SCITEGIC>MOL_PROPERTY
Conf_Id
SciTegic.value.IntegerValue
17

@<SCITEGIC>MOL_PROPERTY
Delta U+W
SciTegic.value.DoubleValue
-0.432

@<SCITEGIC>MOL_PROPERTY
U+W
SciTegic.value.DoubleValue
-57.336

@<SCITEGIC>MOL_PROPERTY
Grad RMS
SciTegic.value.DoubleValue
0.000000

@<SCITEGIC>MOL_PROPERTY
U
SciTegic.value.DoubleValue
7.263

@<SCITEGIC>MOL_PROPERTY
W
SciTegic.value.DoubleValue
-64.599

@<SCITEGIC>MOL_PROPERTY
W(PB)
SciTegic.value.DoubleValue
-66.503

@<SCITEGIC>MOL_PROPERTY
W(SA)
SciTegic.value.DoubleValue
1.904

@<SCITEGIC>MOL_PROPERTY
Valence
SciTegic.value.DoubleValue
6.734

@<SCITEGIC>MOL_PROPERTY
Coulomb
SciTegic.value.DoubleValue
-0.068

@<SCITEGIC>MOL_PROPERTY
VdW
SciTegic.value.DoubleValue
0.598

@<SCITEGIC>MOL_PROPERTY
VdW6
SciTegic.value.DoubleValue
-4.819

@<SCITEGIC>MOL_PROPERTY
VdW12
SciTegic.value.DoubleValue
5.417

@<SCITEGIC>MOL_PROPERTY
Bond
SciTegic.value.DoubleValue
0.107

@<SCITEGIC>MOL_PROPERTY
Angle
SciTegic.value.DoubleValue
2.469

@<SCITEGIC>MOL_PROPERTY
Pdih
SciTegic.value.DoubleValue
4.157

@<SCITEGIC>MOL_PROPERTY
Idih
SciTegic.value.DoubleValue
0.001

@<SCITEGIC>MOL_PROPERTY
Tether
SciTegic.value.DoubleValue
0.000

@<TRIPOS>MOLECULE
guest-s18_confgen4.mol2 : confsearch ligand conformer 775
          16          15           1
SMALL
USER_CHARGES
 
@<TRIPOS>ATOM
       1    C1      20.385782   16.880600   22.767373 C.2        1 MOL1         0.6075
       2    O1      19.533251   16.510285   23.549933 O.co2      1 MOL1        -0.6830
       3    O2      20.701155   16.256586   21.773689 O.co2      1 MOL1        -0.6830
       4    C2      21.115220   18.188222   23.063245 C.3        1 MOL1        -0.2050
       5    H1      22.052140   18.203779   22.493138 H          1 MOL1         0.0710
       6    H2      21.390196   18.177744   24.124617 H          1 MOL1         0.0710
       7    C3      20.281993   19.459966   22.757577 C.3        1 MOL1        -0.1947
       8    H3      19.334703   19.416881   23.312924 H          1 MOL1         0.0712
       9    H4      20.825693   20.339749   23.127620 H          1 MOL1         0.0712
      10    C4      19.996960   19.635082   21.250171 C.3        1 MOL1        -0.1921
      11    H5      19.434897   18.769320   20.872990 H          1 MOL1         0.0712
      12    H6      20.944644   19.665515   20.694883 H          1 MOL1         0.0712
      13    C5      19.197222   20.923026   20.970952 C.3        1 MOL1        -0.2936
      14    H7      18.230156   20.904840   21.490474 H          1 MOL1         0.0724
      15    H8      19.002551   21.031792   19.896061 H          1 MOL1         0.0724
      16    H9      19.750538   21.809894   21.306692 H          1 MOL1         0.0724
@<TRIPOS>BOND
    1     1     2    1
    2     1     3    2
    3     1     4    1
    4     4     5    1
    5     4     6    1
    6     4     7    1
    7     7     8    1
    8     7     9    1
    9     7    10    1
   10    10    11    1
   11    10    12    1
   12    10    13    1
   13    13    14    1
   14    13    15    1
   15    13    16    1
@<TRIPOS>SUBSTRUCTURE
       1 MOL1            1 RESIDUE      1      MOL     
@<SCITEGIC>MOL_PROPERTY
VConf Rank
SciTegic.value.IntegerValue
775

@<SCITEGIC>MOL_PROPERTY
Conf_Id
SciTegic.value.IntegerValue
19

@<SCITEGIC>MOL_PROPERTY
Delta U+W
SciTegic.value.DoubleValue
0.048

@<SCITEGIC>MOL_PROPERTY
U+W
SciTegic.value.DoubleValue
-56.856

@<SCITEGIC>MOL_PROPERTY
Grad RMS
SciTegic.value.DoubleValue
0.000000

@<SCITEGIC>MOL_PROPERTY
U
SciTegic.value.DoubleValue
8.276

@<SCITEGIC>MOL_PROPERTY
W
SciTegic.value.DoubleValue
-65.132

@<SCITEGIC>MOL_PROPERTY
W(PB)
SciTegic.value.DoubleValue
-67.031

@<SCITEGIC>MOL_PROPERTY
W(SA)
SciTegic.value.DoubleValue
1.899

@<SCITEGIC>MOL_PROPERTY
Valence
SciTegic.value.DoubleValue
6.513

@<SCITEGIC>MOL_PROPERTY
Coulomb
SciTegic.value.DoubleValue
1.428

@<SCITEGIC>MOL_PROPERTY
VdW
SciTegic.value.DoubleValue
0.335

@<SCITEGIC>MOL_PROPERTY
VdW6
SciTegic.value.DoubleValue
-5.021

@<SCITEGIC>MOL_PROPERTY
VdW12
SciTegic.value.DoubleValue
5.356

@<SCITEGIC>MOL_PROPERTY
Bond
SciTegic.value.DoubleValue
0.092

@<SCITEGIC>MOL_PROPERTY
Angle
SciTegic.value.DoubleValue
2.417

@<SCITEGIC>MOL_PROPERTY
Pdih
SciTegic.value.DoubleValue
4.003

@<SCITEGIC>MOL_PROPERTY
Idih
SciTegic.value.DoubleValue
0.001

@<SCITEGIC>MOL_PROPERTY
Tether
SciTegic.value.DoubleValue
0.000

@<TRIPOS>MOLECULE
guest-s18_confgen4.mol2 : confsearch ligand conformer 776
          16          15           1
SMALL
USER_CHARGES
 
@<TRIPOS>ATOM
       1    C1      21.782620   19.915953   23.255814 C.2        1 MOL1         0.6075
       2    O1      21.551111   20.809313   24.046165 O.co2      1 MOL1        -0.6830
       3    O2      22.684855   19.956098   22.443027 O.co2      1 MOL1        -0.6830
       4    C2      20.906373   18.667210   23.304077 C.3        1 MOL1        -0.2050
       5    H1      20.802017   18.380023   24.357106 H          1 MOL1         0.0710
       6    H2      21.435934   17.847746   22.802949 H          1 MOL1         0.0710
       7    C3      19.500221   18.857132   22.678210 C.3        1 MOL1        -0.1947
       8    H3      18.896257   17.962211   22.880455 H          1 MOL1         0.0712
       9    H4      18.993214   19.698765   23.170369 H          1 MOL1         0.0712
      10    C4      19.556232   19.099243   21.154256 C.3        1 MOL1        -0.1921
      11    H5      20.074337   18.262888   20.664913 H          1 MOL1         0.0712
      12    H6      20.141481   20.004602   20.940874 H          1 MOL1         0.0712
      13    C5      18.145023   19.250928   20.552732 C.3        1 MOL1        -0.2936
      14    H7      17.546777   18.345749   20.720565 H          1 MOL1         0.0724
      15    H8      18.202744   19.423158   19.470086 H          1 MOL1         0.0724
      16    H9      17.615602   20.100659   21.003422 H          1 MOL1         0.0724
@<TRIPOS>BOND
    1     1     2    1
    2     1     3    2
    3     1     4    1
    4     4     5    1
    5     4     6    1
    6     4     7    1
    7     7     8    1
    8     7     9    1
    9     7    10    1
   10    10    11    1
   11    10    12    1
   12    10    13    1
   13    13    14    1
   14    13    15    1
   15    13    16    1
@<TRIPOS>SUBSTRUCTURE
       1 MOL1            1 RESIDUE      1      MOL     
@<SCITEGIC>MOL_PROPERTY
VConf Rank
SciTegic.value.IntegerValue
776

@<SCITEGIC>MOL_PROPERTY
Conf_Id
SciTegic.value.IntegerValue
20

@<SCITEGIC>MOL_PROPERTY
Delta U+W
SciTegic.value.DoubleValue
-0.010

@<SCITEGIC>MOL_PROPERTY
U+W
SciTegic.value.DoubleValue
-56.914

@<SCITEGIC>MOL_PROPERTY
Grad RMS
SciTegic.value.DoubleValue
0.000000

@<SCITEGIC>MOL_PROPERTY
U
SciTegic.value.DoubleValue
8.277

@<SCITEGIC>MOL_PROPERTY
W
SciTegic.value.DoubleValue
-65.191

@<SCITEGIC>MOL_PROPERTY
W(PB)
SciTegic.value.DoubleValue
-67.081

@<SCITEGIC>MOL_PROPERTY
W(SA)
SciTegic.value.DoubleValue
1.890

@<SCITEGIC>MOL_PROPERTY
Valence
SciTegic.value.DoubleValue
6.513

@<SCITEGIC>MOL_PROPERTY
Coulomb
SciTegic.value.DoubleValue
1.429

@<SCITEGIC>MOL_PROPERTY
VdW
SciTegic.value.DoubleValue
0.335

@<SCITEGIC>MOL_PROPERTY
VdW6
SciTegic.value.DoubleValue
-5.021

@<SCITEGIC>MOL_PROPERTY
VdW12
SciTegic.value.DoubleValue
5.356

@<SCITEGIC>MOL_PROPERTY
Bond
SciTegic.value.DoubleValue
0.092

@<SCITEGIC>MOL_PROPERTY
Angle
SciTegic.value.DoubleValue
2.417

@<SCITEGIC>MOL_PROPERTY
Pdih
SciTegic.value.DoubleValue
4.002

@<SCITEGIC>MOL_PROPERTY
Idih
SciTegic.value.DoubleValue
0.001

@<SCITEGIC>MOL_PROPERTY
Tether
SciTegic.value.DoubleValue
0.000

@<TRIPOS>MOLECULE
guest-s18_confgen4.mol2 : confsearch ligand conformer 777
          16          15           1
SMALL
USER_CHARGES
 
@<TRIPOS>ATOM
       1    C1      19.607325   20.756642   23.589853 C.2        1 MOL1         0.6075
       2    O1      19.726745   21.930380   23.298540 O.co2      1 MOL1        -0.6830
       3    O2      20.107365   20.257146   24.578166 O.co2      1 MOL1        -0.6830
       4    C2      18.755309   19.873037   22.682629 C.3        1 MOL1        -0.2050
       5    H1      17.799651   20.388312   22.530681 H          1 MOL1         0.0710
       6    H2      18.524692   18.942353   23.213563 H          1 MOL1         0.0710
       7    C3      19.399694   19.570562   21.302066 C.3        1 MOL1        -0.1947
       8    H3      18.688066   19.000611   20.689601 H          1 MOL1         0.0712
       9    H4      19.567621   20.520236   20.775497 H          1 MOL1         0.0712
      10    C4      20.738115   18.798046   21.378475 C.3        1 MOL1        -0.1921
      11    H5      21.470679   19.374747   21.960166 H          1 MOL1         0.0712
      12    H6      21.151094   18.707374   20.364397 H          1 MOL1         0.0712
      13    C5      20.592213   17.386119   21.984788 C.3        1 MOL1        -0.2936
      14    H7      20.298722   17.434996   23.041179 H          1 MOL1         0.0724
      15    H8      21.545628   16.844923   21.930315 H          1 MOL1         0.0724
      16    H9      19.838679   16.800263   21.442546 H          1 MOL1         0.0724
@<TRIPOS>BOND
    1     1     2    1
    2     1     3    2
    3     1     4    1
    4     4     5    1
    5     4     6    1
    6     4     7    1
    7     7     8    1
    8     7     9    1
    9     7    10    1
   10    10    11    1
   11    10    12    1
   12    10    13    1
   13    13    14    1
   14    13    15    1
   15    13    16    1
@<TRIPOS>SUBSTRUCTURE
       1 MOL1            1 RESIDUE      1      MOL     
@<SCITEGIC>MOL_PROPERTY
VConf Rank
SciTegic.value.IntegerValue
777

@<SCITEGIC>MOL_PROPERTY
Conf_Id
SciTegic.value.IntegerValue
37

@<SCITEGIC>MOL_PROPERTY
Delta U+W
SciTegic.value.DoubleValue
1.063

@<SCITEGIC>MOL_PROPERTY
U+W
SciTegic.value.DoubleValue
-55.841

@<SCITEGIC>MOL_PROPERTY
Grad RMS
SciTegic.value.DoubleValue
0.000000

@<SCITEGIC>MOL_PROPERTY
U
SciTegic.value.DoubleValue
9.719

@<SCITEGIC>MOL_PROPERTY
W
SciTegic.value.DoubleValue
-65.560

@<SCITEGIC>MOL_PROPERTY
W(PB)
SciTegic.value.DoubleValue
-67.414

@<SCITEGIC>MOL_PROPERTY
W(SA)
SciTegic.value.DoubleValue
1.854

@<SCITEGIC>MOL_PROPERTY
Valence
SciTegic.value.DoubleValue
7.002

@<SCITEGIC>MOL_PROPERTY
Coulomb
SciTegic.value.DoubleValue
2.402

@<SCITEGIC>MOL_PROPERTY
VdW
SciTegic.value.DoubleValue
0.314

@<SCITEGIC>MOL_PROPERTY
VdW6
SciTegic.value.DoubleValue
-5.861

@<SCITEGIC>MOL_PROPERTY
VdW12
SciTegic.value.DoubleValue
6.175

@<SCITEGIC>MOL_PROPERTY
Bond
SciTegic.value.DoubleValue
0.134

@<SCITEGIC>MOL_PROPERTY
Angle
SciTegic.value.DoubleValue
2.733

@<SCITEGIC>MOL_PROPERTY
Pdih
SciTegic.value.DoubleValue
4.133

@<SCITEGIC>MOL_PROPERTY
Idih
SciTegic.value.DoubleValue
0.002

@<SCITEGIC>MOL_PROPERTY
Tether
SciTegic.value.DoubleValue
0.000

@<TRIPOS>MOLECULE
guest-s18_confgen4.mol2 : confsearch ligand conformer 778
          16          15           1
SMALL
USER_CHARGES
 
@<TRIPOS>ATOM
       1    C1      21.953614   20.253399   22.437274 C.2        1 MOL1         0.6075
       2    O1      23.014221   19.738442   22.731751 O.co2      1 MOL1        -0.6830
       3    O2      21.832838   21.083760   21.558517 O.co2      1 MOL1        -0.6830
       4    C2      20.715503   19.859931   23.238530 C.3        1 MOL1        -0.2050
       5    H1      19.923099   20.591671   23.043846 H          1 MOL1         0.0710
       6    H2      20.971229   19.954929   24.300349 H          1 MOL1         0.0710
       7    C3      20.209601   18.417963   22.960197 C.3        1 MOL1        -0.1947
       8    H3      21.008362   17.708277   23.216484 H          1 MOL1         0.0712
       9    H4      19.371238   18.194190   23.633580 H          1 MOL1         0.0712
      10    C4      19.768898   18.167751   21.498292 C.3        1 MOL1        -0.1921
      11    H5      19.509441   17.106139   21.385200 H          1 MOL1         0.0712
      12    H6      20.610091   18.354735   20.816362 H          1 MOL1         0.0712
      13    C5      18.557595   19.024472   21.072596 C.3        1 MOL1        -0.2936
      14    H7      17.713485   18.882624   21.759928 H          1 MOL1         0.0724
      15    H8      18.224691   18.744081   20.064918 H          1 MOL1         0.0724
      16    H9      18.812396   20.091785   21.052476 H          1 MOL1         0.0724
@<TRIPOS>BOND
    1     1     2    1
    2     1     3    2
    3     1     4    1
    4     4     5    1
    5     4     6    1
    6     4     7    1
    7     7     8    1
    8     7     9    1
    9     7    10    1
   10    10    11    1
   11    10    12    1
   12    10    13    1
   13    13    14    1
   14    13    15    1
   15    13    16    1
@<TRIPOS>SUBSTRUCTURE
       1 MOL1            1 RESIDUE      1      MOL     
@<SCITEGIC>MOL_PROPERTY
VConf Rank
SciTegic.value.IntegerValue
778

@<SCITEGIC>MOL_PROPERTY
Conf_Id
SciTegic.value.IntegerValue
39

@<SCITEGIC>MOL_PROPERTY
Delta U+W
SciTegic.value.DoubleValue
1.129

@<SCITEGIC>MOL_PROPERTY
U+W
SciTegic.value.DoubleValue
-55.775

@<SCITEGIC>MOL_PROPERTY
Grad RMS
SciTegic.value.DoubleValue
0.000000

@<SCITEGIC>MOL_PROPERTY
U
SciTegic.value.DoubleValue
9.718

@<SCITEGIC>MOL_PROPERTY
W
SciTegic.value.DoubleValue
-65.493

@<SCITEGIC>MOL_PROPERTY
W(PB)
SciTegic.value.DoubleValue
-67.361

@<SCITEGIC>MOL_PROPERTY
W(SA)
SciTegic.value.DoubleValue
1.869

@<SCITEGIC>MOL_PROPERTY
Valence
SciTegic.value.DoubleValue
7.002

@<SCITEGIC>MOL_PROPERTY
Coulomb
SciTegic.value.DoubleValue
2.402

@<SCITEGIC>MOL_PROPERTY
VdW
SciTegic.value.DoubleValue
0.314

@<SCITEGIC>MOL_PROPERTY
VdW6
SciTegic.value.DoubleValue
-5.861

@<SCITEGIC>MOL_PROPERTY
VdW12
SciTegic.value.DoubleValue
6.175

@<SCITEGIC>MOL_PROPERTY
Bond
SciTegic.value.DoubleValue
0.134

@<SCITEGIC>MOL_PROPERTY
Angle
SciTegic.value.DoubleValue
2.734

@<SCITEGIC>MOL_PROPERTY
Pdih
SciTegic.value.DoubleValue
4.133

@<SCITEGIC>MOL_PROPERTY
Idih
SciTegic.value.DoubleValue
0.002

@<SCITEGIC>MOL_PROPERTY
Tether
SciTegic.value.DoubleValue
0.000

@<TRIPOS>MOLECULE
guest-s18_confgen4.mol2 : confsearch ligand conformer 779
          16          15           1
SMALL
USER_CHARGES
 
@<TRIPOS>ATOM
       1    C1      19.298800   17.301808   22.946410 C.2        1 MOL1         0.6075
       2    O1      19.918394   16.977693   23.940328 O.co2      1 MOL1        -0.6830
       3    O2      19.124114   16.563378   21.997009 O.co2      1 MOL1        -0.6830
       4    C2      18.630238   18.675270   22.929565 C.3        1 MOL1        -0.2050
       5    H1      18.820115   19.176340   23.886568 H          1 MOL1         0.0710
       6    H2      17.550447   18.492515   22.880567 H          1 MOL1         0.0710
       7    C3      19.039817   19.599159   21.748185 C.3        1 MOL1        -0.1947
       8    H3      19.043370   19.027630   20.809631 H          1 MOL1         0.0712
       9    H4      18.262238   20.366250   21.632452 H          1 MOL1         0.0712
      10    C4      20.394389   20.324621   21.933662 C.3        1 MOL1        -0.1921
      11    H5      20.387470   20.893144   22.873856 H          1 MOL1         0.0712
      12    H6      20.506123   21.062958   21.127643 H          1 MOL1         0.0712
      13    C5      21.615676   19.382295   21.905931 C.3        1 MOL1        -0.2936
      14    H7      21.637528   18.730661   22.787914 H          1 MOL1         0.0724
      15    H8      22.547766   19.961908   21.900964 H          1 MOL1         0.0724
      16    H9      21.604804   18.749189   21.009054 H          1 MOL1         0.0724
@<TRIPOS>BOND
    1     1     2    1
    2     1     3    2
    3     1     4    1
    4     4     5    1
    5     4     6    1
    6     4     7    1
    7     7     8    1
    8     7     9    1
    9     7    10    1
   10    10    11    1
   11    10    12    1
   12    10    13    1
   13    13    14    1
   14    13    15    1
   15    13    16    1
@<TRIPOS>SUBSTRUCTURE
       1 MOL1            1 RESIDUE      1      MOL     
@<SCITEGIC>MOL_PROPERTY
VConf Rank
SciTegic.value.IntegerValue
779

@<SCITEGIC>MOL_PROPERTY
Conf_Id
SciTegic.value.IntegerValue
47

@<SCITEGIC>MOL_PROPERTY
Delta U+W
SciTegic.value.DoubleValue
2.301

@<SCITEGIC>MOL_PROPERTY
U+W
SciTegic.value.DoubleValue
-54.603

@<SCITEGIC>MOL_PROPERTY
Grad RMS
SciTegic.value.DoubleValue
0.000000

@<SCITEGIC>MOL_PROPERTY
U
SciTegic.value.DoubleValue
11.258

@<SCITEGIC>MOL_PROPERTY
W
SciTegic.value.DoubleValue
-65.861

@<SCITEGIC>MOL_PROPERTY
W(PB)
SciTegic.value.DoubleValue
-67.702

@<SCITEGIC>MOL_PROPERTY
W(SA)
SciTegic.value.DoubleValue
1.841

@<SCITEGIC>MOL_PROPERTY
Valence
SciTegic.value.DoubleValue
8.169

@<SCITEGIC>MOL_PROPERTY
Coulomb
SciTegic.value.DoubleValue
2.735

@<SCITEGIC>MOL_PROPERTY
VdW
SciTegic.value.DoubleValue
0.355

@<SCITEGIC>MOL_PROPERTY
VdW6
SciTegic.value.DoubleValue
-6.245

@<SCITEGIC>MOL_PROPERTY
VdW12
SciTegic.value.DoubleValue
6.600

@<SCITEGIC>MOL_PROPERTY
Bond
SciTegic.value.DoubleValue
0.149

@<SCITEGIC>MOL_PROPERTY
Angle
SciTegic.value.DoubleValue
3.168

@<SCITEGIC>MOL_PROPERTY
Pdih
SciTegic.value.DoubleValue
4.840

@<SCITEGIC>MOL_PROPERTY
Idih
SciTegic.value.DoubleValue
0.011

@<SCITEGIC>MOL_PROPERTY
Tether
SciTegic.value.DoubleValue
0.000

@<TRIPOS>MOLECULE
guest-s18_confgen4.mol2 : confsearch ligand conformer 780
          16          15           1
SMALL
USER_CHARGES
 
@<TRIPOS>ATOM
       1    C1      21.210798   18.483749   23.608628 C.2        1 MOL1         0.6075
       2    O1      22.184142   19.209875   23.558621 O.co2      1 MOL1        -0.6830
       3    O2      21.281757   17.270668   23.623416 O.co2      1 MOL1        -0.6830
       4    C2      19.832634   19.127226   23.750991 C.3        1 MOL1        -0.2050
       5    H1      19.847177   19.682344   24.696180 H          1 MOL1         0.0710
       6    H2      19.079893   18.337411   23.863028 H          1 MOL1         0.0710
       7    C3      19.429618   20.095383   22.603281 C.3        1 MOL1        -0.1947
       8    H3      18.630906   20.750240   22.977012 H          1 MOL1         0.0712
       9    H4      20.272567   20.756046   22.357310 H          1 MOL1         0.0712
      10    C4      18.908705   19.399474   21.322687 C.3        1 MOL1        -0.1921
      11    H5      18.506764   20.168450   20.648585 H          1 MOL1         0.0712
      12    H6      18.067397   18.738625   21.573109 H          1 MOL1         0.0712
      13    C5      19.988384   18.600304   20.563803 C.3        1 MOL1        -0.2936
      14    H7      19.599092   18.248795   19.599613 H          1 MOL1         0.0724
      15    H8      20.305717   17.717796   21.132556 H          1 MOL1         0.0724
      16    H9      20.872603   19.220631   20.367127 H          1 MOL1         0.0724
@<TRIPOS>BOND
    1     1     2    1
    2     1     3    2
    3     1     4    1
    4     4     5    1
    5     4     6    1
    6     4     7    1
    7     7     8    1
    8     7     9    1
    9     7    10    1
   10    10    11    1
   11    10    12    1
   12    10    13    1
   13    13    14    1
   14    13    15    1
   15    13    16    1
@<TRIPOS>SUBSTRUCTURE
       1 MOL1            1 RESIDUE      1      MOL     
@<SCITEGIC>MOL_PROPERTY
VConf Rank
SciTegic.value.IntegerValue
780

@<SCITEGIC>MOL_PROPERTY
Conf_Id
SciTegic.value.IntegerValue
45

@<SCITEGIC>MOL_PROPERTY
Delta U+W
SciTegic.value.DoubleValue
2.303

@<SCITEGIC>MOL_PROPERTY
U+W
SciTegic.value.DoubleValue
-54.601

@<SCITEGIC>MOL_PROPERTY
Grad RMS
SciTegic.value.DoubleValue
0.000000

@<SCITEGIC>MOL_PROPERTY
U
SciTegic.value.DoubleValue
11.258

@<SCITEGIC>MOL_PROPERTY
W
SciTegic.value.DoubleValue
-65.860

@<SCITEGIC>MOL_PROPERTY
W(PB)
SciTegic.value.DoubleValue
-67.709

@<SCITEGIC>MOL_PROPERTY
W(SA)
SciTegic.value.DoubleValue
1.849

@<SCITEGIC>MOL_PROPERTY
Valence
SciTegic.value.DoubleValue
8.169

@<SCITEGIC>MOL_PROPERTY
Coulomb
SciTegic.value.DoubleValue
2.735

@<SCITEGIC>MOL_PROPERTY
VdW
SciTegic.value.DoubleValue
0.355

@<SCITEGIC>MOL_PROPERTY
VdW6
SciTegic.value.DoubleValue
-6.245

@<SCITEGIC>MOL_PROPERTY
VdW12
SciTegic.value.DoubleValue
6.600

@<SCITEGIC>MOL_PROPERTY
Bond
SciTegic.value.DoubleValue
0.149

@<SCITEGIC>MOL_PROPERTY
Angle
SciTegic.value.DoubleValue
3.168

@<SCITEGIC>MOL_PROPERTY
Pdih
SciTegic.value.DoubleValue
4.840

@<SCITEGIC>MOL_PROPERTY
Idih
SciTegic.value.DoubleValue
0.011

@<SCITEGIC>MOL_PROPERTY
Tether
SciTegic.value.DoubleValue
0.000

@<TRIPOS>MOLECULE
guest-s18_confgen4.mol2 : confsearch ligand conformer 781
          16          15           1
SMALL
USER_CHARGES
 
@<TRIPOS>ATOM
       1    C1      20.268176   16.501156   21.106028 C.2        1 MOL1         0.6075
       2    O1      19.436344   16.071245   21.881275 O.co2      1 MOL1        -0.6830
       3    O2      20.876575   15.793904   20.328238 O.co2      1 MOL1        -0.6830
       4    C2      20.586206   17.997252   21.084862 C.3        1 MOL1        -0.2050
       5    H1      20.402972   18.356370   20.065245 H          1 MOL1         0.0710
       6    H2      21.660519   18.106176   21.274993 H          1 MOL1         0.0710
       7    C3      19.785434   18.860450   22.095803 C.3        1 MOL1        -0.1947
       8    H3      18.709863   18.743012   21.903902 H          1 MOL1         0.0712
       9    H4      19.968720   18.492570   23.114891 H          1 MOL1         0.0712
      10    C4      20.168791   20.352496   22.005848 C.3        1 MOL1        -0.1921
      11    H5      19.984308   20.722124   20.987594 H          1 MOL1         0.0712
      12    H6      21.243920   20.471544   22.199305 H          1 MOL1         0.0712
      13    C5      19.370267   21.204498   23.012125 C.3        1 MOL1        -0.2936
      14    H7      18.291599   21.128809   22.821822 H          1 MOL1         0.0724
      15    H8      19.654731   22.261990   22.935101 H          1 MOL1         0.0724
      16    H9      19.560501   20.876385   24.042476 H          1 MOL1         0.0724
@<TRIPOS>BOND
    1     1     2    1
    2     1     3    2
    3     1     4    1
    4     4     5    1
    5     4     6    1
    6     4     7    1
    7     7     8    1
    8     7     9    1
    9     7    10    1
   10    10    11    1
   11    10    12    1
   12    10    13    1
   13    13    14    1
   14    13    15    1
   15    13    16    1
@<TRIPOS>SUBSTRUCTURE
       1 MOL1            1 RESIDUE      1      MOL     
@<SCITEGIC>MOL_PROPERTY
VConf Rank
SciTegic.value.IntegerValue
781

@<SCITEGIC>MOL_PROPERTY
Conf_Id
SciTegic.value.IntegerValue
0

@<SCITEGIC>MOL_PROPERTY
Delta U+W
SciTegic.value.DoubleValue
0.000

@<SCITEGIC>MOL_PROPERTY
U+W
SciTegic.value.DoubleValue
-56.904

@<SCITEGIC>MOL_PROPERTY
Grad RMS
SciTegic.value.DoubleValue
0.000000

@<SCITEGIC>MOL_PROPERTY
U
SciTegic.value.DoubleValue
7.329

@<SCITEGIC>MOL_PROPERTY
W
SciTegic.value.DoubleValue
-64.233

@<SCITEGIC>MOL_PROPERTY
W(PB)
SciTegic.value.DoubleValue
-66.148

@<SCITEGIC>MOL_PROPERTY
W(SA)
SciTegic.value.DoubleValue
1.915

@<SCITEGIC>MOL_PROPERTY
Valence
SciTegic.value.DoubleValue
6.755

@<SCITEGIC>MOL_PROPERTY
Coulomb
SciTegic.value.DoubleValue
-0.421

@<SCITEGIC>MOL_PROPERTY
VdW
SciTegic.value.DoubleValue
0.995

@<SCITEGIC>MOL_PROPERTY
VdW6
SciTegic.value.DoubleValue
-4.495

@<SCITEGIC>MOL_PROPERTY
VdW12
SciTegic.value.DoubleValue
5.490

@<SCITEGIC>MOL_PROPERTY
Bond
SciTegic.value.DoubleValue
0.106

@<SCITEGIC>MOL_PROPERTY
Angle
SciTegic.value.DoubleValue
2.715

@<SCITEGIC>MOL_PROPERTY
Pdih
SciTegic.value.DoubleValue
3.934

@<SCITEGIC>MOL_PROPERTY
Idih
SciTegic.value.DoubleValue
0.000

@<SCITEGIC>MOL_PROPERTY
Tether
SciTegic.value.DoubleValue
0.000

@<TRIPOS>MOLECULE
guest-s18_confgen4.mol2 : confsearch ligand conformer 782
          16          15           1
SMALL
USER_CHARGES
 
@<TRIPOS>ATOM
       1    C1      21.535332   20.527464   20.139525 C.2        1 MOL1         0.6075
       2    O1      20.910908   21.328868   19.473425 O.co2      1 MOL1        -0.6830
       3    O2      22.700066   20.675611   20.451441 O.co2      1 MOL1        -0.6830
       4    C2      20.812615   19.276162   20.625843 C.3        1 MOL1        -0.2050
       5    H1      21.542395   18.459077   20.677247 H          1 MOL1         0.0710
       6    H2      20.067267   18.997722   19.871007 H          1 MOL1         0.0710
       7    C3      20.131059   19.470534   22.002710 C.3        1 MOL1        -0.1947
       8    H3      20.887863   19.760908   22.744653 H          1 MOL1         0.0712
       9    H4      19.412712   20.299627   21.938401 H          1 MOL1         0.0712
      10    C4      19.407679   18.190735   22.471108 C.3        1 MOL1        -0.1921
      11    H5      20.125844   17.361554   22.536201 H          1 MOL1         0.0712
      12    H6      18.650332   17.900388   21.729717 H          1 MOL1         0.0712
      13    C5      18.731782   18.391524   23.841855 C.3        1 MOL1        -0.2936
      14    H7      17.985101   19.195256   23.797652 H          1 MOL1         0.0724
      15    H8      19.471510   18.652466   24.610089 H          1 MOL1         0.0724
      16    H9      18.222278   17.472697   24.160149 H          1 MOL1         0.0724
@<TRIPOS>BOND
    1     1     2    1
    2     1     3    2
    3     1     4    1
    4     4     5    1
    5     4     6    1
    6     4     7    1
    7     7     8    1
    8     7     9    1
    9     7    10    1
   10    10    11    1
   11    10    12    1
   12    10    13    1
   13    13    14    1
   14    13    15    1
   15    13    16    1
@<TRIPOS>SUBSTRUCTURE
       1 MOL1            1 RESIDUE      1      MOL     
@<SCITEGIC>MOL_PROPERTY
VConf Rank
SciTegic.value.IntegerValue
782

@<SCITEGIC>MOL_PROPERTY
Conf_Id
SciTegic.value.IntegerValue
22

@<SCITEGIC>MOL_PROPERTY
Delta U+W
SciTegic.value.DoubleValue
-1.185

@<SCITEGIC>MOL_PROPERTY
U+W
SciTegic.value.DoubleValue
-58.089

@<SCITEGIC>MOL_PROPERTY
Grad RMS
SciTegic.value.DoubleValue
0.000000

@<SCITEGIC>MOL_PROPERTY
U
SciTegic.value.DoubleValue
6.298

@<SCITEGIC>MOL_PROPERTY
W
SciTegic.value.DoubleValue
-64.387

@<SCITEGIC>MOL_PROPERTY
W(PB)
SciTegic.value.DoubleValue
-66.329

@<SCITEGIC>MOL_PROPERTY
W(SA)
SciTegic.value.DoubleValue
1.942

@<SCITEGIC>MOL_PROPERTY
Valence
SciTegic.value.DoubleValue
6.246

@<SCITEGIC>MOL_PROPERTY
Coulomb
SciTegic.value.DoubleValue
-0.408

@<SCITEGIC>MOL_PROPERTY
VdW
SciTegic.value.DoubleValue
0.460

@<SCITEGIC>MOL_PROPERTY
VdW6
SciTegic.value.DoubleValue
-4.207

@<SCITEGIC>MOL_PROPERTY
VdW12
SciTegic.value.DoubleValue
4.667

@<SCITEGIC>MOL_PROPERTY
Bond
SciTegic.value.DoubleValue
0.072

@<SCITEGIC>MOL_PROPERTY
Angle
SciTegic.value.DoubleValue
2.246

@<SCITEGIC>MOL_PROPERTY
Pdih
SciTegic.value.DoubleValue
3.928

@<SCITEGIC>MOL_PROPERTY
Idih
SciTegic.value.DoubleValue
0.001

@<SCITEGIC>MOL_PROPERTY
Tether
SciTegic.value.DoubleValue
0.000

@<TRIPOS>MOLECULE
guest-s18_confgen4.mol2 : confsearch ligand conformer 783
          16          15           1
SMALL
USER_CHARGES
 
@<TRIPOS>ATOM
       1    C1      18.513596   21.284029   21.842241 C.2        1 MOL1         0.6075
       2    O1      17.324425   21.247426   21.596222 O.co2      1 MOL1        -0.6830
       3    O2      19.202264   22.272042   21.682479 O.co2      1 MOL1        -0.6830
       4    C2      19.181495   20.015225   22.360526 C.3        1 MOL1        -0.2050
       5    H1      18.446388   19.463394   22.958579 H          1 MOL1         0.0710
       6    H2      19.990752   20.315274   23.035944 H          1 MOL1         0.0710
       7    C3      19.727615   19.115227   21.221778 C.3        1 MOL1        -0.1947
       8    H3      18.911981   18.904365   20.516295 H          1 MOL1         0.0712
       9    H4      20.493470   19.663847   20.656277 H          1 MOL1         0.0712
      10    C4      20.309812   17.773602   21.723272 C.3        1 MOL1        -0.1921
      11    H5      20.571192   17.154963   20.853631 H          1 MOL1         0.0712
      12    H6      19.540547   17.219505   22.278780 H          1 MOL1         0.0712
      13    C5      21.564261   17.946554   22.606098 C.3        1 MOL1        -0.2936
      14    H7      21.326033   18.462754   23.544484 H          1 MOL1         0.0724
      15    H8      22.337271   18.523344   22.081677 H          1 MOL1         0.0724
      16    H9      21.989614   16.968022   22.864085 H          1 MOL1         0.0724
@<TRIPOS>BOND
    1     1     2    1
    2     1     3    2
    3     1     4    1
    4     4     5    1
    5     4     6    1
    6     4     7    1
    7     7     8    1
    8     7     9    1
    9     7    10    1
   10    10    11    1
   11    10    12    1
   12    10    13    1
   13    13    14    1
   14    13    15    1
   15    13    16    1
@<TRIPOS>SUBSTRUCTURE
       1 MOL1            1 RESIDUE      1      MOL     
@<SCITEGIC>MOL_PROPERTY
VConf Rank
SciTegic.value.IntegerValue
783

@<SCITEGIC>MOL_PROPERTY
Conf_Id
SciTegic.value.IntegerValue
36

@<SCITEGIC>MOL_PROPERTY
Delta U+W
SciTegic.value.DoubleValue
-0.427

@<SCITEGIC>MOL_PROPERTY
U+W
SciTegic.value.DoubleValue
-57.331

@<SCITEGIC>MOL_PROPERTY
Grad RMS
SciTegic.value.DoubleValue
0.000000

@<SCITEGIC>MOL_PROPERTY
U
SciTegic.value.DoubleValue
7.263

@<SCITEGIC>MOL_PROPERTY
W
SciTegic.value.DoubleValue
-64.594

@<SCITEGIC>MOL_PROPERTY
W(PB)
SciTegic.value.DoubleValue
-66.513

@<SCITEGIC>MOL_PROPERTY
W(SA)
SciTegic.value.DoubleValue
1.920

@<SCITEGIC>MOL_PROPERTY
Valence
SciTegic.value.DoubleValue
6.734

@<SCITEGIC>MOL_PROPERTY
Coulomb
SciTegic.value.DoubleValue
-0.068

@<SCITEGIC>MOL_PROPERTY
VdW
SciTegic.value.DoubleValue
0.598

@<SCITEGIC>MOL_PROPERTY
VdW6
SciTegic.value.DoubleValue
-4.819

@<SCITEGIC>MOL_PROPERTY
VdW12
SciTegic.value.DoubleValue
5.417

@<SCITEGIC>MOL_PROPERTY
Bond
SciTegic.value.DoubleValue
0.107

@<SCITEGIC>MOL_PROPERTY
Angle
SciTegic.value.DoubleValue
2.469

@<SCITEGIC>MOL_PROPERTY
Pdih
SciTegic.value.DoubleValue
4.157

@<SCITEGIC>MOL_PROPERTY
Idih
SciTegic.value.DoubleValue
0.001

@<SCITEGIC>MOL_PROPERTY
Tether
SciTegic.value.DoubleValue
0.000

@<TRIPOS>MOLECULE
guest-s18_confgen4.mol2 : confsearch ligand conformer 784
          16          15           1
SMALL
USER_CHARGES
 
@<TRIPOS>ATOM
       1    C1      21.688335   17.878639   23.449593 C.2        1 MOL1         0.6075
       2    O1      21.168549   17.425036   24.449606 O.co2      1 MOL1        -0.6830
       3    O2      22.886083   18.044336   23.331525 O.co2      1 MOL1        -0.6830
       4    C2      20.787339   18.280587   22.287175 C.3        1 MOL1        -0.2050
       5    H1      19.929525   17.598545   22.277611 H          1 MOL1         0.0710
       6    H2      21.341792   18.119051   21.354944 H          1 MOL1         0.0710
       7    C3      20.311238   19.753756   22.377167 C.3        1 MOL1        -0.1947
       8    H3      19.721119   19.892937   23.293517 H          1 MOL1         0.0712
       9    H4      21.191662   20.404247   22.472793 H          1 MOL1         0.0712
      10    C4      19.487312   20.210166   21.151099 C.3        1 MOL1        -0.1921
      11    H5      20.081604   20.082045   20.235794 H          1 MOL1         0.0712
      12    H6      19.285178   21.286341   21.242184 H          1 MOL1         0.0712
      13    C5      18.144729   19.462020   21.007303 C.3        1 MOL1        -0.2936
      14    H7      18.300084   18.395822   20.800257 H          1 MOL1         0.0724
      15    H8      17.559856   19.879665   20.177541 H          1 MOL1         0.0724
      16    H9      17.544884   19.551945   21.922372 H          1 MOL1         0.0724
@<TRIPOS>BOND
    1     1     2    1
    2     1     3    2
    3     1     4    1
    4     4     5    1
    5     4     6    1
    6     4     7    1
    7     7     8    1
    8     7     9    1
    9     7    10    1
   10    10    11    1
   11    10    12    1
   12    10    13    1
   13    13    14    1
   14    13    15    1
   15    13    16    1
@<TRIPOS>SUBSTRUCTURE
       1 MOL1            1 RESIDUE      1      MOL     
@<SCITEGIC>MOL_PROPERTY
VConf Rank
SciTegic.value.IntegerValue
784

@<SCITEGIC>MOL_PROPERTY
Conf_Id
SciTegic.value.IntegerValue
17

@<SCITEGIC>MOL_PROPERTY
Delta U+W
SciTegic.value.DoubleValue
-0.432

@<SCITEGIC>MOL_PROPERTY
U+W
SciTegic.value.DoubleValue
-57.336

@<SCITEGIC>MOL_PROPERTY
Grad RMS
SciTegic.value.DoubleValue
0.000000

@<SCITEGIC>MOL_PROPERTY
U
SciTegic.value.DoubleValue
7.263

@<SCITEGIC>MOL_PROPERTY
W
SciTegic.value.DoubleValue
-64.599

@<SCITEGIC>MOL_PROPERTY
W(PB)
SciTegic.value.DoubleValue
-66.503

@<SCITEGIC>MOL_PROPERTY
W(SA)
SciTegic.value.DoubleValue
1.904

@<SCITEGIC>MOL_PROPERTY
Valence
SciTegic.value.DoubleValue
6.734

@<SCITEGIC>MOL_PROPERTY
Coulomb
SciTegic.value.DoubleValue
-0.068

@<SCITEGIC>MOL_PROPERTY
VdW
SciTegic.value.DoubleValue
0.598

@<SCITEGIC>MOL_PROPERTY
VdW6
SciTegic.value.DoubleValue
-4.819

@<SCITEGIC>MOL_PROPERTY
VdW12
SciTegic.value.DoubleValue
5.417

@<SCITEGIC>MOL_PROPERTY
Bond
SciTegic.value.DoubleValue
0.107

@<SCITEGIC>MOL_PROPERTY
Angle
SciTegic.value.DoubleValue
2.469

@<SCITEGIC>MOL_PROPERTY
Pdih
SciTegic.value.DoubleValue
4.157

@<SCITEGIC>MOL_PROPERTY
Idih
SciTegic.value.DoubleValue
0.001

@<SCITEGIC>MOL_PROPERTY
Tether
SciTegic.value.DoubleValue
0.000

@<TRIPOS>MOLECULE
guest-s18_confgen4.mol2 : confsearch ligand conformer 785
          16          15           1
SMALL
USER_CHARGES
 
@<TRIPOS>ATOM
       1    C1      22.260999   18.091544   22.072155 C.2        1 MOL1         0.6075
       2    O1      22.789555   18.083665   20.978121 O.co2      1 MOL1        -0.6830
       3    O2      22.826326   18.444558   23.088053 O.co2      1 MOL1        -0.6830
       4    C2      20.816868   17.608930   22.177327 C.3        1 MOL1        -0.2050
       5    H1      20.609728   17.347745   23.222295 H          1 MOL1         0.0710
       6    H2      20.737576   16.681875   21.597228 H          1 MOL1         0.0710
       7    C3      19.769798   18.631225   21.663913 C.3        1 MOL1        -0.1947
       8    H3      20.006466   18.904957   20.626280 H          1 MOL1         0.0712
       9    H4      18.781841   18.151424   21.646845 H          1 MOL1         0.0712
      10    C4      19.702861   19.902437   22.537824 C.3        1 MOL1        -0.1921
      11    H5      20.681406   20.402548   22.545742 H          1 MOL1         0.0712
      12    H6      19.478438   19.626131   23.577375 H          1 MOL1         0.0712
      13    C5      18.631874   20.885880   22.025797 C.3        1 MOL1        -0.2936
      14    H7      18.849613   21.202645   20.997352 H          1 MOL1         0.0724
      15    H8      18.597943   21.783456   22.656925 H          1 MOL1         0.0724
      16    H9      17.635808   20.424263   22.039109 H          1 MOL1         0.0724
@<TRIPOS>BOND
    1     1     2    1
    2     1     3    2
    3     1     4    1
    4     4     5    1
    5     4     6    1
    6     4     7    1
    7     7     8    1
    8     7     9    1
    9     7    10    1
   10    10    11    1
   11    10    12    1
   12    10    13    1
   13    13    14    1
   14    13    15    1
   15    13    16    1
@<TRIPOS>SUBSTRUCTURE
       1 MOL1            1 RESIDUE      1      MOL     
@<SCITEGIC>MOL_PROPERTY
VConf Rank
SciTegic.value.IntegerValue
785

@<SCITEGIC>MOL_PROPERTY
Conf_Id
SciTegic.value.IntegerValue
19

@<SCITEGIC>MOL_PROPERTY
Delta U+W
SciTegic.value.DoubleValue
0.048

@<SCITEGIC>MOL_PROPERTY
U+W
SciTegic.value.DoubleValue
-56.856

@<SCITEGIC>MOL_PROPERTY
Grad RMS
SciTegic.value.DoubleValue
0.000000

@<SCITEGIC>MOL_PROPERTY
U
SciTegic.value.DoubleValue
8.276

@<SCITEGIC>MOL_PROPERTY
W
SciTegic.value.DoubleValue
-65.132

@<SCITEGIC>MOL_PROPERTY
W(PB)
SciTegic.value.DoubleValue
-67.031

@<SCITEGIC>MOL_PROPERTY
W(SA)
SciTegic.value.DoubleValue
1.899

@<SCITEGIC>MOL_PROPERTY
Valence
SciTegic.value.DoubleValue
6.513

@<SCITEGIC>MOL_PROPERTY
Coulomb
SciTegic.value.DoubleValue
1.428

@<SCITEGIC>MOL_PROPERTY
VdW
SciTegic.value.DoubleValue
0.335

@<SCITEGIC>MOL_PROPERTY
VdW6
SciTegic.value.DoubleValue
-5.021

@<SCITEGIC>MOL_PROPERTY
VdW12
SciTegic.value.DoubleValue
5.356

@<SCITEGIC>MOL_PROPERTY
Bond
SciTegic.value.DoubleValue
0.092

@<SCITEGIC>MOL_PROPERTY
Angle
SciTegic.value.DoubleValue
2.417

@<SCITEGIC>MOL_PROPERTY
Pdih
SciTegic.value.DoubleValue
4.003

@<SCITEGIC>MOL_PROPERTY
Idih
SciTegic.value.DoubleValue
0.001

@<SCITEGIC>MOL_PROPERTY
Tether
SciTegic.value.DoubleValue
0.000

@<TRIPOS>MOLECULE
guest-s18_confgen4.mol2 : confsearch ligand conformer 786
          16          15           1
SMALL
USER_CHARGES
 
@<TRIPOS>ATOM
       1    C1      18.400612   17.350739   21.660764 C.2        1 MOL1         0.6075
       2    O1      17.456024   17.297816   22.423192 O.co2      1 MOL1        -0.6830
       3    O2      19.103661   16.395807   21.396024 O.co2      1 MOL1        -0.6830
       4    C2      18.704173   18.683791   20.982296 C.3        1 MOL1        -0.2050
       5    H1      17.753206   19.091280   20.619184 H          1 MOL1         0.0710
       6    H2      19.325751   18.493949   20.098731 H          1 MOL1         0.0710
       7    C3      19.391852   19.721576   21.907036 C.3        1 MOL1        -0.1947
       8    H3      19.444424   20.685809   21.383539 H          1 MOL1         0.0712
       9    H4      18.772163   19.880161   22.800602 H          1 MOL1         0.0712
      10    C4      20.814489   19.292414   22.326695 C.3        1 MOL1        -0.1921
      11    H5      21.429321   19.122243   21.432044 H          1 MOL1         0.0712
      12    H6      20.772055   18.337972   22.869802 H          1 MOL1         0.0712
      13    C5      21.487367   20.355993   23.216856 C.3        1 MOL1        -0.2936
      14    H7      21.575140   21.313621   22.687083 H          1 MOL1         0.0724
      15    H8      22.496437   20.035269   23.506736 H          1 MOL1         0.0724
      16    H9      20.908124   20.523237   24.134438 H          1 MOL1         0.0724
@<TRIPOS>BOND
    1     1     2    1
    2     1     3    2
    3     1     4    1
    4     4     5    1
    5     4     6    1
    6     4     7    1
    7     7     8    1
    8     7     9    1
    9     7    10    1
   10    10    11    1
   11    10    12    1
   12    10    13    1
   13    13    14    1
   14    13    15    1
   15    13    16    1
@<TRIPOS>SUBSTRUCTURE
       1 MOL1            1 RESIDUE      1      MOL     
@<SCITEGIC>MOL_PROPERTY
VConf Rank
SciTegic.value.IntegerValue
786

@<SCITEGIC>MOL_PROPERTY
Conf_Id
SciTegic.value.IntegerValue
20

@<SCITEGIC>MOL_PROPERTY
Delta U+W
SciTegic.value.DoubleValue
-0.010

@<SCITEGIC>MOL_PROPERTY
U+W
SciTegic.value.DoubleValue
-56.914

@<SCITEGIC>MOL_PROPERTY
Grad RMS
SciTegic.value.DoubleValue
0.000000

@<SCITEGIC>MOL_PROPERTY
U
SciTegic.value.DoubleValue
8.277

@<SCITEGIC>MOL_PROPERTY
W
SciTegic.value.DoubleValue
-65.191

@<SCITEGIC>MOL_PROPERTY
W(PB)
SciTegic.value.DoubleValue
-67.081

@<SCITEGIC>MOL_PROPERTY
W(SA)
SciTegic.value.DoubleValue
1.890

@<SCITEGIC>MOL_PROPERTY
Valence
SciTegic.value.DoubleValue
6.513

@<SCITEGIC>MOL_PROPERTY
Coulomb
SciTegic.value.DoubleValue
1.429

@<SCITEGIC>MOL_PROPERTY
VdW
SciTegic.value.DoubleValue
0.335

@<SCITEGIC>MOL_PROPERTY
VdW6
SciTegic.value.DoubleValue
-5.021

@<SCITEGIC>MOL_PROPERTY
VdW12
SciTegic.value.DoubleValue
5.356

@<SCITEGIC>MOL_PROPERTY
Bond
SciTegic.value.DoubleValue
0.092

@<SCITEGIC>MOL_PROPERTY
Angle
SciTegic.value.DoubleValue
2.417

@<SCITEGIC>MOL_PROPERTY
Pdih
SciTegic.value.DoubleValue
4.002

@<SCITEGIC>MOL_PROPERTY
Idih
SciTegic.value.DoubleValue
0.001

@<SCITEGIC>MOL_PROPERTY
Tether
SciTegic.value.DoubleValue
0.000

@<TRIPOS>MOLECULE
guest-s18_confgen4.mol2 : confsearch ligand conformer 787
          16          15           1
SMALL
USER_CHARGES
 
@<TRIPOS>ATOM
       1    C1      20.375362   19.027041   20.089945 C.2        1 MOL1         0.6075
       2    O1      19.684688   18.453113   19.271189 O.co2      1 MOL1        -0.6830
       3    O2      21.579881   18.887210   20.166640 O.co2      1 MOL1        -0.6830
       4    C2      19.695609   20.000391   21.049252 C.3        1 MOL1        -0.2050
       5    H1      19.077257   20.674481   20.444998 H          1 MOL1         0.0710
       6    H2      20.463777   20.623777   21.521011 H          1 MOL1         0.0710
       7    C3      18.807962   19.317205   22.125364 C.3        1 MOL1        -0.1947
       8    H3      18.298533   20.090555   22.715943 H          1 MOL1         0.0712
       9    H4      18.017631   18.745418   21.619604 H          1 MOL1         0.0712
      10    C4      19.576146   18.371873   23.079424 C.3        1 MOL1        -0.1921
      11    H5      20.062272   17.572383   22.503148 H          1 MOL1         0.0712
      12    H6      18.853541   17.878397   23.743843 H          1 MOL1         0.0712
      13    C5      20.628295   19.101005   23.941856 C.3        1 MOL1        -0.2936
      14    H7      21.439322   19.505399   23.322834 H          1 MOL1         0.0724
      15    H8      21.077369   18.408727   24.665697 H          1 MOL1         0.0724
      16    H9      20.173956   19.928774   24.501713 H          1 MOL1         0.0724
@<TRIPOS>BOND
    1     1     2    1
    2     1     3    2
    3     1     4    1
    4     4     5    1
    5     4     6    1
    6     4     7    1
    7     7     8    1
    8     7     9    1
    9     7    10    1
   10    10    11    1
   11    10    12    1
   12    10    13    1
   13    13    14    1
   14    13    15    1
   15    13    16    1
@<TRIPOS>SUBSTRUCTURE
       1 MOL1            1 RESIDUE      1      MOL     
@<SCITEGIC>MOL_PROPERTY
VConf Rank
SciTegic.value.IntegerValue
787

@<SCITEGIC>MOL_PROPERTY
Conf_Id
SciTegic.value.IntegerValue
37

@<SCITEGIC>MOL_PROPERTY
Delta U+W
SciTegic.value.DoubleValue
1.063

@<SCITEGIC>MOL_PROPERTY
U+W
SciTegic.value.DoubleValue
-55.841

@<SCITEGIC>MOL_PROPERTY
Grad RMS
SciTegic.value.DoubleValue
0.000000

@<SCITEGIC>MOL_PROPERTY
U
SciTegic.value.DoubleValue
9.719

@<SCITEGIC>MOL_PROPERTY
W
SciTegic.value.DoubleValue
-65.560

@<SCITEGIC>MOL_PROPERTY
W(PB)
SciTegic.value.DoubleValue
-67.414

@<SCITEGIC>MOL_PROPERTY
W(SA)
SciTegic.value.DoubleValue
1.854

@<SCITEGIC>MOL_PROPERTY
Valence
SciTegic.value.DoubleValue
7.002

@<SCITEGIC>MOL_PROPERTY
Coulomb
SciTegic.value.DoubleValue
2.402

@<SCITEGIC>MOL_PROPERTY
VdW
SciTegic.value.DoubleValue
0.314

@<SCITEGIC>MOL_PROPERTY
VdW6
SciTegic.value.DoubleValue
-5.861

@<SCITEGIC>MOL_PROPERTY
VdW12
SciTegic.value.DoubleValue
6.175

@<SCITEGIC>MOL_PROPERTY
Bond
SciTegic.value.DoubleValue
0.134

@<SCITEGIC>MOL_PROPERTY
Angle
SciTegic.value.DoubleValue
2.733

@<SCITEGIC>MOL_PROPERTY
Pdih
SciTegic.value.DoubleValue
4.133

@<SCITEGIC>MOL_PROPERTY
Idih
SciTegic.value.DoubleValue
0.002

@<SCITEGIC>MOL_PROPERTY
Tether
SciTegic.value.DoubleValue
0.000

@<TRIPOS>MOLECULE
guest-s18_confgen4.mol2 : confsearch ligand conformer 788
          16          15           1
SMALL
USER_CHARGES
 
@<TRIPOS>ATOM
       1    C1      20.543279   21.243570   22.070533 C.2        1 MOL1         0.6075
       2    O1      21.666755   21.701675   22.001795 O.co2      1 MOL1        -0.6830
       3    O2      19.624873   21.612227   21.365605 O.co2      1 MOL1        -0.6830
       4    C2      20.265684   20.173083   23.122552 C.3        1 MOL1        -0.2050
       5    H1      19.181070   20.068464   23.240516 H          1 MOL1         0.0710
       6    H2      20.646668   20.550063   24.078908 H          1 MOL1         0.0710
       7    C3      20.918482   18.797077   22.817358 C.3        1 MOL1        -0.1947
       8    H3      22.007829   18.928586   22.759195 H          1 MOL1         0.0712
       9    H4      20.735084   18.116684   23.659856 H          1 MOL1         0.0712
      10    C4      20.424789   18.132879   21.510032 C.3        1 MOL1        -0.1921
      11    H5      21.001662   17.212954   21.342448 H          1 MOL1         0.0712
      12    H6      20.634379   18.789435   20.654110 H          1 MOL1         0.0712
      13    C5      18.922233   17.780613   21.536027 C.3        1 MOL1        -0.2936
      14    H7      18.679477   17.153101   22.403416 H          1 MOL1         0.0724
      15    H8      18.641966   17.228640   20.629586 H          1 MOL1         0.0724
      16    H9      18.302069   18.685097   21.578363 H          1 MOL1         0.0724
@<TRIPOS>BOND
    1     1     2    1
    2     1     3    2
    3     1     4    1
    4     4     5    1
    5     4     6    1
    6     4     7    1
    7     7     8    1
    8     7     9    1
    9     7    10    1
   10    10    11    1
   11    10    12    1
   12    10    13    1
   13    13    14    1
   14    13    15    1
   15    13    16    1
@<TRIPOS>SUBSTRUCTURE
       1 MOL1            1 RESIDUE      1      MOL     
@<SCITEGIC>MOL_PROPERTY
VConf Rank
SciTegic.value.IntegerValue
788

@<SCITEGIC>MOL_PROPERTY
Conf_Id
SciTegic.value.IntegerValue
39

@<SCITEGIC>MOL_PROPERTY
Delta U+W
SciTegic.value.DoubleValue
1.129

@<SCITEGIC>MOL_PROPERTY
U+W
SciTegic.value.DoubleValue
-55.775

@<SCITEGIC>MOL_PROPERTY
Grad RMS
SciTegic.value.DoubleValue
0.000000

@<SCITEGIC>MOL_PROPERTY
U
SciTegic.value.DoubleValue
9.718

@<SCITEGIC>MOL_PROPERTY
W
SciTegic.value.DoubleValue
-65.493

@<SCITEGIC>MOL_PROPERTY
W(PB)
SciTegic.value.DoubleValue
-67.361

@<SCITEGIC>MOL_PROPERTY
W(SA)
SciTegic.value.DoubleValue
1.869

@<SCITEGIC>MOL_PROPERTY
Valence
SciTegic.value.DoubleValue
7.002

@<SCITEGIC>MOL_PROPERTY
Coulomb
SciTegic.value.DoubleValue
2.402

@<SCITEGIC>MOL_PROPERTY
VdW
SciTegic.value.DoubleValue
0.314

@<SCITEGIC>MOL_PROPERTY
VdW6
SciTegic.value.DoubleValue
-5.861

@<SCITEGIC>MOL_PROPERTY
VdW12
SciTegic.value.DoubleValue
6.175

@<SCITEGIC>MOL_PROPERTY
Bond
SciTegic.value.DoubleValue
0.134

@<SCITEGIC>MOL_PROPERTY
Angle
SciTegic.value.DoubleValue
2.734

@<SCITEGIC>MOL_PROPERTY
Pdih
SciTegic.value.DoubleValue
4.133

@<SCITEGIC>MOL_PROPERTY
Idih
SciTegic.value.DoubleValue
0.002

@<SCITEGIC>MOL_PROPERTY
Tether
SciTegic.value.DoubleValue
0.000

@<TRIPOS>MOLECULE
guest-s18_confgen4.mol2 : confsearch ligand conformer 789
          16          15           1
SMALL
USER_CHARGES
 
@<TRIPOS>ATOM
       1    C1      18.891663   19.411594   23.959723 C.2        1 MOL1         0.6075
       2    O1      17.739653   19.036197   23.866071 O.co2      1 MOL1        -0.6830
       3    O2      19.206140   20.503174   24.391828 O.co2      1 MOL1        -0.6830
       4    C2      20.002449   18.426448   23.600143 C.3        1 MOL1        -0.2050
       5    H1      19.550842   17.470866   23.307067 H          1 MOL1         0.0710
       6    H2      20.560043   18.238698   24.525124 H          1 MOL1         0.0710
       7    C3      20.992178   18.912184   22.504024 C.3        1 MOL1        -0.1947
       8    H3      21.284071   19.953687   22.697958 H          1 MOL1         0.0712
       9    H4      21.912348   18.318766   22.591169 H          1 MOL1         0.0712
      10    C4      20.472894   18.767251   21.053196 C.3        1 MOL1        -0.1921
      11    H5      20.180341   17.725213   20.863987 H          1 MOL1         0.0712
      12    H6      21.300974   18.984958   20.364589 H          1 MOL1         0.0712
      13    C5      19.296363   19.706225   20.714981 C.3        1 MOL1        -0.2936
      14    H7      18.388617   19.421823   21.260977 H          1 MOL1         0.0724
      15    H8      19.064479   19.660392   19.643115 H          1 MOL1         0.0724
      16    H9      19.538234   20.747342   20.965789 H          1 MOL1         0.0724
@<TRIPOS>BOND
    1     1     2    1
    2     1     3    2
    3     1     4    1
    4     4     5    1
    5     4     6    1
    6     4     7    1
    7     7     8    1
    8     7     9    1
    9     7    10    1
   10    10    11    1
   11    10    12    1
   12    10    13    1
   13    13    14    1
   14    13    15    1
   15    13    16    1
@<TRIPOS>SUBSTRUCTURE
       1 MOL1            1 RESIDUE      1      MOL     
@<SCITEGIC>MOL_PROPERTY
VConf Rank
SciTegic.value.IntegerValue
789

@<SCITEGIC>MOL_PROPERTY
Conf_Id
SciTegic.value.IntegerValue
47

@<SCITEGIC>MOL_PROPERTY
Delta U+W
SciTegic.value.DoubleValue
2.301

@<SCITEGIC>MOL_PROPERTY
U+W
SciTegic.value.DoubleValue
-54.603

@<SCITEGIC>MOL_PROPERTY
Grad RMS
SciTegic.value.DoubleValue
0.000000

@<SCITEGIC>MOL_PROPERTY
U
SciTegic.value.DoubleValue
11.258

@<SCITEGIC>MOL_PROPERTY
W
SciTegic.value.DoubleValue
-65.861

@<SCITEGIC>MOL_PROPERTY
W(PB)
SciTegic.value.DoubleValue
-67.702

@<SCITEGIC>MOL_PROPERTY
W(SA)
SciTegic.value.DoubleValue
1.841

@<SCITEGIC>MOL_PROPERTY
Valence
SciTegic.value.DoubleValue
8.169

@<SCITEGIC>MOL_PROPERTY
Coulomb
SciTegic.value.DoubleValue
2.735

@<SCITEGIC>MOL_PROPERTY
VdW
SciTegic.value.DoubleValue
0.355

@<SCITEGIC>MOL_PROPERTY
VdW6
SciTegic.value.DoubleValue
-6.245

@<SCITEGIC>MOL_PROPERTY
VdW12
SciTegic.value.DoubleValue
6.600

@<SCITEGIC>MOL_PROPERTY
Bond
SciTegic.value.DoubleValue
0.149

@<SCITEGIC>MOL_PROPERTY
Angle
SciTegic.value.DoubleValue
3.168

@<SCITEGIC>MOL_PROPERTY
Pdih
SciTegic.value.DoubleValue
4.840

@<SCITEGIC>MOL_PROPERTY
Idih
SciTegic.value.DoubleValue
0.011

@<SCITEGIC>MOL_PROPERTY
Tether
SciTegic.value.DoubleValue
0.000

@<TRIPOS>MOLECULE
guest-s18_confgen4.mol2 : confsearch ligand conformer 790
          16          15           1
SMALL
USER_CHARGES
 
@<TRIPOS>ATOM
       1    C1      18.049864   18.309025   22.265508 C.2        1 MOL1         0.6075
       2    O1      17.636896   18.283278   23.408291 O.co2      1 MOL1        -0.6830
       3    O2      17.987425   17.358796   21.510534 O.co2      1 MOL1        -0.6830
       4    C2      18.593100   19.628636   21.720359 C.3        1 MOL1        -0.2050
       5    H1      17.763548   20.344168   21.760455 H          1 MOL1         0.0710
       6    H2      18.845160   19.500193   20.660668 H          1 MOL1         0.0710
       7    C3      19.805891   20.218169   22.494036 C.3        1 MOL1        -0.1947
       8    H3      19.868687   21.289564   22.260323 H          1 MOL1         0.0712
       9    H4      19.626547   20.154367   23.576305 H          1 MOL1         0.0712
      10    C4      21.170555   19.577872   22.142936 C.3        1 MOL1        -0.1921
      11    H5      21.964566   20.169684   22.618961 H          1 MOL1         0.0712
      12    H6      21.345203   19.642033   21.060064 H          1 MOL1         0.0712
      13    C5      21.309445   18.112478   22.605122 C.3        1 MOL1        -0.2936
      14    H7      22.337737   17.758711   22.456015 H          1 MOL1         0.0724
      15    H8      20.646978   17.449458   22.035437 H          1 MOL1         0.0724
      16    H9      21.066553   18.010585   23.670932 H          1 MOL1         0.0724
@<TRIPOS>BOND
    1     1     2    1
    2     1     3    2
    3     1     4    1
    4     4     5    1
    5     4     6    1
    6     4     7    1
    7     7     8    1
    8     7     9    1
    9     7    10    1
   10    10    11    1
   11    10    12    1
   12    10    13    1
   13    13    14    1
   14    13    15    1
   15    13    16    1
@<TRIPOS>SUBSTRUCTURE
       1 MOL1            1 RESIDUE      1      MOL     
@<SCITEGIC>MOL_PROPERTY
VConf Rank
SciTegic.value.IntegerValue
790

@<SCITEGIC>MOL_PROPERTY
Conf_Id
SciTegic.value.IntegerValue
45

@<SCITEGIC>MOL_PROPERTY
Delta U+W
SciTegic.value.DoubleValue
2.303

@<SCITEGIC>MOL_PROPERTY
U+W
SciTegic.value.DoubleValue
-54.601

@<SCITEGIC>MOL_PROPERTY
Grad RMS
SciTegic.value.DoubleValue
0.000000

@<SCITEGIC>MOL_PROPERTY
U
SciTegic.value.DoubleValue
11.258

@<SCITEGIC>MOL_PROPERTY
W
SciTegic.value.DoubleValue
-65.860

@<SCITEGIC>MOL_PROPERTY
W(PB)
SciTegic.value.DoubleValue
-67.709

@<SCITEGIC>MOL_PROPERTY
W(SA)
SciTegic.value.DoubleValue
1.849

@<SCITEGIC>MOL_PROPERTY
Valence
SciTegic.value.DoubleValue
8.169

@<SCITEGIC>MOL_PROPERTY
Coulomb
SciTegic.value.DoubleValue
2.735

@<SCITEGIC>MOL_PROPERTY
VdW
SciTegic.value.DoubleValue
0.355

@<SCITEGIC>MOL_PROPERTY
VdW6
SciTegic.value.DoubleValue
-6.245

@<SCITEGIC>MOL_PROPERTY
VdW12
SciTegic.value.DoubleValue
6.600

@<SCITEGIC>MOL_PROPERTY
Bond
SciTegic.value.DoubleValue
0.149

@<SCITEGIC>MOL_PROPERTY
Angle
SciTegic.value.DoubleValue
3.168

@<SCITEGIC>MOL_PROPERTY
Pdih
SciTegic.value.DoubleValue
4.840

@<SCITEGIC>MOL_PROPERTY
Idih
SciTegic.value.DoubleValue
0.011

@<SCITEGIC>MOL_PROPERTY
Tether
SciTegic.value.DoubleValue
0.000

@<TRIPOS>MOLECULE
guest-s18_confgen4.mol2 : confsearch ligand conformer 791
          16          15           1
SMALL
USER_CHARGES
 
@<TRIPOS>ATOM
       1    C1      22.669855   18.439186   22.033422 C.2        1 MOL1         0.6075
       2    O1      22.851671   18.581228   20.839879 O.co2      1 MOL1        -0.6830
       3    O2      23.547637   18.099567   22.801191 O.co2      1 MOL1        -0.6830
       4    C2      21.282655   18.691904   22.626469 C.3        1 MOL1        -0.2050
       5    H1      21.392342   19.462382   23.398798 H          1 MOL1         0.0710
       6    H2      20.971003   17.771282   23.133906 H          1 MOL1         0.0710
       7    C3      20.193805   19.122709   21.608058 C.3        1 MOL1        -0.1947
       8    H3      20.514044   20.042383   21.099024 H          1 MOL1         0.0712
       9    H4      20.092263   18.349536   20.833874 H          1 MOL1         0.0712
      10    C4      18.829777   19.355599   22.291028 C.3        1 MOL1        -0.1921
      11    H5      18.929550   20.129903   23.064331 H          1 MOL1         0.0712
      12    H6      18.507506   18.436047   22.799029 H          1 MOL1         0.0712
      13    C5      17.752669   19.783178   21.274585 C.3        1 MOL1        -0.2936
      14    H7      18.034832   20.718439   20.773446 H          1 MOL1         0.0724
      15    H8      16.789652   19.944549   21.776282 H          1 MOL1         0.0724
      16    H9      17.609669   19.012088   20.506184 H          1 MOL1         0.0724
@<TRIPOS>BOND
    1     1     2    1
    2     1     3    2
    3     1     4    1
    4     4     5    1
    5     4     6    1
    6     4     7    1
    7     7     8    1
    8     7     9    1
    9     7    10    1
   10    10    11    1
   11    10    12    1
   12    10    13    1
   13    13    14    1
   14    13    15    1
   15    13    16    1
@<TRIPOS>SUBSTRUCTURE
       1 MOL1            1 RESIDUE      1      MOL     
@<SCITEGIC>MOL_PROPERTY
VConf Rank
SciTegic.value.IntegerValue
791

@<SCITEGIC>MOL_PROPERTY
Conf_Id
SciTegic.value.IntegerValue
0

@<SCITEGIC>MOL_PROPERTY
Delta U+W
SciTegic.value.DoubleValue
0.000

@<SCITEGIC>MOL_PROPERTY
U+W
SciTegic.value.DoubleValue
-56.904

@<SCITEGIC>MOL_PROPERTY
Grad RMS
SciTegic.value.DoubleValue
0.000000

@<SCITEGIC>MOL_PROPERTY
U
SciTegic.value.DoubleValue
7.329

@<SCITEGIC>MOL_PROPERTY
W
SciTegic.value.DoubleValue
-64.233

@<SCITEGIC>MOL_PROPERTY
W(PB)
SciTegic.value.DoubleValue
-66.148

@<SCITEGIC>MOL_PROPERTY
W(SA)
SciTegic.value.DoubleValue
1.915

@<SCITEGIC>MOL_PROPERTY
Valence
SciTegic.value.DoubleValue
6.755

@<SCITEGIC>MOL_PROPERTY
Coulomb
SciTegic.value.DoubleValue
-0.421

@<SCITEGIC>MOL_PROPERTY
VdW
SciTegic.value.DoubleValue
0.995

@<SCITEGIC>MOL_PROPERTY
VdW6
SciTegic.value.DoubleValue
-4.495

@<SCITEGIC>MOL_PROPERTY
VdW12
SciTegic.value.DoubleValue
5.490

@<SCITEGIC>MOL_PROPERTY
Bond
SciTegic.value.DoubleValue
0.106

@<SCITEGIC>MOL_PROPERTY
Angle
SciTegic.value.DoubleValue
2.715

@<SCITEGIC>MOL_PROPERTY
Pdih
SciTegic.value.DoubleValue
3.934

@<SCITEGIC>MOL_PROPERTY
Idih
SciTegic.value.DoubleValue
0.000

@<SCITEGIC>MOL_PROPERTY
Tether
SciTegic.value.DoubleValue
0.000

@<TRIPOS>MOLECULE
guest-s18_confgen4.mol2 : confsearch ligand conformer 792
          16          15           1
SMALL
USER_CHARGES
 
@<TRIPOS>ATOM
       1    C1      22.005861   20.098602   20.317575 C.2        1 MOL1         0.6075
       2    O1      23.127163   20.032156   20.780295 O.co2      1 MOL1        -0.6830
       3    O2      21.764463   20.032159   19.128812 O.co2      1 MOL1        -0.6830
       4    C2      20.836126   20.255758   21.282771 C.3        1 MOL1        -0.2050
       5    H1      20.056830   20.842537   20.781535 H          1 MOL1         0.0710
       6    H2      21.180318   20.842415   22.143129 H          1 MOL1         0.0710
       7    C3      20.260234   18.899025   21.757832 C.3        1 MOL1        -0.1947
       8    H3      19.931495   18.318453   20.884666 H          1 MOL1         0.0712
       9    H4      21.055052   18.318294   22.246266 H          1 MOL1         0.0712
      10    C4      19.078991   19.086347   22.732581 C.3        1 MOL1        -0.1921
      11    H5      18.283657   19.666463   22.244270 H          1 MOL1         0.0712
      12    H6      19.407497   19.666342   23.606210 H          1 MOL1         0.0712
      13    C5      18.510993   17.732126   23.201159 C.3        1 MOL1        -0.2936
      14    H7      19.277938   17.143342   23.721350 H          1 MOL1         0.0724
      15    H8      18.145820   17.143454   22.349346 H          1 MOL1         0.0724
      16    H9      17.672306   17.883119   23.893225 H          1 MOL1         0.0724
@<TRIPOS>BOND
    1     1     2    1
    2     1     3    2
    3     1     4    1
    4     4     5    1
    5     4     6    1
    6     4     7    1
    7     7     8    1
    8     7     9    1
    9     7    10    1
   10    10    11    1
   11    10    12    1
   12    10    13    1
   13    13    14    1
   14    13    15    1
   15    13    16    1
@<TRIPOS>SUBSTRUCTURE
       1 MOL1            1 RESIDUE      1      MOL     
@<SCITEGIC>MOL_PROPERTY
VConf Rank
SciTegic.value.IntegerValue
792

@<SCITEGIC>MOL_PROPERTY
Conf_Id
SciTegic.value.IntegerValue
22

@<SCITEGIC>MOL_PROPERTY
Delta U+W
SciTegic.value.DoubleValue
-1.185

@<SCITEGIC>MOL_PROPERTY
U+W
SciTegic.value.DoubleValue
-58.089

@<SCITEGIC>MOL_PROPERTY
Grad RMS
SciTegic.value.DoubleValue
0.000000

@<SCITEGIC>MOL_PROPERTY
U
SciTegic.value.DoubleValue
6.298

@<SCITEGIC>MOL_PROPERTY
W
SciTegic.value.DoubleValue
-64.387

@<SCITEGIC>MOL_PROPERTY
W(PB)
SciTegic.value.DoubleValue
-66.329

@<SCITEGIC>MOL_PROPERTY
W(SA)
SciTegic.value.DoubleValue
1.942

@<SCITEGIC>MOL_PROPERTY
Valence
SciTegic.value.DoubleValue
6.246

@<SCITEGIC>MOL_PROPERTY
Coulomb
SciTegic.value.DoubleValue
-0.408

@<SCITEGIC>MOL_PROPERTY
VdW
SciTegic.value.DoubleValue
0.460

@<SCITEGIC>MOL_PROPERTY
VdW6
SciTegic.value.DoubleValue
-4.207

@<SCITEGIC>MOL_PROPERTY
VdW12
SciTegic.value.DoubleValue
4.667

@<SCITEGIC>MOL_PROPERTY
Bond
SciTegic.value.DoubleValue
0.072

@<SCITEGIC>MOL_PROPERTY
Angle
SciTegic.value.DoubleValue
2.246

@<SCITEGIC>MOL_PROPERTY
Pdih
SciTegic.value.DoubleValue
3.928

@<SCITEGIC>MOL_PROPERTY
Idih
SciTegic.value.DoubleValue
0.001

@<SCITEGIC>MOL_PROPERTY
Tether
SciTegic.value.DoubleValue
0.000

@<TRIPOS>MOLECULE
guest-s18_confgen4.mol2 : confsearch ligand conformer 793
          16          15           1
SMALL
USER_CHARGES
 
@<TRIPOS>ATOM
       1    C1      18.446398   18.458718   20.008219 C.2        1 MOL1         0.6075
       2    O1      18.343315   19.133746   19.003378 O.co2      1 MOL1        -0.6830
       3    O2      17.621518   17.635613   20.351772 O.co2      1 MOL1        -0.6830
       4    C2      19.667363   18.670639   20.896423 C.3        1 MOL1        -0.2050
       5    H1      20.511087   18.950594   20.254302 H          1 MOL1         0.0710
       6    H2      19.915773   17.708433   21.358558 H          1 MOL1         0.0710
       7    C3      19.439942   19.754164   21.982354 C.3        1 MOL1        -0.1947
       8    H3      19.108617   20.680548   21.493003 H          1 MOL1         0.0712
       9    H4      18.620705   19.442696   22.645036 H          1 MOL1         0.0712
      10    C4      20.702489   20.059535   22.820884 C.3        1 MOL1        -0.1921
      11    H5      20.488040   20.907254   23.486237 H          1 MOL1         0.0712
      12    H6      21.518406   20.382352   22.159485 H          1 MOL1         0.0712
      13    C5      21.169919   18.861972   23.675451 C.3        1 MOL1        -0.2936
      14    H7      21.503705   18.026945   23.046882 H          1 MOL1         0.0724
      15    H8      20.360720   18.503039   24.324769 H          1 MOL1         0.0724
      16    H9      22.012720   19.153323   24.315614 H          1 MOL1         0.0724
@<TRIPOS>BOND
    1     1     2    1
    2     1     3    2
    3     1     4    1
    4     4     5    1
    5     4     6    1
    6     4     7    1
    7     7     8    1
    8     7     9    1
    9     7    10    1
   10    10    11    1
   11    10    12    1
   12    10    13    1
   13    13    14    1
   14    13    15    1
   15    13    16    1
@<TRIPOS>SUBSTRUCTURE
       1 MOL1            1 RESIDUE      1      MOL     
@<SCITEGIC>MOL_PROPERTY
VConf Rank
SciTegic.value.IntegerValue
793

@<SCITEGIC>MOL_PROPERTY
Conf_Id
SciTegic.value.IntegerValue
36

@<SCITEGIC>MOL_PROPERTY
Delta U+W
SciTegic.value.DoubleValue
-0.427

@<SCITEGIC>MOL_PROPERTY
U+W
SciTegic.value.DoubleValue
-57.331

@<SCITEGIC>MOL_PROPERTY
Grad RMS
SciTegic.value.DoubleValue
0.000000

@<SCITEGIC>MOL_PROPERTY
U
SciTegic.value.DoubleValue
7.263

@<SCITEGIC>MOL_PROPERTY
W
SciTegic.value.DoubleValue
-64.594

@<SCITEGIC>MOL_PROPERTY
W(PB)
SciTegic.value.DoubleValue
-66.513

@<SCITEGIC>MOL_PROPERTY
W(SA)
SciTegic.value.DoubleValue
1.920

@<SCITEGIC>MOL_PROPERTY
Valence
SciTegic.value.DoubleValue
6.734

@<SCITEGIC>MOL_PROPERTY
Coulomb
SciTegic.value.DoubleValue
-0.068

@<SCITEGIC>MOL_PROPERTY
VdW
SciTegic.value.DoubleValue
0.598

@<SCITEGIC>MOL_PROPERTY
VdW6
SciTegic.value.DoubleValue
-4.819

@<SCITEGIC>MOL_PROPERTY
VdW12
SciTegic.value.DoubleValue
5.417

@<SCITEGIC>MOL_PROPERTY
Bond
SciTegic.value.DoubleValue
0.107

@<SCITEGIC>MOL_PROPERTY
Angle
SciTegic.value.DoubleValue
2.469

@<SCITEGIC>MOL_PROPERTY
Pdih
SciTegic.value.DoubleValue
4.157

@<SCITEGIC>MOL_PROPERTY
Idih
SciTegic.value.DoubleValue
0.001

@<SCITEGIC>MOL_PROPERTY
Tether
SciTegic.value.DoubleValue
0.000

@<TRIPOS>MOLECULE
guest-s18_confgen4.mol2 : confsearch ligand conformer 794
          16          15           1
SMALL
USER_CHARGES
 
@<TRIPOS>ATOM
       1    C1      21.273387   21.104916   23.052883 C.2        1 MOL1         0.6075
       2    O1      22.463498   20.865283   23.099451 O.co2      1 MOL1        -0.6830
       3    O2      20.732587   21.955323   23.731366 O.co2      1 MOL1        -0.6830
       4    C2      20.407957   20.280339   22.106482 C.3        1 MOL1        -0.2050
       5    H1      21.017536   20.025989   21.231932 H          1 MOL1         0.0710
       6    H2      19.585693   20.915760   21.756213 H          1 MOL1         0.0710
       7    C3      19.845583   18.996766   22.770689 C.3        1 MOL1        -0.1947
       8    H3      20.677720   18.348795   23.078897 H          1 MOL1         0.0712
       9    H4      19.314261   19.278697   23.690276 H          1 MOL1         0.0712
      10    C4      18.877704   18.206272   21.860338 C.3        1 MOL1        -0.1921
      11    H5      18.039313   18.850636   21.561549 H          1 MOL1         0.0712
      12    H6      18.443295   17.379993   22.439872 H          1 MOL1         0.0712
      13    C5      19.560979   17.627083   20.603117 C.3        1 MOL1        -0.2936
      14    H7      19.911998   18.423299   19.934830 H          1 MOL1         0.0724
      15    H8      18.856784   17.004245   20.036380 H          1 MOL1         0.0724
      16    H9      20.420991   17.001742   20.876206 H          1 MOL1         0.0724
@<TRIPOS>BOND
    1     1     2    1
    2     1     3    2
    3     1     4    1
    4     4     5    1
    5     4     6    1
    6     4     7    1
    7     7     8    1
    8     7     9    1
    9     7    10    1
   10    10    11    1
   11    10    12    1
   12    10    13    1
   13    13    14    1
   14    13    15    1
   15    13    16    1
@<TRIPOS>SUBSTRUCTURE
       1 MOL1            1 RESIDUE      1      MOL     
@<SCITEGIC>MOL_PROPERTY
VConf Rank
SciTegic.value.IntegerValue
794

@<SCITEGIC>MOL_PROPERTY
Conf_Id
SciTegic.value.IntegerValue
17

@<SCITEGIC>MOL_PROPERTY
Delta U+W
SciTegic.value.DoubleValue
-0.432

@<SCITEGIC>MOL_PROPERTY
U+W
SciTegic.value.DoubleValue
-57.336

@<SCITEGIC>MOL_PROPERTY
Grad RMS
SciTegic.value.DoubleValue
0.000000

@<SCITEGIC>MOL_PROPERTY
U
SciTegic.value.DoubleValue
7.263

@<SCITEGIC>MOL_PROPERTY
W
SciTegic.value.DoubleValue
-64.599

@<SCITEGIC>MOL_PROPERTY
W(PB)
SciTegic.value.DoubleValue
-66.503

@<SCITEGIC>MOL_PROPERTY
W(SA)
SciTegic.value.DoubleValue
1.904

@<SCITEGIC>MOL_PROPERTY
Valence
SciTegic.value.DoubleValue
6.734

@<SCITEGIC>MOL_PROPERTY
Coulomb
SciTegic.value.DoubleValue
-0.068

@<SCITEGIC>MOL_PROPERTY
VdW
SciTegic.value.DoubleValue
0.598

@<SCITEGIC>MOL_PROPERTY
VdW6
SciTegic.value.DoubleValue
-4.819

@<SCITEGIC>MOL_PROPERTY
VdW12
SciTegic.value.DoubleValue
5.417

@<SCITEGIC>MOL_PROPERTY
Bond
SciTegic.value.DoubleValue
0.107

@<SCITEGIC>MOL_PROPERTY
Angle
SciTegic.value.DoubleValue
2.469

@<SCITEGIC>MOL_PROPERTY
Pdih
SciTegic.value.DoubleValue
4.157

@<SCITEGIC>MOL_PROPERTY
Idih
SciTegic.value.DoubleValue
0.001

@<SCITEGIC>MOL_PROPERTY
Tether
SciTegic.value.DoubleValue
0.000

@<TRIPOS>MOLECULE
guest-s18_confgen4.mol2 : confsearch ligand conformer 795
          16          15           1
SMALL
USER_CHARGES
 
@<TRIPOS>ATOM
       1    C1      22.166765   18.529992   21.034625 C.2        1 MOL1         0.6075
       2    O1      22.520883   17.393257   21.277058 O.co2      1 MOL1        -0.6830
       3    O2      22.122454   18.994225   19.912668 O.co2      1 MOL1        -0.6830
       4    C2      21.780238   19.428779   22.206065 C.3        1 MOL1        -0.2050
       5    H1      21.828886   20.473967   21.876976 H          1 MOL1         0.0710
       6    H2      22.545543   19.304681   22.981397 H          1 MOL1         0.0710
       7    C3      20.383120   19.121046   22.804729 C.3        1 MOL1        -0.1947
       8    H3      20.339609   18.064388   23.103400 H          1 MOL1         0.0712
       9    H4      20.248921   19.713980   23.719594 H          1 MOL1         0.0712
      10    C4      19.233903   19.434527   21.822277 C.3        1 MOL1        -0.1921
      11    H5      19.346480   18.831254   20.910624 H          1 MOL1         0.0712
      12    H6      19.286120   20.488180   21.514922 H          1 MOL1         0.0712
      13    C5      17.856251   19.152015   22.453628 C.3        1 MOL1        -0.2936
      14    H7      17.765903   18.096584   22.742336 H          1 MOL1         0.0724
      15    H8      17.051285   19.379017   21.742561 H          1 MOL1         0.0724
      16    H9      17.700741   19.767390   23.349478 H          1 MOL1         0.0724
@<TRIPOS>BOND
    1     1     2    1
    2     1     3    2
    3     1     4    1
    4     4     5    1
    5     4     6    1
    6     4     7    1
    7     7     8    1
    8     7     9    1
    9     7    10    1
   10    10    11    1
   11    10    12    1
   12    10    13    1
   13    13    14    1
   14    13    15    1
   15    13    16    1
@<TRIPOS>SUBSTRUCTURE
       1 MOL1            1 RESIDUE      1      MOL     
@<SCITEGIC>MOL_PROPERTY
VConf Rank
SciTegic.value.IntegerValue
795

@<SCITEGIC>MOL_PROPERTY
Conf_Id
SciTegic.value.IntegerValue
19

@<SCITEGIC>MOL_PROPERTY
Delta U+W
SciTegic.value.DoubleValue
0.048

@<SCITEGIC>MOL_PROPERTY
U+W
SciTegic.value.DoubleValue
-56.856

@<SCITEGIC>MOL_PROPERTY
Grad RMS
SciTegic.value.DoubleValue
0.000000

@<SCITEGIC>MOL_PROPERTY
U
SciTegic.value.DoubleValue
8.276

@<SCITEGIC>MOL_PROPERTY
W
SciTegic.value.DoubleValue
-65.132

@<SCITEGIC>MOL_PROPERTY
W(PB)
SciTegic.value.DoubleValue
-67.031

@<SCITEGIC>MOL_PROPERTY
W(SA)
SciTegic.value.DoubleValue
1.899

@<SCITEGIC>MOL_PROPERTY
Valence
SciTegic.value.DoubleValue
6.513

@<SCITEGIC>MOL_PROPERTY
Coulomb
SciTegic.value.DoubleValue
1.428

@<SCITEGIC>MOL_PROPERTY
VdW
SciTegic.value.DoubleValue
0.335

@<SCITEGIC>MOL_PROPERTY
VdW6
SciTegic.value.DoubleValue
-5.021

@<SCITEGIC>MOL_PROPERTY
VdW12
SciTegic.value.DoubleValue
5.356

@<SCITEGIC>MOL_PROPERTY
Bond
SciTegic.value.DoubleValue
0.092

@<SCITEGIC>MOL_PROPERTY
Angle
SciTegic.value.DoubleValue
2.417

@<SCITEGIC>MOL_PROPERTY
Pdih
SciTegic.value.DoubleValue
4.003

@<SCITEGIC>MOL_PROPERTY
Idih
SciTegic.value.DoubleValue
0.001

@<SCITEGIC>MOL_PROPERTY
Tether
SciTegic.value.DoubleValue
0.000

@<TRIPOS>MOLECULE
guest-s18_confgen4.mol2 : confsearch ligand conformer 796
          16          15           1
SMALL
USER_CHARGES
 
@<TRIPOS>ATOM
       1    C1      21.444252   19.858058   20.469861 C.2        1 MOL1         0.6075
       2    O1      22.437011   20.370562   20.947472 O.co2      1 MOL1        -0.6830
       3    O2      20.807891   20.348924   19.558623 O.co2      1 MOL1        -0.6830
       4    C2      20.987383   18.514045   21.030572 C.3        1 MOL1        -0.2050
       5    H1      21.875660   17.877889   21.122797 H          1 MOL1         0.0710
       6    H2      20.328330   18.033891   20.296959 H          1 MOL1         0.0710
       7    C3      20.276272   18.611470   22.405299 C.3        1 MOL1        -0.1947
       8    H3      20.109772   17.597347   22.793101 H          1 MOL1         0.0712
       9    H4      20.936700   19.119607   23.121717 H          1 MOL1         0.0712
      10    C4      18.924399   19.353041   22.323417 C.3        1 MOL1        -0.1921
      11    H5      18.269699   18.851084   21.597618 H          1 MOL1         0.0712
      12    H6      19.081260   20.376679   21.955608 H          1 MOL1         0.0712
      13    C5      18.223628   19.406128   23.695442 C.3        1 MOL1        -0.2936
      14    H7      18.022272   18.395175   24.073391 H          1 MOL1         0.0724
      15    H8      17.265614   19.936810   23.619923 H          1 MOL1         0.0724
      16    H9      18.844656   19.930968   24.433220 H          1 MOL1         0.0724
@<TRIPOS>BOND
    1     1     2    1
    2     1     3    2
    3     1     4    1
    4     4     5    1
    5     4     6    1
    6     4     7    1
    7     7     8    1
    8     7     9    1
    9     7    10    1
   10    10    11    1
   11    10    12    1
   12    10    13    1
   13    13    14    1
   14    13    15    1
   15    13    16    1
@<TRIPOS>SUBSTRUCTURE
       1 MOL1            1 RESIDUE      1      MOL     
@<SCITEGIC>MOL_PROPERTY
VConf Rank
SciTegic.value.IntegerValue
796

@<SCITEGIC>MOL_PROPERTY
Conf_Id
SciTegic.value.IntegerValue
20

@<SCITEGIC>MOL_PROPERTY
Delta U+W
SciTegic.value.DoubleValue
-0.010

@<SCITEGIC>MOL_PROPERTY
U+W
SciTegic.value.DoubleValue
-56.914

@<SCITEGIC>MOL_PROPERTY
Grad RMS
SciTegic.value.DoubleValue
0.000000

@<SCITEGIC>MOL_PROPERTY
U
SciTegic.value.DoubleValue
8.277

@<SCITEGIC>MOL_PROPERTY
W
SciTegic.value.DoubleValue
-65.191

@<SCITEGIC>MOL_PROPERTY
W(PB)
SciTegic.value.DoubleValue
-67.081

@<SCITEGIC>MOL_PROPERTY
W(SA)
SciTegic.value.DoubleValue
1.890

@<SCITEGIC>MOL_PROPERTY
Valence
SciTegic.value.DoubleValue
6.513

@<SCITEGIC>MOL_PROPERTY
Coulomb
SciTegic.value.DoubleValue
1.429

@<SCITEGIC>MOL_PROPERTY
VdW
SciTegic.value.DoubleValue
0.335

@<SCITEGIC>MOL_PROPERTY
VdW6
SciTegic.value.DoubleValue
-5.021

@<SCITEGIC>MOL_PROPERTY
VdW12
SciTegic.value.DoubleValue
5.356

@<SCITEGIC>MOL_PROPERTY
Bond
SciTegic.value.DoubleValue
0.092

@<SCITEGIC>MOL_PROPERTY
Angle
SciTegic.value.DoubleValue
2.417

@<SCITEGIC>MOL_PROPERTY
Pdih
SciTegic.value.DoubleValue
4.002

@<SCITEGIC>MOL_PROPERTY
Idih
SciTegic.value.DoubleValue
0.001

@<SCITEGIC>MOL_PROPERTY
Tether
SciTegic.value.DoubleValue
0.000

@<TRIPOS>MOLECULE
guest-s18_confgen4.mol2 : confsearch ligand conformer 797
          16          15           1
SMALL
USER_CHARGES
 
@<TRIPOS>ATOM
       1    C1      18.879219   18.501888   23.965575 C.2        1 MOL1         0.6075
       2    O1      19.150229   18.931873   25.069410 O.co2      1 MOL1        -0.6830
       3    O2      18.743841   17.319325   23.721609 O.co2      1 MOL1        -0.6830
       4    C2      18.664561   19.504901   22.835252 C.3        1 MOL1        -0.2050
       5    H1      17.957539   20.259415   23.199545 H          1 MOL1         0.0710
       6    H2      18.170385   18.994313   22.000784 H          1 MOL1         0.0710
       7    C3      19.963012   20.208965   22.354629 C.3        1 MOL1        -0.1947
       8    H3      19.704735   20.965874   21.601798 H          1 MOL1         0.0712
       9    H4      20.402741   20.754162   23.201243 H          1 MOL1         0.0712
      10    C4      21.028308   19.251691   21.769172 C.3        1 MOL1        -0.1921
      11    H5      21.321118   18.509886   22.525205 H          1 MOL1         0.0712
      12    H6      21.932975   19.830505   21.537482 H          1 MOL1         0.0712
      13    C5      20.558717   18.528112   20.489188 C.3        1 MOL1        -0.2936
      14    H7      19.729737   17.841031   20.701790 H          1 MOL1         0.0724
      15    H8      21.377966   17.936542   20.060543 H          1 MOL1         0.0724
      16    H9      20.226520   19.247266   19.729235 H          1 MOL1         0.0724
@<TRIPOS>BOND
    1     1     2    1
    2     1     3    2
    3     1     4    1
    4     4     5    1
    5     4     6    1
    6     4     7    1
    7     7     8    1
    8     7     9    1
    9     7    10    1
   10    10    11    1
   11    10    12    1
   12    10    13    1
   13    13    14    1
   14    13    15    1
   15    13    16    1
@<TRIPOS>SUBSTRUCTURE
       1 MOL1            1 RESIDUE      1      MOL     
@<SCITEGIC>MOL_PROPERTY
VConf Rank
SciTegic.value.IntegerValue
797

@<SCITEGIC>MOL_PROPERTY
Conf_Id
SciTegic.value.IntegerValue
37

@<SCITEGIC>MOL_PROPERTY
Delta U+W
SciTegic.value.DoubleValue
1.063

@<SCITEGIC>MOL_PROPERTY
U+W
SciTegic.value.DoubleValue
-55.841

@<SCITEGIC>MOL_PROPERTY
Grad RMS
SciTegic.value.DoubleValue
0.000000

@<SCITEGIC>MOL_PROPERTY
U
SciTegic.value.DoubleValue
9.719

@<SCITEGIC>MOL_PROPERTY
W
SciTegic.value.DoubleValue
-65.560

@<SCITEGIC>MOL_PROPERTY
W(PB)
SciTegic.value.DoubleValue
-67.414

@<SCITEGIC>MOL_PROPERTY
W(SA)
SciTegic.value.DoubleValue
1.854

@<SCITEGIC>MOL_PROPERTY
Valence
SciTegic.value.DoubleValue
7.002

@<SCITEGIC>MOL_PROPERTY
Coulomb
SciTegic.value.DoubleValue
2.402

@<SCITEGIC>MOL_PROPERTY
VdW
SciTegic.value.DoubleValue
0.314

@<SCITEGIC>MOL_PROPERTY
VdW6
SciTegic.value.DoubleValue
-5.861

@<SCITEGIC>MOL_PROPERTY
VdW12
SciTegic.value.DoubleValue
6.175

@<SCITEGIC>MOL_PROPERTY
Bond
SciTegic.value.DoubleValue
0.134

@<SCITEGIC>MOL_PROPERTY
Angle
SciTegic.value.DoubleValue
2.733

@<SCITEGIC>MOL_PROPERTY
Pdih
SciTegic.value.DoubleValue
4.133

@<SCITEGIC>MOL_PROPERTY
Idih
SciTegic.value.DoubleValue
0.002

@<SCITEGIC>MOL_PROPERTY
Tether
SciTegic.value.DoubleValue
0.000

@<TRIPOS>MOLECULE
guest-s18_confgen4.mol2 : confsearch ligand conformer 798
          16          15           1
SMALL
USER_CHARGES
 
@<TRIPOS>ATOM
       1    C1      18.729484   17.685369   21.443856 C.2        1 MOL1         0.6075
       2    O1      18.840158   17.134809   20.366165 O.co2      1 MOL1        -0.6830
       3    O2      18.464412   17.096647   22.473149 O.co2      1 MOL1        -0.6830
       4    C2      18.898737   19.201329   21.498309 C.3        1 MOL1        -0.2050
       5    H1      18.506411   19.565120   22.454858 H          1 MOL1         0.0710
       6    H2      18.258256   19.628580   20.717846 H          1 MOL1         0.0710
       7    C3      20.358938   19.686278   21.285435 C.3        1 MOL1        -0.1947
       8    H3      20.701434   19.350850   20.296730 H          1 MOL1         0.0712
       9    H4      20.373695   20.784238   21.260182 H          1 MOL1         0.0712
      10    C4      21.358815   19.188373   22.356104 C.3        1 MOL1        -0.1921
      11    H5      22.369378   19.513392   22.072814 H          1 MOL1         0.0712
      12    H6      21.379219   18.089713   22.367297 H          1 MOL1         0.0712
      13    C5      21.045464   19.714394   23.772986 C.3        1 MOL1        -0.2936
      14    H7      20.984281   20.810406   23.781919 H          1 MOL1         0.0724
      15    H8      21.832329   19.413328   24.476592 H          1 MOL1         0.0724
      16    H9      20.095287   19.311322   24.146058 H          1 MOL1         0.0724
@<TRIPOS>BOND
    1     1     2    1
    2     1     3    2
    3     1     4    1
    4     4     5    1
    5     4     6    1
    6     4     7    1
    7     7     8    1
    8     7     9    1
    9     7    10    1
   10    10    11    1
   11    10    12    1
   12    10    13    1
   13    13    14    1
   14    13    15    1
   15    13    16    1
@<TRIPOS>SUBSTRUCTURE
       1 MOL1            1 RESIDUE      1      MOL     
@<SCITEGIC>MOL_PROPERTY
VConf Rank
SciTegic.value.IntegerValue
798

@<SCITEGIC>MOL_PROPERTY
Conf_Id
SciTegic.value.IntegerValue
39

@<SCITEGIC>MOL_PROPERTY
Delta U+W
SciTegic.value.DoubleValue
1.129

@<SCITEGIC>MOL_PROPERTY
U+W
SciTegic.value.DoubleValue
-55.775

@<SCITEGIC>MOL_PROPERTY
Grad RMS
SciTegic.value.DoubleValue
0.000000

@<SCITEGIC>MOL_PROPERTY
U
SciTegic.value.DoubleValue
9.718

@<SCITEGIC>MOL_PROPERTY
W
SciTegic.value.DoubleValue
-65.493

@<SCITEGIC>MOL_PROPERTY
W(PB)
SciTegic.value.DoubleValue
-67.361

@<SCITEGIC>MOL_PROPERTY
W(SA)
SciTegic.value.DoubleValue
1.869

@<SCITEGIC>MOL_PROPERTY
Valence
SciTegic.value.DoubleValue
7.002

@<SCITEGIC>MOL_PROPERTY
Coulomb
SciTegic.value.DoubleValue
2.402

@<SCITEGIC>MOL_PROPERTY
VdW
SciTegic.value.DoubleValue
0.314

@<SCITEGIC>MOL_PROPERTY
VdW6
SciTegic.value.DoubleValue
-5.861

@<SCITEGIC>MOL_PROPERTY
VdW12
SciTegic.value.DoubleValue
6.175

@<SCITEGIC>MOL_PROPERTY
Bond
SciTegic.value.DoubleValue
0.134

@<SCITEGIC>MOL_PROPERTY
Angle
SciTegic.value.DoubleValue
2.734

@<SCITEGIC>MOL_PROPERTY
Pdih
SciTegic.value.DoubleValue
4.133

@<SCITEGIC>MOL_PROPERTY
Idih
SciTegic.value.DoubleValue
0.002

@<SCITEGIC>MOL_PROPERTY
Tether
SciTegic.value.DoubleValue
0.000

@<TRIPOS>MOLECULE
guest-s18_confgen4.mol2 : confsearch ligand conformer 799
          16          15           1
SMALL
USER_CHARGES
 
@<TRIPOS>ATOM
       1    C1      17.967966   19.218003   21.785343 C.2        1 MOL1         0.6075
       2    O1      17.291305   18.464682   22.457249 O.co2      1 MOL1        -0.6830
       3    O2      17.875433   19.301386   20.576359 O.co2      1 MOL1        -0.6830
       4    C2      18.918183   20.171581   22.507446 C.3        1 MOL1        -0.2050
       5    H1      18.821145   20.020584   23.589464 H          1 MOL1         0.0710
       6    H2      18.556020   21.185047   22.298942 H          1 MOL1         0.0710
       7    C3      20.410167   20.071365   22.082096 C.3        1 MOL1        -0.1947
       8    H3      20.484585   20.017328   20.987070 H          1 MOL1         0.0712
       9    H4      20.909204   21.005405   22.373614 H          1 MOL1         0.0712
      10    C4      21.189260   18.899261   22.726104 C.3        1 MOL1        -0.1921
      11    H5      21.110768   18.955777   23.820579 H          1 MOL1         0.0712
      12    H6      22.255104   19.017698   22.486849 H          1 MOL1         0.0712
      13    C5      20.732043   17.506783   22.244187 C.3        1 MOL1        -0.2936
      14    H7      19.722638   17.271469   22.602974 H          1 MOL1         0.0724
      15    H8      21.406685   16.728570   22.623676 H          1 MOL1         0.0724
      16    H9      20.730785   17.449878   21.147789 H          1 MOL1         0.0724
@<TRIPOS>BOND
    1     1     2    1
    2     1     3    2
    3     1     4    1
    4     4     5    1
    5     4     6    1
    6     4     7    1
    7     7     8    1
    8     7     9    1
    9     7    10    1
   10    10    11    1
   11    10    12    1
   12    10    13    1
   13    13    14    1
   14    13    15    1
   15    13    16    1
@<TRIPOS>SUBSTRUCTURE
       1 MOL1            1 RESIDUE      1      MOL     
@<SCITEGIC>MOL_PROPERTY
VConf Rank
SciTegic.value.IntegerValue
799

@<SCITEGIC>MOL_PROPERTY
Conf_Id
SciTegic.value.IntegerValue
47

@<SCITEGIC>MOL_PROPERTY
Delta U+W
SciTegic.value.DoubleValue
2.301

@<SCITEGIC>MOL_PROPERTY
U+W
SciTegic.value.DoubleValue
-54.603

@<SCITEGIC>MOL_PROPERTY
Grad RMS
SciTegic.value.DoubleValue
0.000000

@<SCITEGIC>MOL_PROPERTY
U
SciTegic.value.DoubleValue
11.258

@<SCITEGIC>MOL_PROPERTY
W
SciTegic.value.DoubleValue
-65.861

@<SCITEGIC>MOL_PROPERTY
W(PB)
SciTegic.value.DoubleValue
-67.702

@<SCITEGIC>MOL_PROPERTY
W(SA)
SciTegic.value.DoubleValue
1.841

@<SCITEGIC>MOL_PROPERTY
Valence
SciTegic.value.DoubleValue
8.169

@<SCITEGIC>MOL_PROPERTY
Coulomb
SciTegic.value.DoubleValue
2.735

@<SCITEGIC>MOL_PROPERTY
VdW
SciTegic.value.DoubleValue
0.355

@<SCITEGIC>MOL_PROPERTY
VdW6
SciTegic.value.DoubleValue
-6.245

@<SCITEGIC>MOL_PROPERTY
VdW12
SciTegic.value.DoubleValue
6.600

@<SCITEGIC>MOL_PROPERTY
Bond
SciTegic.value.DoubleValue
0.149

@<SCITEGIC>MOL_PROPERTY
Angle
SciTegic.value.DoubleValue
3.168

@<SCITEGIC>MOL_PROPERTY
Pdih
SciTegic.value.DoubleValue
4.840

@<SCITEGIC>MOL_PROPERTY
Idih
SciTegic.value.DoubleValue
0.011

@<SCITEGIC>MOL_PROPERTY
Tether
SciTegic.value.DoubleValue
0.000

@<TRIPOS>MOLECULE
guest-s18_confgen4.mol2 : confsearch ligand conformer 800
          16          15           1
SMALL
USER_CHARGES
 
@<TRIPOS>ATOM
       1    C1      19.544976   20.233738   20.648063 C.2        1 MOL1         0.6075
       2    O1      18.409484   20.034438   20.263231 O.co2      1 MOL1        -0.6830
       3    O2      20.510230   20.236782   19.909757 O.co2      1 MOL1        -0.6830
       4    C2      19.760703   20.587471   22.118437 C.3        1 MOL1        -0.2050
       5    H1      19.211241   21.519364   22.295682 H          1 MOL1         0.0710
       6    H2      20.821784   20.813970   22.279008 H          1 MOL1         0.0710
       7    C3      19.279295   19.516223   23.137094 C.3        1 MOL1        -0.1947
       8    H3      19.145561   20.009105   24.109532 H          1 MOL1         0.0712
       9    H4      18.286954   19.143405   22.847600 H          1 MOL1         0.0712
      10    C4      20.254068   18.331045   23.338911 C.3        1 MOL1        -0.1921
      11    H5      19.896516   17.727461   24.184569 H          1 MOL1         0.0712
      12    H6      21.245274   18.708008   23.626385 H          1 MOL1         0.0712
      13    C5      20.385297   17.414181   22.105045 C.3        1 MOL1        -0.2936
      14    H7      20.974638   16.521469   22.351038 H          1 MOL1         0.0724
      15    H8      20.892772   17.926682   21.278721 H          1 MOL1         0.0724
      16    H9      19.399362   17.083675   21.752871 H          1 MOL1         0.0724
@<TRIPOS>BOND
    1     1     2    1
    2     1     3    2
    3     1     4    1
    4     4     5    1
    5     4     6    1
    6     4     7    1
    7     7     8    1
    8     7     9    1
    9     7    10    1
   10    10    11    1
   11    10    12    1
   12    10    13    1
   13    13    14    1
   14    13    15    1
   15    13    16    1
@<TRIPOS>SUBSTRUCTURE
       1 MOL1            1 RESIDUE      1      MOL     
@<SCITEGIC>MOL_PROPERTY
VConf Rank
SciTegic.value.IntegerValue
800

@<SCITEGIC>MOL_PROPERTY
Conf_Id
SciTegic.value.IntegerValue
45

@<SCITEGIC>MOL_PROPERTY
Delta U+W
SciTegic.value.DoubleValue
2.303

@<SCITEGIC>MOL_PROPERTY
U+W
SciTegic.value.DoubleValue
-54.601

@<SCITEGIC>MOL_PROPERTY
Grad RMS
SciTegic.value.DoubleValue
0.000000

@<SCITEGIC>MOL_PROPERTY
U
SciTegic.value.DoubleValue
11.258

@<SCITEGIC>MOL_PROPERTY
W
SciTegic.value.DoubleValue
-65.860

@<SCITEGIC>MOL_PROPERTY
W(PB)
SciTegic.value.DoubleValue
-67.709

@<SCITEGIC>MOL_PROPERTY
W(SA)
SciTegic.value.DoubleValue
1.849

@<SCITEGIC>MOL_PROPERTY
Valence
SciTegic.value.DoubleValue
8.169

@<SCITEGIC>MOL_PROPERTY
Coulomb
SciTegic.value.DoubleValue
2.735

@<SCITEGIC>MOL_PROPERTY
VdW
SciTegic.value.DoubleValue
0.355

@<SCITEGIC>MOL_PROPERTY
VdW6
SciTegic.value.DoubleValue
-6.245

@<SCITEGIC>MOL_PROPERTY
VdW12
SciTegic.value.DoubleValue
6.600

@<SCITEGIC>MOL_PROPERTY
Bond
SciTegic.value.DoubleValue
0.149

@<SCITEGIC>MOL_PROPERTY
Angle
SciTegic.value.DoubleValue
3.168

@<SCITEGIC>MOL_PROPERTY
Pdih
SciTegic.value.DoubleValue
4.840

@<SCITEGIC>MOL_PROPERTY
Idih
SciTegic.value.DoubleValue
0.011

@<SCITEGIC>MOL_PROPERTY
Tether
SciTegic.value.DoubleValue
0.000

@<TRIPOS>MOLECULE
guest-s18_confgen4.mol2 : confsearch ligand conformer 801
          16          15           1
SMALL
USER_CHARGES
 
@<TRIPOS>ATOM
       1    C1      20.010563   17.520836   19.680789 C.2        1 MOL1         0.6075
       2    O1      21.008018   16.906801   20.006091 O.co2      1 MOL1        -0.6830
       3    O2      19.406128   17.303815   18.649831 O.co2      1 MOL1        -0.6830
       4    C2      19.466604   18.624024   20.590173 C.3        1 MOL1        -0.2050
       5    H1      18.430823   18.363086   20.837621 H          1 MOL1         0.0710
       6    H2      19.432432   19.547440   20.000006 H          1 MOL1         0.0710
       7    C3      20.271548   18.865923   21.894741 C.3        1 MOL1        -0.1947
       8    H3      20.306957   17.936019   22.479115 H          1 MOL1         0.0712
       9    H4      21.309587   19.121607   21.640635 H          1 MOL1         0.0712
      10    C4      19.653787   19.992647   22.749214 C.3        1 MOL1        -0.1921
      11    H5      18.616174   19.737370   23.005519 H          1 MOL1         0.0712
      12    H6      19.619397   20.923676   22.166545 H          1 MOL1         0.0712
      13    C5      20.457531   20.228143   24.043308 C.3        1 MOL1        -0.2936
      14    H7      20.481784   19.320856   24.661135 H          1 MOL1         0.0724
      15    H8      20.005184   21.031824   24.638808 H          1 MOL1         0.0724
      16    H9      21.492411   20.515915   23.815977 H          1 MOL1         0.0724
@<TRIPOS>BOND
    1     1     2    1
    2     1     3    2
    3     1     4    1
    4     4     5    1
    5     4     6    1
    6     4     7    1
    7     7     8    1
    8     7     9    1
    9     7    10    1
   10    10    11    1
   11    10    12    1
   12    10    13    1
   13    13    14    1
   14    13    15    1
   15    13    16    1
@<TRIPOS>SUBSTRUCTURE
       1 MOL1            1 RESIDUE      1      MOL     
@<SCITEGIC>MOL_PROPERTY
VConf Rank
SciTegic.value.IntegerValue
801

@<SCITEGIC>MOL_PROPERTY
Conf_Id
SciTegic.value.IntegerValue
0

@<SCITEGIC>MOL_PROPERTY
Delta U+W
SciTegic.value.DoubleValue
0.000

@<SCITEGIC>MOL_PROPERTY
U+W
SciTegic.value.DoubleValue
-56.904

@<SCITEGIC>MOL_PROPERTY
Grad RMS
SciTegic.value.DoubleValue
0.000000

@<SCITEGIC>MOL_PROPERTY
U
SciTegic.value.DoubleValue
7.329

@<SCITEGIC>MOL_PROPERTY
W
SciTegic.value.DoubleValue
-64.233

@<SCITEGIC>MOL_PROPERTY
W(PB)
SciTegic.value.DoubleValue
-66.148

@<SCITEGIC>MOL_PROPERTY
W(SA)
SciTegic.value.DoubleValue
1.915

@<SCITEGIC>MOL_PROPERTY
Valence
SciTegic.value.DoubleValue
6.755

@<SCITEGIC>MOL_PROPERTY
Coulomb
SciTegic.value.DoubleValue
-0.421

@<SCITEGIC>MOL_PROPERTY
VdW
SciTegic.value.DoubleValue
0.995

@<SCITEGIC>MOL_PROPERTY
VdW6
SciTegic.value.DoubleValue
-4.495

@<SCITEGIC>MOL_PROPERTY
VdW12
SciTegic.value.DoubleValue
5.490

@<SCITEGIC>MOL_PROPERTY
Bond
SciTegic.value.DoubleValue
0.106

@<SCITEGIC>MOL_PROPERTY
Angle
SciTegic.value.DoubleValue
2.715

@<SCITEGIC>MOL_PROPERTY
Pdih
SciTegic.value.DoubleValue
3.934

@<SCITEGIC>MOL_PROPERTY
Idih
SciTegic.value.DoubleValue
0.000

@<SCITEGIC>MOL_PROPERTY
Tether
SciTegic.value.DoubleValue
0.000

@<TRIPOS>MOLECULE
guest-s18_confgen4.mol2 : confsearch ligand conformer 802
          16          15           1
SMALL
USER_CHARGES
 
@<TRIPOS>ATOM
       1    C1      17.740520   20.272851   21.009644 C.2        1 MOL1         0.6075
       2    O1      16.847742   20.363326   21.828548 O.co2      1 MOL1        -0.6830
       3    O2      17.899355   21.060962   20.098877 O.co2      1 MOL1        -0.6830
       4    C2      18.726244   19.117353   21.142900 C.3        1 MOL1        -0.2050
       5    H1      19.056495   18.832997   20.136458 H          1 MOL1         0.0710
       6    H2      18.189548   18.257890   21.562578 H          1 MOL1         0.0710
       7    C3      19.948679   19.466848   22.026962 C.3        1 MOL1        -0.1947
       8    H3      20.468154   20.336390   21.600825 H          1 MOL1         0.0712
       9    H4      19.601168   19.761326   23.026998 H          1 MOL1         0.0712
      10    C4      20.929394   18.281617   22.145234 C.3        1 MOL1        -0.1921
      11    H5      21.277669   17.987278   21.145431 H          1 MOL1         0.0712
      12    H6      20.410445   17.412047   22.571940 H          1 MOL1         0.0712
      13    C5      22.143342   18.636600   23.026381 C.3        1 MOL1        -0.2936
      14    H7      21.825985   18.905022   24.042602 H          1 MOL1         0.0724
      15    H8      22.699601   19.484518   22.605568 H          1 MOL1         0.0724
      16    H9      22.830403   17.783567   23.100077 H          1 MOL1         0.0724
@<TRIPOS>BOND
    1     1     2    1
    2     1     3    2
    3     1     4    1
    4     4     5    1
    5     4     6    1
    6     4     7    1
    7     7     8    1
    8     7     9    1
    9     7    10    1
   10    10    11    1
   11    10    12    1
   12    10    13    1
   13    13    14    1
   14    13    15    1
   15    13    16    1
@<TRIPOS>SUBSTRUCTURE
       1 MOL1            1 RESIDUE      1      MOL     
@<SCITEGIC>MOL_PROPERTY
VConf Rank
SciTegic.value.IntegerValue
802

@<SCITEGIC>MOL_PROPERTY
Conf_Id
SciTegic.value.IntegerValue
22

@<SCITEGIC>MOL_PROPERTY
Delta U+W
SciTegic.value.DoubleValue
-1.185

@<SCITEGIC>MOL_PROPERTY
U+W
SciTegic.value.DoubleValue
-58.089

@<SCITEGIC>MOL_PROPERTY
Grad RMS
SciTegic.value.DoubleValue
0.000000

@<SCITEGIC>MOL_PROPERTY
U
SciTegic.value.DoubleValue
6.298

@<SCITEGIC>MOL_PROPERTY
W
SciTegic.value.DoubleValue
-64.387

@<SCITEGIC>MOL_PROPERTY
W(PB)
SciTegic.value.DoubleValue
-66.329

@<SCITEGIC>MOL_PROPERTY
W(SA)
SciTegic.value.DoubleValue
1.942

@<SCITEGIC>MOL_PROPERTY
Valence
SciTegic.value.DoubleValue
6.246

@<SCITEGIC>MOL_PROPERTY
Coulomb
SciTegic.value.DoubleValue
-0.408

@<SCITEGIC>MOL_PROPERTY
VdW
SciTegic.value.DoubleValue
0.460

@<SCITEGIC>MOL_PROPERTY
VdW6
SciTegic.value.DoubleValue
-4.207

@<SCITEGIC>MOL_PROPERTY
VdW12
SciTegic.value.DoubleValue
4.667

@<SCITEGIC>MOL_PROPERTY
Bond
SciTegic.value.DoubleValue
0.072

@<SCITEGIC>MOL_PROPERTY
Angle
SciTegic.value.DoubleValue
2.246

@<SCITEGIC>MOL_PROPERTY
Pdih
SciTegic.value.DoubleValue
3.928

@<SCITEGIC>MOL_PROPERTY
Idih
SciTegic.value.DoubleValue
0.001

@<SCITEGIC>MOL_PROPERTY
Tether
SciTegic.value.DoubleValue
0.000

@<TRIPOS>MOLECULE
guest-s18_confgen4.mol2 : confsearch ligand conformer 803
          16          15           1
SMALL
USER_CHARGES
 
@<TRIPOS>ATOM
       1    C1      18.846925   19.203884   19.654998 C.2        1 MOL1         0.6075
       2    O1      18.843027   18.242888   18.911717 O.co2      1 MOL1        -0.6830
       3    O2      18.679118   20.346102   19.276664 O.co2      1 MOL1        -0.6830
       4    C2      19.095926   18.965061   21.140102 C.3        1 MOL1        -0.2050
       5    H1      18.676893   17.986229   21.402523 H          1 MOL1         0.0710
       6    H2      18.532356   19.720508   21.699393 H          1 MOL1         0.0710
       7    C3      20.600022   19.019877   21.513844 C.3        1 MOL1        -0.1947
       8    H3      21.148549   18.313513   20.875411 H          1 MOL1         0.0712
       9    H4      20.998188   20.018306   21.286004 H          1 MOL1         0.0712
      10    C4      20.879395   18.671586   22.994064 C.3        1 MOL1        -0.1921
      11    H5      21.966515   18.626085   23.147066 H          1 MOL1         0.0712
      12    H6      20.491723   17.668350   23.219029 H          1 MOL1         0.0712
      13    C5      20.279904   19.693679   23.983443 C.3        1 MOL1        -0.2936
      14    H7      19.183363   19.691921   23.946344 H          1 MOL1         0.0724
      15    H8      20.631040   20.709516   23.759776 H          1 MOL1         0.0724
      16    H9      20.577772   19.452066   25.011989 H          1 MOL1         0.0724
@<TRIPOS>BOND
    1     1     2    1
    2     1     3    2
    3     1     4    1
    4     4     5    1
    5     4     6    1
    6     4     7    1
    7     7     8    1
    8     7     9    1
    9     7    10    1
   10    10    11    1
   11    10    12    1
   12    10    13    1
   13    13    14    1
   14    13    15    1
   15    13    16    1
@<TRIPOS>SUBSTRUCTURE
       1 MOL1            1 RESIDUE      1      MOL     
@<SCITEGIC>MOL_PROPERTY
VConf Rank
SciTegic.value.IntegerValue
803

@<SCITEGIC>MOL_PROPERTY
Conf_Id
SciTegic.value.IntegerValue
36

@<SCITEGIC>MOL_PROPERTY
Delta U+W
SciTegic.value.DoubleValue
-0.427

@<SCITEGIC>MOL_PROPERTY
U+W
SciTegic.value.DoubleValue
-57.331

@<SCITEGIC>MOL_PROPERTY
Grad RMS
SciTegic.value.DoubleValue
0.000000

@<SCITEGIC>MOL_PROPERTY
U
SciTegic.value.DoubleValue
7.263

@<SCITEGIC>MOL_PROPERTY
W
SciTegic.value.DoubleValue
-64.594

@<SCITEGIC>MOL_PROPERTY
W(PB)
SciTegic.value.DoubleValue
-66.513

@<SCITEGIC>MOL_PROPERTY
W(SA)
SciTegic.value.DoubleValue
1.920

@<SCITEGIC>MOL_PROPERTY
Valence
SciTegic.value.DoubleValue
6.734

@<SCITEGIC>MOL_PROPERTY
Coulomb
SciTegic.value.DoubleValue
-0.068

@<SCITEGIC>MOL_PROPERTY
VdW
SciTegic.value.DoubleValue
0.598

@<SCITEGIC>MOL_PROPERTY
VdW6
SciTegic.value.DoubleValue
-4.819

@<SCITEGIC>MOL_PROPERTY
VdW12
SciTegic.value.DoubleValue
5.417

@<SCITEGIC>MOL_PROPERTY
Bond
SciTegic.value.DoubleValue
0.107

@<SCITEGIC>MOL_PROPERTY
Angle
SciTegic.value.DoubleValue
2.469

@<SCITEGIC>MOL_PROPERTY
Pdih
SciTegic.value.DoubleValue
4.157

@<SCITEGIC>MOL_PROPERTY
Idih
SciTegic.value.DoubleValue
0.001

@<SCITEGIC>MOL_PROPERTY
Tether
SciTegic.value.DoubleValue
0.000

@<TRIPOS>MOLECULE
guest-s18_confgen4.mol2 : confsearch ligand conformer 804
          16          15           1
SMALL
USER_CHARGES
 
@<TRIPOS>ATOM
       1    C1      19.542453   20.804334   20.051216 C.2        1 MOL1         0.6075
       2    O1      20.547250   20.971163   19.389017 O.co2      1 MOL1        -0.6830
       3    O2      18.599305   21.570121   20.045003 O.co2      1 MOL1        -0.6830
       4    C2      19.468990   19.578151   20.954350 C.3        1 MOL1        -0.2050
       5    H1      20.023178   18.768937   20.465304 H          1 MOL1         0.0710
       6    H2      18.420404   19.263192   21.016272 H          1 MOL1         0.0710
       7    C3      20.031946   19.843240   22.374844 C.3        1 MOL1        -0.1947
       8    H3      21.093832   20.116328   22.303230 H          1 MOL1         0.0712
       9    H4      19.515457   20.713655   22.802682 H          1 MOL1         0.0712
      10    C4      19.864812   18.644309   23.336634 C.3        1 MOL1        -0.1921
      11    H5      18.801700   18.378543   23.417507 H          1 MOL1         0.0712
      12    H6      20.185847   18.950513   24.341862 H          1 MOL1         0.0712
      13    C5      20.679003   17.404002   22.910415 C.3        1 MOL1        -0.2936
      14    H7      20.315810   16.993191   21.960094 H          1 MOL1         0.0724
      15    H8      20.597209   16.612917   23.667054 H          1 MOL1         0.0724
      16    H9      21.742092   17.652543   22.794999 H          1 MOL1         0.0724
@<TRIPOS>BOND
    1     1     2    1
    2     1     3    2
    3     1     4    1
    4     4     5    1
    5     4     6    1
    6     4     7    1
    7     7     8    1
    8     7     9    1
    9     7    10    1
   10    10    11    1
   11    10    12    1
   12    10    13    1
   13    13    14    1
   14    13    15    1
   15    13    16    1
@<TRIPOS>SUBSTRUCTURE
       1 MOL1            1 RESIDUE      1      MOL     
@<SCITEGIC>MOL_PROPERTY
VConf Rank
SciTegic.value.IntegerValue
804

@<SCITEGIC>MOL_PROPERTY
Conf_Id
SciTegic.value.IntegerValue
17

@<SCITEGIC>MOL_PROPERTY
Delta U+W
SciTegic.value.DoubleValue
-0.432

@<SCITEGIC>MOL_PROPERTY
U+W
SciTegic.value.DoubleValue
-57.336

@<SCITEGIC>MOL_PROPERTY
Grad RMS
SciTegic.value.DoubleValue
0.000000

@<SCITEGIC>MOL_PROPERTY
U
SciTegic.value.DoubleValue
7.263

@<SCITEGIC>MOL_PROPERTY
W
SciTegic.value.DoubleValue
-64.599

@<SCITEGIC>MOL_PROPERTY
W(PB)
SciTegic.value.DoubleValue
-66.503

@<SCITEGIC>MOL_PROPERTY
W(SA)
SciTegic.value.DoubleValue
1.904

@<SCITEGIC>MOL_PROPERTY
Valence
SciTegic.value.DoubleValue
6.734

@<SCITEGIC>MOL_PROPERTY
Coulomb
SciTegic.value.DoubleValue
-0.068

@<SCITEGIC>MOL_PROPERTY
VdW
SciTegic.value.DoubleValue
0.598

@<SCITEGIC>MOL_PROPERTY
VdW6
SciTegic.value.DoubleValue
-4.819

@<SCITEGIC>MOL_PROPERTY
VdW12
SciTegic.value.DoubleValue
5.417

@<SCITEGIC>MOL_PROPERTY
Bond
SciTegic.value.DoubleValue
0.107

@<SCITEGIC>MOL_PROPERTY
Angle
SciTegic.value.DoubleValue
2.469

@<SCITEGIC>MOL_PROPERTY
Pdih
SciTegic.value.DoubleValue
4.157

@<SCITEGIC>MOL_PROPERTY
Idih
SciTegic.value.DoubleValue
0.001

@<SCITEGIC>MOL_PROPERTY
Tether
SciTegic.value.DoubleValue
0.000

@<TRIPOS>MOLECULE
guest-s18_confgen4.mol2 : confsearch ligand conformer 805
          16          15           1
SMALL
USER_CHARGES
 
@<TRIPOS>ATOM
       1    C1      20.517493   20.582584   20.255661 C.2        1 MOL1         0.6075
       2    O1      21.641842   20.506078   19.801427 O.co2      1 MOL1        -0.6830
       3    O2      19.513557   20.543068   19.572424 O.co2      1 MOL1        -0.6830
       4    C2      20.360921   20.762041   21.763233 C.3        1 MOL1        -0.2050
       5    H1      19.357743   21.155944   21.967091 H          1 MOL1         0.0710
       6    H2      21.074145   21.533149   22.077777 H          1 MOL1         0.0710
       7    C3      20.604006   19.467895   22.582458 C.3        1 MOL1        -0.1947
       8    H3      21.600631   19.069439   22.346671 H          1 MOL1         0.0712
       9    H4      20.608644   19.718640   23.651880 H          1 MOL1         0.0712
      10    C4      19.532914   18.387627   22.317948 C.3        1 MOL1        -0.1921
      11    H5      19.533112   18.113751   21.253657 H          1 MOL1         0.0712
      12    H6      18.535939   18.791471   22.542286 H          1 MOL1         0.0712
      13    C5      19.778765   17.126055   23.169028 C.3        1 MOL1        -0.2936
      14    H7      20.757652   16.683895   22.941598 H          1 MOL1         0.0724
      15    H8      19.009873   16.368610   22.968531 H          1 MOL1         0.0724
      16    H9      19.749864   17.363034   24.240672 H          1 MOL1         0.0724
@<TRIPOS>BOND
    1     1     2    1
    2     1     3    2
    3     1     4    1
    4     4     5    1
    5     4     6    1
    6     4     7    1
    7     7     8    1
    8     7     9    1
    9     7    10    1
   10    10    11    1
   11    10    12    1
   12    10    13    1
   13    13    14    1
   14    13    15    1
   15    13    16    1
@<TRIPOS>SUBSTRUCTURE
       1 MOL1            1 RESIDUE      1      MOL     
@<SCITEGIC>MOL_PROPERTY
VConf Rank
SciTegic.value.IntegerValue
805

@<SCITEGIC>MOL_PROPERTY
Conf_Id
SciTegic.value.IntegerValue
19

@<SCITEGIC>MOL_PROPERTY
Delta U+W
SciTegic.value.DoubleValue
0.048

@<SCITEGIC>MOL_PROPERTY
U+W
SciTegic.value.DoubleValue
-56.856

@<SCITEGIC>MOL_PROPERTY
Grad RMS
SciTegic.value.DoubleValue
0.000000

@<SCITEGIC>MOL_PROPERTY
U
SciTegic.value.DoubleValue
8.276

@<SCITEGIC>MOL_PROPERTY
W
SciTegic.value.DoubleValue
-65.132

@<SCITEGIC>MOL_PROPERTY
W(PB)
SciTegic.value.DoubleValue
-67.031

@<SCITEGIC>MOL_PROPERTY
W(SA)
SciTegic.value.DoubleValue
1.899

@<SCITEGIC>MOL_PROPERTY
Valence
SciTegic.value.DoubleValue
6.513

@<SCITEGIC>MOL_PROPERTY
Coulomb
SciTegic.value.DoubleValue
1.428

@<SCITEGIC>MOL_PROPERTY
VdW
SciTegic.value.DoubleValue
0.335

@<SCITEGIC>MOL_PROPERTY
VdW6
SciTegic.value.DoubleValue
-5.021

@<SCITEGIC>MOL_PROPERTY
VdW12
SciTegic.value.DoubleValue
5.356

@<SCITEGIC>MOL_PROPERTY
Bond
SciTegic.value.DoubleValue
0.092

@<SCITEGIC>MOL_PROPERTY
Angle
SciTegic.value.DoubleValue
2.417

@<SCITEGIC>MOL_PROPERTY
Pdih
SciTegic.value.DoubleValue
4.003

@<SCITEGIC>MOL_PROPERTY
Idih
SciTegic.value.DoubleValue
0.001

@<SCITEGIC>MOL_PROPERTY
Tether
SciTegic.value.DoubleValue
0.000

@<TRIPOS>MOLECULE
guest-s18_confgen4.mol2 : confsearch ligand conformer 806
          16          15           1
SMALL
USER_CHARGES
 
@<TRIPOS>ATOM
       1    C1      20.071257   18.571206   24.374033 C.2        1 MOL1         0.6075
       2    O1      21.220220   18.549930   24.768717 O.co2      1 MOL1        -0.6830
       3    O2      19.277721   17.672158   24.569671 O.co2      1 MOL1        -0.6830
       4    C2      19.594673   19.804787   23.612033 C.3        1 MOL1        -0.2050
       5    H1      19.943791   20.686095   24.163076 H          1 MOL1         0.0710
       6    H2      18.498363   19.829728   23.635869 H          1 MOL1         0.0710
       7    C3      20.099582   19.877280   22.147501 C.3        1 MOL1        -0.1947
       8    H3      19.827866   20.854023   21.724768 H          1 MOL1         0.0712
       9    H4      21.197093   19.822568   22.137552 H          1 MOL1         0.0712
      10    C4      19.512149   18.758043   21.260697 C.3        1 MOL1        -0.1921
      11    H5      18.414599   18.806320   21.281489 H          1 MOL1         0.0712
      12    H6      19.795031   17.775222   21.662898 H          1 MOL1         0.0712
      13    C5      20.003190   18.873271   19.804005 C.3        1 MOL1        -0.2936
      14    H7      19.704547   19.833476   19.363285 H          1 MOL1         0.0724
      15    H8      19.577507   18.070549   19.187931 H          1 MOL1         0.0724
      16    H9      21.097209   18.797021   19.751495 H          1 MOL1         0.0724
@<TRIPOS>BOND
    1     1     2    1
    2     1     3    2
    3     1     4    1
    4     4     5    1
    5     4     6    1
    6     4     7    1
    7     7     8    1
    8     7     9    1
    9     7    10    1
   10    10    11    1
   11    10    12    1
   12    10    13    1
   13    13    14    1
   14    13    15    1
   15    13    16    1
@<TRIPOS>SUBSTRUCTURE
       1 MOL1            1 RESIDUE      1      MOL     
@<SCITEGIC>MOL_PROPERTY
VConf Rank
SciTegic.value.IntegerValue
806

@<SCITEGIC>MOL_PROPERTY
Conf_Id
SciTegic.value.IntegerValue
20

@<SCITEGIC>MOL_PROPERTY
Delta U+W
SciTegic.value.DoubleValue
-0.010

@<SCITEGIC>MOL_PROPERTY
U+W
SciTegic.value.DoubleValue
-56.914

@<SCITEGIC>MOL_PROPERTY
Grad RMS
SciTegic.value.DoubleValue
0.000000

@<SCITEGIC>MOL_PROPERTY
U
SciTegic.value.DoubleValue
8.277

@<SCITEGIC>MOL_PROPERTY
W
SciTegic.value.DoubleValue
-65.191

@<SCITEGIC>MOL_PROPERTY
W(PB)
SciTegic.value.DoubleValue
-67.081

@<SCITEGIC>MOL_PROPERTY
W(SA)
SciTegic.value.DoubleValue
1.890

@<SCITEGIC>MOL_PROPERTY
Valence
SciTegic.value.DoubleValue
6.513

@<SCITEGIC>MOL_PROPERTY
Coulomb
SciTegic.value.DoubleValue
1.429

@<SCITEGIC>MOL_PROPERTY
VdW
SciTegic.value.DoubleValue
0.335

@<SCITEGIC>MOL_PROPERTY
VdW6
SciTegic.value.DoubleValue
-5.021

@<SCITEGIC>MOL_PROPERTY
VdW12
SciTegic.value.DoubleValue
5.356

@<SCITEGIC>MOL_PROPERTY
Bond
SciTegic.value.DoubleValue
0.092

@<SCITEGIC>MOL_PROPERTY
Angle
SciTegic.value.DoubleValue
2.417

@<SCITEGIC>MOL_PROPERTY
Pdih
SciTegic.value.DoubleValue
4.002

@<SCITEGIC>MOL_PROPERTY
Idih
SciTegic.value.DoubleValue
0.001

@<SCITEGIC>MOL_PROPERTY
Tether
SciTegic.value.DoubleValue
0.000

@<TRIPOS>MOLECULE
guest-s18_confgen4.mol2 : confsearch ligand conformer 807
          16          15           1
SMALL
USER_CHARGES
 
@<TRIPOS>ATOM
       1    C1      21.406788   18.122846   23.248039 C.2        1 MOL1         0.6075
       2    O1      22.343535   17.574096   22.701995 O.co2      1 MOL1        -0.6830
       3    O2      20.752426   17.608958   24.133493 O.co2      1 MOL1        -0.6830
       4    C2      21.057526   19.545856   22.820482 C.3        1 MOL1        -0.2050
       5    H1      21.984965   20.129929   22.844888 H          1 MOL1         0.0710
       6    H2      20.393749   19.986558   23.573096 H          1 MOL1         0.0710
       7    C3      20.424828   19.647600   21.405554 C.3        1 MOL1        -0.1947
       8    H3      20.281800   20.706258   21.150295 H          1 MOL1         0.0712
       9    H4      21.137181   19.247203   20.670986 H          1 MOL1         0.0712
      10    C4      19.078070   18.901108   21.253958 C.3        1 MOL1        -0.1921
      11    H5      19.215199   17.833031   21.473061 H          1 MOL1         0.0712
      12    H6      18.757102   18.962709   20.205000 H          1 MOL1         0.0712
      13    C5      17.960303   19.473872   22.151165 C.3        1 MOL1        -0.2936
      14    H7      18.185450   19.320446   23.214300 H          1 MOL1         0.0724
      15    H8      17.005385   18.975771   21.939300 H          1 MOL1         0.0724
      16    H9      17.827294   20.549506   21.976847 H          1 MOL1         0.0724
@<TRIPOS>BOND
    1     1     2    1
    2     1     3    2
    3     1     4    1
    4     4     5    1
    5     4     6    1
    6     4     7    1
    7     7     8    1
    8     7     9    1
    9     7    10    1
   10    10    11    1
   11    10    12    1
   12    10    13    1
   13    13    14    1
   14    13    15    1
   15    13    16    1
@<TRIPOS>SUBSTRUCTURE
       1 MOL1            1 RESIDUE      1      MOL     
@<SCITEGIC>MOL_PROPERTY
VConf Rank
SciTegic.value.IntegerValue
807

@<SCITEGIC>MOL_PROPERTY
Conf_Id
SciTegic.value.IntegerValue
37

@<SCITEGIC>MOL_PROPERTY
Delta U+W
SciTegic.value.DoubleValue
1.063

@<SCITEGIC>MOL_PROPERTY
U+W
SciTegic.value.DoubleValue
-55.841

@<SCITEGIC>MOL_PROPERTY
Grad RMS
SciTegic.value.DoubleValue
0.000000

@<SCITEGIC>MOL_PROPERTY
U
SciTegic.value.DoubleValue
9.719

@<SCITEGIC>MOL_PROPERTY
W
SciTegic.value.DoubleValue
-65.560

@<SCITEGIC>MOL_PROPERTY
W(PB)
SciTegic.value.DoubleValue
-67.414

@<SCITEGIC>MOL_PROPERTY
W(SA)
SciTegic.value.DoubleValue
1.854

@<SCITEGIC>MOL_PROPERTY
Valence
SciTegic.value.DoubleValue
7.002

@<SCITEGIC>MOL_PROPERTY
Coulomb
SciTegic.value.DoubleValue
2.402

@<SCITEGIC>MOL_PROPERTY
VdW
SciTegic.value.DoubleValue
0.314

@<SCITEGIC>MOL_PROPERTY
VdW6
SciTegic.value.DoubleValue
-5.861

@<SCITEGIC>MOL_PROPERTY
VdW12
SciTegic.value.DoubleValue
6.175

@<SCITEGIC>MOL_PROPERTY
Bond
SciTegic.value.DoubleValue
0.134

@<SCITEGIC>MOL_PROPERTY
Angle
SciTegic.value.DoubleValue
2.733

@<SCITEGIC>MOL_PROPERTY
Pdih
SciTegic.value.DoubleValue
4.133

@<SCITEGIC>MOL_PROPERTY
Idih
SciTegic.value.DoubleValue
0.002

@<SCITEGIC>MOL_PROPERTY
Tether
SciTegic.value.DoubleValue
0.000

@<TRIPOS>MOLECULE
guest-s18_confgen4.mol2 : confsearch ligand conformer 808
          16          15           1
SMALL
USER_CHARGES
 
@<TRIPOS>ATOM
       1    C1      19.012647   19.392055   20.360048 C.2        1 MOL1         0.6075
       2    O1      19.455120   19.125890   19.259976 O.co2      1 MOL1        -0.6830
       3    O2      17.906523   19.058473   20.736230 O.co2      1 MOL1        -0.6830
       4    C2      19.881131   20.219011   21.304308 C.3        1 MOL1        -0.2050
       5    H1      19.253169   20.598312   22.118582 H          1 MOL1         0.0710
       6    H2      20.226427   21.096180   20.744641 H          1 MOL1         0.0710
       7    C3      21.109910   19.455936   21.870434 C.3        1 MOL1        -0.1947
       8    H3      21.744351   19.137343   21.031782 H          1 MOL1         0.0712
       9    H4      21.717298   20.146472   22.470942 H          1 MOL1         0.0712
      10    C4      20.752704   18.216970   22.725630 C.3        1 MOL1        -0.1921
      11    H5      21.682175   17.703255   23.007247 H          1 MOL1         0.0712
      12    H6      20.173894   17.501581   22.124968 H          1 MOL1         0.0712
      13    C5      19.969503   18.568126   24.008489 C.3        1 MOL1        -0.2936
      14    H7      20.510949   19.309546   24.610318 H          1 MOL1         0.0724
      15    H8      19.823176   17.672380   24.625812 H          1 MOL1         0.0724
      16    H9      18.977323   18.972619   23.770892 H          1 MOL1         0.0724
@<TRIPOS>BOND
    1     1     2    1
    2     1     3    2
    3     1     4    1
    4     4     5    1
    5     4     6    1
    6     4     7    1
    7     7     8    1
    8     7     9    1
    9     7    10    1
   10    10    11    1
   11    10    12    1
   12    10    13    1
   13    13    14    1
   14    13    15    1
   15    13    16    1
@<TRIPOS>SUBSTRUCTURE
       1 MOL1            1 RESIDUE      1      MOL     
@<SCITEGIC>MOL_PROPERTY
VConf Rank
SciTegic.value.IntegerValue
808

@<SCITEGIC>MOL_PROPERTY
Conf_Id
SciTegic.value.IntegerValue
39

@<SCITEGIC>MOL_PROPERTY
Delta U+W
SciTegic.value.DoubleValue
1.129

@<SCITEGIC>MOL_PROPERTY
U+W
SciTegic.value.DoubleValue
-55.775

@<SCITEGIC>MOL_PROPERTY
Grad RMS
SciTegic.value.DoubleValue
0.000000

@<SCITEGIC>MOL_PROPERTY
U
SciTegic.value.DoubleValue
9.718

@<SCITEGIC>MOL_PROPERTY
W
SciTegic.value.DoubleValue
-65.493

@<SCITEGIC>MOL_PROPERTY
W(PB)
SciTegic.value.DoubleValue
-67.361

@<SCITEGIC>MOL_PROPERTY
W(SA)
SciTegic.value.DoubleValue
1.869

@<SCITEGIC>MOL_PROPERTY
Valence
SciTegic.value.DoubleValue
7.002

@<SCITEGIC>MOL_PROPERTY
Coulomb
SciTegic.value.DoubleValue
2.402

@<SCITEGIC>MOL_PROPERTY
VdW
SciTegic.value.DoubleValue
0.314

@<SCITEGIC>MOL_PROPERTY
VdW6
SciTegic.value.DoubleValue
-5.861

@<SCITEGIC>MOL_PROPERTY
VdW12
SciTegic.value.DoubleValue
6.175

@<SCITEGIC>MOL_PROPERTY
Bond
SciTegic.value.DoubleValue
0.134

@<SCITEGIC>MOL_PROPERTY
Angle
SciTegic.value.DoubleValue
2.734

@<SCITEGIC>MOL_PROPERTY
Pdih
SciTegic.value.DoubleValue
4.133

@<SCITEGIC>MOL_PROPERTY
Idih
SciTegic.value.DoubleValue
0.002

@<SCITEGIC>MOL_PROPERTY
Tether
SciTegic.value.DoubleValue
0.000

@<TRIPOS>MOLECULE
guest-s18_confgen4.mol2 : confsearch ligand conformer 809
          16          15           1
SMALL
USER_CHARGES
 
@<TRIPOS>ATOM
       1    C1      20.267723   21.040420   22.327010 C.2        1 MOL1         0.6075
       2    O1      21.399138   21.263946   22.710100 O.co2      1 MOL1        -0.6830
       3    O2      19.287837   21.607374   22.769214 O.co2      1 MOL1        -0.6830
       4    C2      20.078755   20.062702   21.168557 C.3        1 MOL1        -0.2050
       5    H1      21.061998   19.705135   20.839380 H          1 MOL1         0.0710
       6    H2      19.663000   20.644820   20.337873 H          1 MOL1         0.0710
       7    C3      19.139190   18.859189   21.461401 C.3        1 MOL1        -0.1947
       8    H3      18.235656   19.207243   21.981041 H          1 MOL1         0.0712
       9    H4      18.797788   18.453781   20.499351 H          1 MOL1         0.0712
      10    C4      19.796061   17.703419   22.254040 C.3        1 MOL1        -0.1921
      11    H5      20.699895   17.359692   21.732344 H          1 MOL1         0.0712
      12    H6      19.102728   16.851078   22.263892 H          1 MOL1         0.0712
      13    C5      20.144951   18.066435   23.712390 C.3        1 MOL1        -0.2936
      14    H7      20.957908   18.801322   23.757559 H          1 MOL1         0.0724
      15    H8      20.475177   17.175188   24.261386 H          1 MOL1         0.0724
      16    H9      19.273484   18.483074   24.234202 H          1 MOL1         0.0724
@<TRIPOS>BOND
    1     1     2    1
    2     1     3    2
    3     1     4    1
    4     4     5    1
    5     4     6    1
    6     4     7    1
    7     7     8    1
    8     7     9    1
    9     7    10    1
   10    10    11    1
   11    10    12    1
   12    10    13    1
   13    13    14    1
   14    13    15    1
   15    13    16    1
@<TRIPOS>SUBSTRUCTURE
       1 MOL1            1 RESIDUE      1      MOL     
@<SCITEGIC>MOL_PROPERTY
VConf Rank
SciTegic.value.IntegerValue
809

@<SCITEGIC>MOL_PROPERTY
Conf_Id
SciTegic.value.IntegerValue
47

@<SCITEGIC>MOL_PROPERTY
Delta U+W
SciTegic.value.DoubleValue
2.301

@<SCITEGIC>MOL_PROPERTY
U+W
SciTegic.value.DoubleValue
-54.603

@<SCITEGIC>MOL_PROPERTY
Grad RMS
SciTegic.value.DoubleValue
0.000000

@<SCITEGIC>MOL_PROPERTY
U
SciTegic.value.DoubleValue
11.258

@<SCITEGIC>MOL_PROPERTY
W
SciTegic.value.DoubleValue
-65.861

@<SCITEGIC>MOL_PROPERTY
W(PB)
SciTegic.value.DoubleValue
-67.702

@<SCITEGIC>MOL_PROPERTY
W(SA)
SciTegic.value.DoubleValue
1.841

@<SCITEGIC>MOL_PROPERTY
Valence
SciTegic.value.DoubleValue
8.169

@<SCITEGIC>MOL_PROPERTY
Coulomb
SciTegic.value.DoubleValue
2.735

@<SCITEGIC>MOL_PROPERTY
VdW
SciTegic.value.DoubleValue
0.355

@<SCITEGIC>MOL_PROPERTY
VdW6
SciTegic.value.DoubleValue
-6.245

@<SCITEGIC>MOL_PROPERTY
VdW12
SciTegic.value.DoubleValue
6.600

@<SCITEGIC>MOL_PROPERTY
Bond
SciTegic.value.DoubleValue
0.149

@<SCITEGIC>MOL_PROPERTY
Angle
SciTegic.value.DoubleValue
3.168

@<SCITEGIC>MOL_PROPERTY
Pdih
SciTegic.value.DoubleValue
4.840

@<SCITEGIC>MOL_PROPERTY
Idih
SciTegic.value.DoubleValue
0.011

@<SCITEGIC>MOL_PROPERTY
Tether
SciTegic.value.DoubleValue
0.000

@<TRIPOS>MOLECULE
guest-s18_confgen4.mol2 : confsearch ligand conformer 810
          16          15           1
SMALL
USER_CHARGES
 
@<TRIPOS>ATOM
       1    C1      21.662028   18.262553   22.527997 C.2        1 MOL1         0.6075
       2    O1      22.003692   17.745754   21.482366 O.co2      1 MOL1        -0.6830
       3    O2      21.728198   17.701536   23.603961 O.co2      1 MOL1        -0.6830
       4    C2      21.211134   19.721901   22.502231 C.3        1 MOL1        -0.2050
       5    H1      22.067344   20.303306   22.140814 H          1 MOL1         0.0710
       6    H2      21.018144   20.053951   23.529595 H          1 MOL1         0.0710
       7    C3      19.980866   20.021386   21.600158 C.3        1 MOL1        -0.1947
       8    H3      19.979370   21.096435   21.374942 H          1 MOL1         0.0712
       9    H4      20.091543   19.509782   20.633953 H          1 MOL1         0.0712
      10    C4      18.613121   19.670141   22.233767 C.3        1 MOL1        -0.1921
      11    H5      17.818541   20.066099   21.586345 H          1 MOL1         0.0712
      12    H6      18.507179   20.182015   23.200201 H          1 MOL1         0.0712
      13    C5      18.382407   18.156122   22.420320 C.3        1 MOL1        -0.2936
      14    H7      17.350468   17.961507   22.739688 H          1 MOL1         0.0724
      15    H8      19.048342   17.742091   23.187203 H          1 MOL1         0.0724
      16    H9      18.555777   17.612437   21.482408 H          1 MOL1         0.0724
@<TRIPOS>BOND
    1     1     2    1
    2     1     3    2
    3     1     4    1
    4     4     5    1
    5     4     6    1
    6     4     7    1
    7     7     8    1
    8     7     9    1
    9     7    10    1
   10    10    11    1
   11    10    12    1
   12    10    13    1
   13    13    14    1
   14    13    15    1
   15    13    16    1
@<TRIPOS>SUBSTRUCTURE
       1 MOL1            1 RESIDUE      1      MOL     
@<SCITEGIC>MOL_PROPERTY
VConf Rank
SciTegic.value.IntegerValue
810

@<SCITEGIC>MOL_PROPERTY
Conf_Id
SciTegic.value.IntegerValue
45

@<SCITEGIC>MOL_PROPERTY
Delta U+W
SciTegic.value.DoubleValue
2.303

@<SCITEGIC>MOL_PROPERTY
U+W
SciTegic.value.DoubleValue
-54.601

@<SCITEGIC>MOL_PROPERTY
Grad RMS
SciTegic.value.DoubleValue
0.000000

@<SCITEGIC>MOL_PROPERTY
U
SciTegic.value.DoubleValue
11.258

@<SCITEGIC>MOL_PROPERTY
W
SciTegic.value.DoubleValue
-65.860

@<SCITEGIC>MOL_PROPERTY
W(PB)
SciTegic.value.DoubleValue
-67.709

@<SCITEGIC>MOL_PROPERTY
W(SA)
SciTegic.value.DoubleValue
1.849

@<SCITEGIC>MOL_PROPERTY
Valence
SciTegic.value.DoubleValue
8.169

@<SCITEGIC>MOL_PROPERTY
Coulomb
SciTegic.value.DoubleValue
2.735

@<SCITEGIC>MOL_PROPERTY
VdW
SciTegic.value.DoubleValue
0.355

@<SCITEGIC>MOL_PROPERTY
VdW6
SciTegic.value.DoubleValue
-6.245

@<SCITEGIC>MOL_PROPERTY
VdW12
SciTegic.value.DoubleValue
6.600

@<SCITEGIC>MOL_PROPERTY
Bond
SciTegic.value.DoubleValue
0.149

@<SCITEGIC>MOL_PROPERTY
Angle
SciTegic.value.DoubleValue
3.168

@<SCITEGIC>MOL_PROPERTY
Pdih
SciTegic.value.DoubleValue
4.840

@<SCITEGIC>MOL_PROPERTY
Idih
SciTegic.value.DoubleValue
0.011

@<SCITEGIC>MOL_PROPERTY
Tether
SciTegic.value.DoubleValue
0.000

@<TRIPOS>MOLECULE
guest-s18_confgen4.mol2 : confsearch ligand conformer 811
          16          15           1
SMALL
USER_CHARGES
 
@<TRIPOS>ATOM
       1    C1      19.715696   20.367776   19.483088 C.2        1 MOL1         0.6075
       2    O1      19.173842   19.417273   18.953263 O.co2      1 MOL1        -0.6830
       3    O2      19.942539   21.409639   18.901386 O.co2      1 MOL1        -0.6830
       4    C2      20.143925   20.278859   20.948901 C.3        1 MOL1        -0.2050
       5    H1      19.647792   21.096576   21.484952 H          1 MOL1         0.0710
       6    H2      21.221550   20.477323   20.987635 H          1 MOL1         0.0710
       7    C3      19.834544   18.929444   21.650122 C.3        1 MOL1        -0.1947
       8    H3      18.754331   18.733426   21.603356 H          1 MOL1         0.0712
       9    H4      20.329722   18.113544   21.105536 H          1 MOL1         0.0712
      10    C4      20.299019   18.928101   23.121693 C.3        1 MOL1        -0.1921
      11    H5      19.803182   19.742539   23.667894 H          1 MOL1         0.0712
      12    H6      21.379518   19.122286   23.169789 H          1 MOL1         0.0712
      13    C5      19.989046   17.585465   23.812625 C.3        1 MOL1        -0.2936
      14    H7      18.910403   17.380610   23.806781 H          1 MOL1         0.0724
      15    H8      20.325454   17.601344   24.857479 H          1 MOL1         0.0724
      16    H9      20.498367   16.755778   23.305005 H          1 MOL1         0.0724
@<TRIPOS>BOND
    1     1     2    1
    2     1     3    2
    3     1     4    1
    4     4     5    1
    5     4     6    1
    6     4     7    1
    7     7     8    1
    8     7     9    1
    9     7    10    1
   10    10    11    1
   11    10    12    1
   12    10    13    1
   13    13    14    1
   14    13    15    1
   15    13    16    1
@<TRIPOS>SUBSTRUCTURE
       1 MOL1            1 RESIDUE      1      MOL     
@<SCITEGIC>MOL_PROPERTY
VConf Rank
SciTegic.value.IntegerValue
811

@<SCITEGIC>MOL_PROPERTY
Conf_Id
SciTegic.value.IntegerValue
0

@<SCITEGIC>MOL_PROPERTY
Delta U+W
SciTegic.value.DoubleValue
0.000

@<SCITEGIC>MOL_PROPERTY
U+W
SciTegic.value.DoubleValue
-56.904

@<SCITEGIC>MOL_PROPERTY
Grad RMS
SciTegic.value.DoubleValue
0.000000

@<SCITEGIC>MOL_PROPERTY
U
SciTegic.value.DoubleValue
7.329

@<SCITEGIC>MOL_PROPERTY
W
SciTegic.value.DoubleValue
-64.233

@<SCITEGIC>MOL_PROPERTY
W(PB)
SciTegic.value.DoubleValue
-66.148

@<SCITEGIC>MOL_PROPERTY
W(SA)
SciTegic.value.DoubleValue
1.915

@<SCITEGIC>MOL_PROPERTY
Valence
SciTegic.value.DoubleValue
6.755

@<SCITEGIC>MOL_PROPERTY
Coulomb
SciTegic.value.DoubleValue
-0.421

@<SCITEGIC>MOL_PROPERTY
VdW
SciTegic.value.DoubleValue
0.995

@<SCITEGIC>MOL_PROPERTY
VdW6
SciTegic.value.DoubleValue
-4.495

@<SCITEGIC>MOL_PROPERTY
VdW12
SciTegic.value.DoubleValue
5.490

@<SCITEGIC>MOL_PROPERTY
Bond
SciTegic.value.DoubleValue
0.106

@<SCITEGIC>MOL_PROPERTY
Angle
SciTegic.value.DoubleValue
2.715

@<SCITEGIC>MOL_PROPERTY
Pdih
SciTegic.value.DoubleValue
3.934

@<SCITEGIC>MOL_PROPERTY
Idih
SciTegic.value.DoubleValue
0.000

@<SCITEGIC>MOL_PROPERTY
Tether
SciTegic.value.DoubleValue
0.000

@<TRIPOS>MOLECULE
guest-s18_confgen4.mol2 : confsearch ligand conformer 812
          16          15           1
SMALL
USER_CHARGES
 
@<TRIPOS>ATOM
       1    C1      21.926877   20.826544   22.938118 C.2        1 MOL1         0.6075
       2    O1      23.044450   20.665574   22.489830 O.co2      1 MOL1        -0.6830
       3    O2      21.498915   21.902382   23.305902 O.co2      1 MOL1        -0.6830
       4    C2      21.004804   19.615577   23.027121 C.3        1 MOL1        -0.2050
       5    H1      20.348035   19.750055   23.895118 H          1 MOL1         0.0710
       6    H2      21.622232   18.730375   23.222186 H          1 MOL1         0.0710
       7    C3      20.160294   19.405617   21.746192 C.3        1 MOL1        -0.1947
       8    H3      19.557261   20.304672   21.557508 H          1 MOL1         0.0712
       9    H4      20.831515   19.285013   20.884525 H          1 MOL1         0.0712
      10    C4      19.236951   18.174976   21.862490 C.3        1 MOL1        -0.1921
      11    H5      18.565093   18.295514   22.723661 H          1 MOL1         0.0712
      12    H6      19.839677   17.275591   22.050544 H          1 MOL1         0.0712
      13    C5      18.399641   17.972197   20.584251 C.3        1 MOL1        -0.2936
      14    H7      19.047008   17.817718   19.711025 H          1 MOL1         0.0724
      15    H8      17.763027   18.845186   20.389101 H          1 MOL1         0.0724
      16    H9      17.748964   17.093603   20.683449 H          1 MOL1         0.0724
@<TRIPOS>BOND
    1     1     2    1
    2     1     3    2
    3     1     4    1
    4     4     5    1
    5     4     6    1
    6     4     7    1
    7     7     8    1
    8     7     9    1
    9     7    10    1
   10    10    11    1
   11    10    12    1
   12    10    13    1
   13    13    14    1
   14    13    15    1
   15    13    16    1
@<TRIPOS>SUBSTRUCTURE
       1 MOL1            1 RESIDUE      1      MOL     
@<SCITEGIC>MOL_PROPERTY
VConf Rank
SciTegic.value.IntegerValue
812

@<SCITEGIC>MOL_PROPERTY
Conf_Id
SciTegic.value.IntegerValue
22

@<SCITEGIC>MOL_PROPERTY
Delta U+W
SciTegic.value.DoubleValue
-1.185

@<SCITEGIC>MOL_PROPERTY
U+W
SciTegic.value.DoubleValue
-58.089

@<SCITEGIC>MOL_PROPERTY
Grad RMS
SciTegic.value.DoubleValue
0.000000

@<SCITEGIC>MOL_PROPERTY
U
SciTegic.value.DoubleValue
6.298

@<SCITEGIC>MOL_PROPERTY
W
SciTegic.value.DoubleValue
-64.387

@<SCITEGIC>MOL_PROPERTY
W(PB)
SciTegic.value.DoubleValue
-66.329

@<SCITEGIC>MOL_PROPERTY
W(SA)
SciTegic.value.DoubleValue
1.942

@<SCITEGIC>MOL_PROPERTY
Valence
SciTegic.value.DoubleValue
6.246

@<SCITEGIC>MOL_PROPERTY
Coulomb
SciTegic.value.DoubleValue
-0.408

@<SCITEGIC>MOL_PROPERTY
VdW
SciTegic.value.DoubleValue
0.460

@<SCITEGIC>MOL_PROPERTY
VdW6
SciTegic.value.DoubleValue
-4.207

@<SCITEGIC>MOL_PROPERTY
VdW12
SciTegic.value.DoubleValue
4.667

@<SCITEGIC>MOL_PROPERTY
Bond
SciTegic.value.DoubleValue
0.072

@<SCITEGIC>MOL_PROPERTY
Angle
SciTegic.value.DoubleValue
2.246

@<SCITEGIC>MOL_PROPERTY
Pdih
SciTegic.value.DoubleValue
3.928

@<SCITEGIC>MOL_PROPERTY
Idih
SciTegic.value.DoubleValue
0.001

@<SCITEGIC>MOL_PROPERTY
Tether
SciTegic.value.DoubleValue
0.000

@<TRIPOS>MOLECULE
guest-s18_confgen4.mol2 : confsearch ligand conformer 813
          16          15           1
SMALL
USER_CHARGES
 
@<TRIPOS>ATOM
       1    C1      17.928550   17.744699   21.219484 C.2        1 MOL1         0.6075
       2    O1      16.786693   18.147078   21.320721 O.co2      1 MOL1        -0.6830
       3    O2      18.219448   16.570211   21.110330 O.co2      1 MOL1        -0.6830
       4    C2      19.058489   18.767827   21.251397 C.3        1 MOL1        -0.2050
       5    H1      18.690721   19.695581   20.796880 H          1 MOL1         0.0710
       6    H2      19.867663   18.392369   20.614698 H          1 MOL1         0.0710
       7    C3      19.577958   19.045139   22.686055 C.3        1 MOL1        -0.1947
       8    H3      18.728233   19.335490   23.319374 H          1 MOL1         0.0712
       9    H4      19.982606   18.117997   23.114980 H          1 MOL1         0.0712
      10    C4      20.647629   20.159729   22.748497 C.3        1 MOL1        -0.1921
      11    H5      20.879480   20.368093   23.802128 H          1 MOL1         0.0712
      12    H6      20.239226   21.090185   22.330360 H          1 MOL1         0.0712
      13    C5      21.954723   19.790699   22.014837 C.3        1 MOL1        -0.2936
      14    H7      21.791960   19.683824   20.935083 H          1 MOL1         0.0724
      15    H8      22.366725   18.847451   22.396658 H          1 MOL1         0.0724
      16    H9      22.710613   20.573199   22.160886 H          1 MOL1         0.0724
@<TRIPOS>BOND
    1     1     2    1
    2     1     3    2
    3     1     4    1
    4     4     5    1
    5     4     6    1
    6     4     7    1
    7     7     8    1
    8     7     9    1
    9     7    10    1
   10    10    11    1
   11    10    12    1
   12    10    13    1
   13    13    14    1
   14    13    15    1
   15    13    16    1
@<TRIPOS>SUBSTRUCTURE
       1 MOL1            1 RESIDUE      1      MOL     
@<SCITEGIC>MOL_PROPERTY
VConf Rank
SciTegic.value.IntegerValue
813

@<SCITEGIC>MOL_PROPERTY
Conf_Id
SciTegic.value.IntegerValue
36

@<SCITEGIC>MOL_PROPERTY
Delta U+W
SciTegic.value.DoubleValue
-0.427

@<SCITEGIC>MOL_PROPERTY
U+W
SciTegic.value.DoubleValue
-57.331

@<SCITEGIC>MOL_PROPERTY
Grad RMS
SciTegic.value.DoubleValue
0.000000

@<SCITEGIC>MOL_PROPERTY
U
SciTegic.value.DoubleValue
7.263

@<SCITEGIC>MOL_PROPERTY
W
SciTegic.value.DoubleValue
-64.594

@<SCITEGIC>MOL_PROPERTY
W(PB)
SciTegic.value.DoubleValue
-66.513

@<SCITEGIC>MOL_PROPERTY
W(SA)
SciTegic.value.DoubleValue
1.920

@<SCITEGIC>MOL_PROPERTY
Valence
SciTegic.value.DoubleValue
6.734

@<SCITEGIC>MOL_PROPERTY
Coulomb
SciTegic.value.DoubleValue
-0.068

@<SCITEGIC>MOL_PROPERTY
VdW
SciTegic.value.DoubleValue
0.598

@<SCITEGIC>MOL_PROPERTY
VdW6
SciTegic.value.DoubleValue
-4.819

@<SCITEGIC>MOL_PROPERTY
VdW12
SciTegic.value.DoubleValue
5.417

@<SCITEGIC>MOL_PROPERTY
Bond
SciTegic.value.DoubleValue
0.107

@<SCITEGIC>MOL_PROPERTY
Angle
SciTegic.value.DoubleValue
2.469

@<SCITEGIC>MOL_PROPERTY
Pdih
SciTegic.value.DoubleValue
4.157

@<SCITEGIC>MOL_PROPERTY
Idih
SciTegic.value.DoubleValue
0.001

@<SCITEGIC>MOL_PROPERTY
Tether
SciTegic.value.DoubleValue
0.000

@<TRIPOS>MOLECULE
guest-s18_confgen4.mol2 : confsearch ligand conformer 814
          16          15           1
SMALL
USER_CHARGES
 
@<TRIPOS>ATOM
       1    C1      21.782462   19.807330   20.271702 C.2        1 MOL1         0.6075
       2    O1      22.357174   20.822317   20.611503 O.co2      1 MOL1        -0.6830
       3    O2      21.790573   19.379669   19.134585 O.co2      1 MOL1        -0.6830
       4    C2      20.991473   19.039183   21.324726 C.3        1 MOL1        -0.2050
       5    H1      21.506320   19.161020   22.284520 H          1 MOL1         0.0710
       6    H2      21.028845   17.973579   21.068486 H          1 MOL1         0.0710
       7    C3      19.518238   19.511292   21.432825 C.3        1 MOL1        -0.1947
       8    H3      19.493052   20.568388   21.731528 H          1 MOL1         0.0712
       9    H4      19.056544   19.458706   20.437083 H          1 MOL1         0.0712
      10    C4      18.673180   18.670238   22.417158 C.3        1 MOL1        -0.1921
      11    H5      18.688639   17.614806   22.111862 H          1 MOL1         0.0712
      12    H6      17.626156   18.997109   22.352309 H          1 MOL1         0.0712
      13    C5      19.143289   18.793768   23.882309 C.3        1 MOL1        -0.2936
      14    H7      20.147333   18.372751   24.018040 H          1 MOL1         0.0724
      15    H8      18.462411   18.250897   24.550668 H          1 MOL1         0.0724
      16    H9      19.163600   19.844084   24.201175 H          1 MOL1         0.0724
@<TRIPOS>BOND
    1     1     2    1
    2     1     3    2
    3     1     4    1
    4     4     5    1
    5     4     6    1
    6     4     7    1
    7     7     8    1
    8     7     9    1
    9     7    10    1
   10    10    11    1
   11    10    12    1
   12    10    13    1
   13    13    14    1
   14    13    15    1
   15    13    16    1
@<TRIPOS>SUBSTRUCTURE
       1 MOL1            1 RESIDUE      1      MOL     
@<SCITEGIC>MOL_PROPERTY
VConf Rank
SciTegic.value.IntegerValue
814

@<SCITEGIC>MOL_PROPERTY
Conf_Id
SciTegic.value.IntegerValue
17

@<SCITEGIC>MOL_PROPERTY
Delta U+W
SciTegic.value.DoubleValue
-0.432

@<SCITEGIC>MOL_PROPERTY
U+W
SciTegic.value.DoubleValue
-57.336

@<SCITEGIC>MOL_PROPERTY
Grad RMS
SciTegic.value.DoubleValue
0.000000

@<SCITEGIC>MOL_PROPERTY
U
SciTegic.value.DoubleValue
7.263

@<SCITEGIC>MOL_PROPERTY
W
SciTegic.value.DoubleValue
-64.599

@<SCITEGIC>MOL_PROPERTY
W(PB)
SciTegic.value.DoubleValue
-66.503

@<SCITEGIC>MOL_PROPERTY
W(SA)
SciTegic.value.DoubleValue
1.904

@<SCITEGIC>MOL_PROPERTY
Valence
SciTegic.value.DoubleValue
6.734

@<SCITEGIC>MOL_PROPERTY
Coulomb
SciTegic.value.DoubleValue
-0.068

@<SCITEGIC>MOL_PROPERTY
VdW
SciTegic.value.DoubleValue
0.598

@<SCITEGIC>MOL_PROPERTY
VdW6
SciTegic.value.DoubleValue
-4.819

@<SCITEGIC>MOL_PROPERTY
VdW12
SciTegic.value.DoubleValue
5.417

@<SCITEGIC>MOL_PROPERTY
Bond
SciTegic.value.DoubleValue
0.107

@<SCITEGIC>MOL_PROPERTY
Angle
SciTegic.value.DoubleValue
2.469

@<SCITEGIC>MOL_PROPERTY
Pdih
SciTegic.value.DoubleValue
4.157

@<SCITEGIC>MOL_PROPERTY
Idih
SciTegic.value.DoubleValue
0.001

@<SCITEGIC>MOL_PROPERTY
Tether
SciTegic.value.DoubleValue
0.000

@<TRIPOS>MOLECULE
guest-s18_confgen4.mol2 : confsearch ligand conformer 815
          16          15           1
SMALL
USER_CHARGES
 
@<TRIPOS>ATOM
       1    C1      20.052762   19.090730   24.456619 C.2        1 MOL1         0.6075
       2    O1      18.923462   19.047020   24.902839 O.co2      1 MOL1        -0.6830
       3    O2      20.946201   18.350803   24.817918 O.co2      1 MOL1        -0.6830
       4    C2      20.369964   20.148523   23.403078 C.3        1 MOL1        -0.2050
       5    H1      21.456913   20.290586   23.365079 H          1 MOL1         0.0710
       6    H2      19.938454   21.095479   23.748486 H          1 MOL1         0.0710
       7    C3      19.824235   19.816691   21.989889 C.3        1 MOL1        -0.1947
       8    H3      18.739761   19.649020   22.048413 H          1 MOL1         0.0712
       9    H4      19.974849   20.686605   21.336343 H          1 MOL1         0.0712
      10    C4      20.510841   18.584178   21.362459 C.3        1 MOL1        -0.1921
      11    H5      20.349275   17.702335   21.998047 H          1 MOL1         0.0712
      12    H6      21.596340   18.748228   21.316021 H          1 MOL1         0.0712
      13    C5      19.974401   18.296923   19.946104 C.3        1 MOL1        -0.2936
      14    H7      18.894759   18.098590   19.968146 H          1 MOL1         0.0724
      15    H8      20.471723   17.418210   19.515232 H          1 MOL1         0.0724
      16    H9      20.153161   19.149362   19.277666 H          1 MOL1         0.0724
@<TRIPOS>BOND
    1     1     2    1
    2     1     3    2
    3     1     4    1
    4     4     5    1
    5     4     6    1
    6     4     7    1
    7     7     8    1
    8     7     9    1
    9     7    10    1
   10    10    11    1
   11    10    12    1
   12    10    13    1
   13    13    14    1
   14    13    15    1
   15    13    16    1
@<TRIPOS>SUBSTRUCTURE
       1 MOL1            1 RESIDUE      1      MOL     
@<SCITEGIC>MOL_PROPERTY
VConf Rank
SciTegic.value.IntegerValue
815

@<SCITEGIC>MOL_PROPERTY
Conf_Id
SciTegic.value.IntegerValue
19

@<SCITEGIC>MOL_PROPERTY
Delta U+W
SciTegic.value.DoubleValue
0.048

@<SCITEGIC>MOL_PROPERTY
U+W
SciTegic.value.DoubleValue
-56.856

@<SCITEGIC>MOL_PROPERTY
Grad RMS
SciTegic.value.DoubleValue
0.000000

@<SCITEGIC>MOL_PROPERTY
U
SciTegic.value.DoubleValue
8.276

@<SCITEGIC>MOL_PROPERTY
W
SciTegic.value.DoubleValue
-65.132

@<SCITEGIC>MOL_PROPERTY
W(PB)
SciTegic.value.DoubleValue
-67.031

@<SCITEGIC>MOL_PROPERTY
W(SA)
SciTegic.value.DoubleValue
1.899

@<SCITEGIC>MOL_PROPERTY
Valence
SciTegic.value.DoubleValue
6.513

@<SCITEGIC>MOL_PROPERTY
Coulomb
SciTegic.value.DoubleValue
1.428

@<SCITEGIC>MOL_PROPERTY
VdW
SciTegic.value.DoubleValue
0.335

@<SCITEGIC>MOL_PROPERTY
VdW6
SciTegic.value.DoubleValue
-5.021

@<SCITEGIC>MOL_PROPERTY
VdW12
SciTegic.value.DoubleValue
5.356

@<SCITEGIC>MOL_PROPERTY
Bond
SciTegic.value.DoubleValue
0.092

@<SCITEGIC>MOL_PROPERTY
Angle
SciTegic.value.DoubleValue
2.417

@<SCITEGIC>MOL_PROPERTY
Pdih
SciTegic.value.DoubleValue
4.003

@<SCITEGIC>MOL_PROPERTY
Idih
SciTegic.value.DoubleValue
0.001

@<SCITEGIC>MOL_PROPERTY
Tether
SciTegic.value.DoubleValue
0.000

@<TRIPOS>MOLECULE
guest-s18_confgen4.mol2 : confsearch ligand conformer 816
          16          15           1
SMALL
USER_CHARGES
 
@<TRIPOS>ATOM
       1    C1      18.558836   18.506170   23.953602 C.2        1 MOL1         0.6075
       2    O1      17.587195   19.211867   24.138658 O.co2      1 MOL1        -0.6830
       3    O2      19.341544   18.198444   24.830491 O.co2      1 MOL1        -0.6830
       4    C2      18.793794   17.958873   22.548341 C.3        1 MOL1        -0.2050
       5    H1      17.832804   17.582966   22.177630 H          1 MOL1         0.0710
       6    H2      19.466989   17.095583   22.616342 H          1 MOL1         0.0710
       7    C3      19.360660   19.001844   21.550383 C.3        1 MOL1        -0.1947
       8    H3      19.365715   18.564802   20.542648 H          1 MOL1         0.0712
       9    H4      18.691196   19.872551   21.514188 H          1 MOL1         0.0712
      10    C4      20.790594   19.456442   21.914826 C.3        1 MOL1        -0.1921
      11    H5      21.456122   18.583429   21.962775 H          1 MOL1         0.0712
      12    H6      20.794031   19.914343   22.913845 H          1 MOL1         0.0712
      13    C5      21.342379   20.466413   20.889232 C.3        1 MOL1        -0.2936
      14    H7      21.383273   20.024380   19.885066 H          1 MOL1         0.0724
      15    H8      22.358179   20.779740   21.163265 H          1 MOL1         0.0724
      16    H9      20.711486   21.363829   20.843728 H          1 MOL1         0.0724
@<TRIPOS>BOND
    1     1     2    1
    2     1     3    2
    3     1     4    1
    4     4     5    1
    5     4     6    1
    6     4     7    1
    7     7     8    1
    8     7     9    1
    9     7    10    1
   10    10    11    1
   11    10    12    1
   12    10    13    1
   13    13    14    1
   14    13    15    1
   15    13    16    1
@<TRIPOS>SUBSTRUCTURE
       1 MOL1            1 RESIDUE      1      MOL     
@<SCITEGIC>MOL_PROPERTY
VConf Rank
SciTegic.value.IntegerValue
816

@<SCITEGIC>MOL_PROPERTY
Conf_Id
SciTegic.value.IntegerValue
20

@<SCITEGIC>MOL_PROPERTY
Delta U+W
SciTegic.value.DoubleValue
-0.010

@<SCITEGIC>MOL_PROPERTY
U+W
SciTegic.value.DoubleValue
-56.914

@<SCITEGIC>MOL_PROPERTY
Grad RMS
SciTegic.value.DoubleValue
0.000000

@<SCITEGIC>MOL_PROPERTY
U
SciTegic.value.DoubleValue
8.277

@<SCITEGIC>MOL_PROPERTY
W
SciTegic.value.DoubleValue
-65.191

@<SCITEGIC>MOL_PROPERTY
W(PB)
SciTegic.value.DoubleValue
-67.081

@<SCITEGIC>MOL_PROPERTY
W(SA)
SciTegic.value.DoubleValue
1.890

@<SCITEGIC>MOL_PROPERTY
Valence
SciTegic.value.DoubleValue
6.513

@<SCITEGIC>MOL_PROPERTY
Coulomb
SciTegic.value.DoubleValue
1.429

@<SCITEGIC>MOL_PROPERTY
VdW
SciTegic.value.DoubleValue
0.335

@<SCITEGIC>MOL_PROPERTY
VdW6
SciTegic.value.DoubleValue
-5.021

@<SCITEGIC>MOL_PROPERTY
VdW12
SciTegic.value.DoubleValue
5.356

@<SCITEGIC>MOL_PROPERTY
Bond
SciTegic.value.DoubleValue
0.092

@<SCITEGIC>MOL_PROPERTY
Angle
SciTegic.value.DoubleValue
2.417

@<SCITEGIC>MOL_PROPERTY
Pdih
SciTegic.value.DoubleValue
4.002

@<SCITEGIC>MOL_PROPERTY
Idih
SciTegic.value.DoubleValue
0.001

@<SCITEGIC>MOL_PROPERTY
Tether
SciTegic.value.DoubleValue
0.000

@<TRIPOS>MOLECULE
guest-s18_confgen4.mol2 : confsearch ligand conformer 817
          16          15           1
SMALL
USER_CHARGES
 
@<TRIPOS>ATOM
       1    C1      21.286939   19.066277   23.779520 C.2        1 MOL1         0.6075
       2    O1      20.967687   19.074746   24.952035 O.co2      1 MOL1        -0.6830
       3    O2      22.181668   19.750281   23.323559 O.co2      1 MOL1        -0.6830
       4    C2      20.545674   18.120247   22.838617 C.3        1 MOL1        -0.2050
       5    H1      20.552031   17.127527   23.303750 H          1 MOL1         0.0710
       6    H2      21.117392   18.030151   21.907882 H          1 MOL1         0.0710
       7    C3      19.079284   18.537977   22.542174 C.3        1 MOL1        -0.1947
       8    H3      18.601625   17.763642   21.926853 H          1 MOL1         0.0712
       9    H4      18.522261   18.566119   23.488899 H          1 MOL1         0.0712
      10    C4      18.936468   19.907974   21.837405 C.3        1 MOL1        -0.1921
      11    H5      19.380193   20.697399   22.459912 H          1 MOL1         0.0712
      12    H6      17.868195   20.148671   21.748042 H          1 MOL1         0.0712
      13    C5      19.573082   19.938596   20.431622 C.3        1 MOL1        -0.2936
      14    H7      20.663308   19.824782   20.485866 H          1 MOL1         0.0724
      15    H8      19.363922   20.895729   19.936638 H          1 MOL1         0.0724
      16    H9      19.171872   19.135629   19.799687 H          1 MOL1         0.0724
@<TRIPOS>BOND
    1     1     2    1
    2     1     3    2
    3     1     4    1
    4     4     5    1
    5     4     6    1
    6     4     7    1
    7     7     8    1
    8     7     9    1
    9     7    10    1
   10    10    11    1
   11    10    12    1
   12    10    13    1
   13    13    14    1
   14    13    15    1
   15    13    16    1
@<TRIPOS>SUBSTRUCTURE
       1 MOL1            1 RESIDUE      1      MOL     
@<SCITEGIC>MOL_PROPERTY
VConf Rank
SciTegic.value.IntegerValue
817

@<SCITEGIC>MOL_PROPERTY
Conf_Id
SciTegic.value.IntegerValue
37

@<SCITEGIC>MOL_PROPERTY
Delta U+W
SciTegic.value.DoubleValue
1.063

@<SCITEGIC>MOL_PROPERTY
U+W
SciTegic.value.DoubleValue
-55.841

@<SCITEGIC>MOL_PROPERTY
Grad RMS
SciTegic.value.DoubleValue
0.000000

@<SCITEGIC>MOL_PROPERTY
U
SciTegic.value.DoubleValue
9.719

@<SCITEGIC>MOL_PROPERTY
W
SciTegic.value.DoubleValue
-65.560

@<SCITEGIC>MOL_PROPERTY
W(PB)
SciTegic.value.DoubleValue
-67.414

@<SCITEGIC>MOL_PROPERTY
W(SA)
SciTegic.value.DoubleValue
1.854

@<SCITEGIC>MOL_PROPERTY
Valence
SciTegic.value.DoubleValue
7.002

@<SCITEGIC>MOL_PROPERTY
Coulomb
SciTegic.value.DoubleValue
2.402

@<SCITEGIC>MOL_PROPERTY
VdW
SciTegic.value.DoubleValue
0.314

@<SCITEGIC>MOL_PROPERTY
VdW6
SciTegic.value.DoubleValue
-5.861

@<SCITEGIC>MOL_PROPERTY
VdW12
SciTegic.value.DoubleValue
6.175

@<SCITEGIC>MOL_PROPERTY
Bond
SciTegic.value.DoubleValue
0.134

@<SCITEGIC>MOL_PROPERTY
Angle
SciTegic.value.DoubleValue
2.733

@<SCITEGIC>MOL_PROPERTY
Pdih
SciTegic.value.DoubleValue
4.133

@<SCITEGIC>MOL_PROPERTY
Idih
SciTegic.value.DoubleValue
0.002

@<SCITEGIC>MOL_PROPERTY
Tether
SciTegic.value.DoubleValue
0.000

@<TRIPOS>MOLECULE
guest-s18_confgen4.mol2 : confsearch ligand conformer 818
          16          15           1
SMALL
USER_CHARGES
 
@<TRIPOS>ATOM
       1    C1      21.920918   20.327080   22.041383 C.2        1 MOL1         0.6075
       2    O1      23.035875   19.849061   21.969603 O.co2      1 MOL1        -0.6830
       3    O2      21.531914   21.230670   21.328289 O.co2      1 MOL1        -0.6830
       4    C2      20.972876   19.785262   23.107871 C.3        1 MOL1        -0.2050
       5    H1      20.137048   20.484676   23.223889 H          1 MOL1         0.0710
       6    H2      21.516488   19.791082   24.059886 H          1 MOL1         0.0710
       7    C3      20.450582   18.350103   22.824664 C.3        1 MOL1        -0.1947
       8    H3      21.309344   17.666963   22.768066 H          1 MOL1         0.0712
       9    H4      19.844521   18.012837   23.676316 H          1 MOL1         0.0712
      10    C4      19.620642   18.218240   21.525509 C.3        1 MOL1        -0.1921
      11    H5      19.370476   17.159323   21.373066 H          1 MOL1         0.0712
      12    H6      20.228052   18.519957   20.660860 H          1 MOL1         0.0712
      13    C5      18.314167   19.039746   21.551818 C.3        1 MOL1        -0.2936
      14    H7      17.704194   18.782175   22.427407 H          1 MOL1         0.0724
      15    H8      17.717286   18.839924   20.652561 H          1 MOL1         0.0724
      16    H9      18.521914   20.117050   21.579112 H          1 MOL1         0.0724
@<TRIPOS>BOND
    1     1     2    1
    2     1     3    2
    3     1     4    1
    4     4     5    1
    5     4     6    1
    6     4     7    1
    7     7     8    1
    8     7     9    1
    9     7    10    1
   10    10    11    1
   11    10    12    1
   12    10    13    1
   13    13    14    1
   14    13    15    1
   15    13    16    1
@<TRIPOS>SUBSTRUCTURE
       1 MOL1            1 RESIDUE      1      MOL     
@<SCITEGIC>MOL_PROPERTY
VConf Rank
SciTegic.value.IntegerValue
818

@<SCITEGIC>MOL_PROPERTY
Conf_Id
SciTegic.value.IntegerValue
39

@<SCITEGIC>MOL_PROPERTY
Delta U+W
SciTegic.value.DoubleValue
1.129

@<SCITEGIC>MOL_PROPERTY
U+W
SciTegic.value.DoubleValue
-55.775

@<SCITEGIC>MOL_PROPERTY
Grad RMS
SciTegic.value.DoubleValue
0.000000

@<SCITEGIC>MOL_PROPERTY
U
SciTegic.value.DoubleValue
9.718

@<SCITEGIC>MOL_PROPERTY
W
SciTegic.value.DoubleValue
-65.493

@<SCITEGIC>MOL_PROPERTY
W(PB)
SciTegic.value.DoubleValue
-67.361

@<SCITEGIC>MOL_PROPERTY
W(SA)
SciTegic.value.DoubleValue
1.869

@<SCITEGIC>MOL_PROPERTY
Valence
SciTegic.value.DoubleValue
7.002

@<SCITEGIC>MOL_PROPERTY
Coulomb
SciTegic.value.DoubleValue
2.402

@<SCITEGIC>MOL_PROPERTY
VdW
SciTegic.value.DoubleValue
0.314

@<SCITEGIC>MOL_PROPERTY
VdW6
SciTegic.value.DoubleValue
-5.861

@<SCITEGIC>MOL_PROPERTY
VdW12
SciTegic.value.DoubleValue
6.175

@<SCITEGIC>MOL_PROPERTY
Bond
SciTegic.value.DoubleValue
0.134

@<SCITEGIC>MOL_PROPERTY
Angle
SciTegic.value.DoubleValue
2.734

@<SCITEGIC>MOL_PROPERTY
Pdih
SciTegic.value.DoubleValue
4.133

@<SCITEGIC>MOL_PROPERTY
Idih
SciTegic.value.DoubleValue
0.002

@<SCITEGIC>MOL_PROPERTY
Tether
SciTegic.value.DoubleValue
0.000

@<TRIPOS>MOLECULE
guest-s18_confgen4.mol2 : confsearch ligand conformer 819
          16          15           1
SMALL
USER_CHARGES
 
@<TRIPOS>ATOM
       1    C1      19.668246   17.950082   23.897520 C.2        1 MOL1         0.6075
       2    O1      20.665047   17.971164   24.592333 O.co2      1 MOL1        -0.6830
       3    O2      19.094950   16.926016   23.581645 O.co2      1 MOL1        -0.6830
       4    C2      19.054998   19.284167   23.475855 C.3        1 MOL1        -0.2050
       5    H1      19.646355   20.100973   23.907254 H          1 MOL1         0.0710
       6    H2      18.065762   19.331590   23.945870 H          1 MOL1         0.0710
       7    C3      18.895552   19.487129   21.942765 C.3        1 MOL1        -0.1947
       8    H3      18.486149   18.575905   21.484944 H          1 MOL1         0.0712
       9    H4      18.143533   20.271202   21.781060 H          1 MOL1         0.0712
      10    C4      20.189137   19.915477   21.208791 C.3        1 MOL1        -0.1921
      11    H5      20.596261   20.825506   21.670664 H          1 MOL1         0.0712
      12    H6      19.929457   20.183803   20.175417 H          1 MOL1         0.0712
      13    C5      21.276416   18.821543   21.171115 C.3        1 MOL1        -0.2936
      14    H7      21.689110   18.633967   22.169863 H          1 MOL1         0.0724
      15    H8      22.107523   19.128465   20.523174 H          1 MOL1         0.0724
      16    H9      20.872791   17.877830   20.781471 H          1 MOL1         0.0724
@<TRIPOS>BOND
    1     1     2    1
    2     1     3    2
    3     1     4    1
    4     4     5    1
    5     4     6    1
    6     4     7    1
    7     7     8    1
    8     7     9    1
    9     7    10    1
   10    10    11    1
   11    10    12    1
   12    10    13    1
   13    13    14    1
   14    13    15    1
   15    13    16    1
@<TRIPOS>SUBSTRUCTURE
       1 MOL1            1 RESIDUE      1      MOL     
@<SCITEGIC>MOL_PROPERTY
VConf Rank
SciTegic.value.IntegerValue
819

@<SCITEGIC>MOL_PROPERTY
Conf_Id
SciTegic.value.IntegerValue
47

@<SCITEGIC>MOL_PROPERTY
Delta U+W
SciTegic.value.DoubleValue
2.301

@<SCITEGIC>MOL_PROPERTY
U+W
SciTegic.value.DoubleValue
-54.603

@<SCITEGIC>MOL_PROPERTY
Grad RMS
SciTegic.value.DoubleValue
0.000000

@<SCITEGIC>MOL_PROPERTY
U
SciTegic.value.DoubleValue
11.258

@<SCITEGIC>MOL_PROPERTY
W
SciTegic.value.DoubleValue
-65.861

@<SCITEGIC>MOL_PROPERTY
W(PB)
SciTegic.value.DoubleValue
-67.702

@<SCITEGIC>MOL_PROPERTY
W(SA)
SciTegic.value.DoubleValue
1.841

@<SCITEGIC>MOL_PROPERTY
Valence
SciTegic.value.DoubleValue
8.169

@<SCITEGIC>MOL_PROPERTY
Coulomb
SciTegic.value.DoubleValue
2.735

@<SCITEGIC>MOL_PROPERTY
VdW
SciTegic.value.DoubleValue
0.355

@<SCITEGIC>MOL_PROPERTY
VdW6
SciTegic.value.DoubleValue
-6.245

@<SCITEGIC>MOL_PROPERTY
VdW12
SciTegic.value.DoubleValue
6.600

@<SCITEGIC>MOL_PROPERTY
Bond
SciTegic.value.DoubleValue
0.149

@<SCITEGIC>MOL_PROPERTY
Angle
SciTegic.value.DoubleValue
3.168

@<SCITEGIC>MOL_PROPERTY
Pdih
SciTegic.value.DoubleValue
4.840

@<SCITEGIC>MOL_PROPERTY
Idih
SciTegic.value.DoubleValue
0.011

@<SCITEGIC>MOL_PROPERTY
Tether
SciTegic.value.DoubleValue
0.000

@<TRIPOS>MOLECULE
guest-s18_confgen4.mol2 : confsearch ligand conformer 820
          16          15           1
SMALL
USER_CHARGES
 
@<TRIPOS>ATOM
       1    C1      18.672080   20.527435   21.536677 C.2        1 MOL1         0.6075
       2    O1      18.244797   20.157369   20.460740 O.co2      1 MOL1        -0.6830
       3    O2      19.130001   21.636639   21.728491 O.co2      1 MOL1        -0.6830
       4    C2      18.545254   19.583272   22.730887 C.3        1 MOL1        -0.2050
       5    H1      17.472544   19.407921   22.873338 H          1 MOL1         0.0710
       6    H2      18.901015   20.097714   23.631866 H          1 MOL1         0.0710
       7    C3      19.264072   18.213680   22.574352 C.3        1 MOL1        -0.1947
       8    H3      18.816606   17.512127   23.291325 H          1 MOL1         0.0712
       9    H4      19.063212   17.797095   21.577530 H          1 MOL1         0.0712
      10    C4      20.788802   18.249310   22.837965 C.3        1 MOL1        -0.1921
      11    H5      21.161912   17.216033   22.858506 H          1 MOL1         0.0712
      12    H6      20.985434   18.668044   23.834573 H          1 MOL1         0.0712
      13    C5      21.586986   19.036104   21.777709 C.3        1 MOL1        -0.2936
      14    H7      22.665570   18.909882   21.937374 H          1 MOL1         0.0724
      15    H8      21.369602   20.109904   21.829652 H          1 MOL1         0.0724
      16    H9      21.350270   18.684488   20.764960 H          1 MOL1         0.0724
@<TRIPOS>BOND
    1     1     2    1
    2     1     3    2
    3     1     4    1
    4     4     5    1
    5     4     6    1
    6     4     7    1
    7     7     8    1
    8     7     9    1
    9     7    10    1
   10    10    11    1
   11    10    12    1
   12    10    13    1
   13    13    14    1
   14    13    15    1
   15    13    16    1
@<TRIPOS>SUBSTRUCTURE
       1 MOL1            1 RESIDUE      1      MOL     
@<SCITEGIC>MOL_PROPERTY
VConf Rank
SciTegic.value.IntegerValue
820

@<SCITEGIC>MOL_PROPERTY
Conf_Id
SciTegic.value.IntegerValue
45

@<SCITEGIC>MOL_PROPERTY
Delta U+W
SciTegic.value.DoubleValue
2.303

@<SCITEGIC>MOL_PROPERTY
U+W
SciTegic.value.DoubleValue
-54.601

@<SCITEGIC>MOL_PROPERTY
Grad RMS
SciTegic.value.DoubleValue
0.000000

@<SCITEGIC>MOL_PROPERTY
U
SciTegic.value.DoubleValue
11.258

@<SCITEGIC>MOL_PROPERTY
W
SciTegic.value.DoubleValue
-65.860

@<SCITEGIC>MOL_PROPERTY
W(PB)
SciTegic.value.DoubleValue
-67.709

@<SCITEGIC>MOL_PROPERTY
W(SA)
SciTegic.value.DoubleValue
1.849

@<SCITEGIC>MOL_PROPERTY
Valence
SciTegic.value.DoubleValue
8.169

@<SCITEGIC>MOL_PROPERTY
Coulomb
SciTegic.value.DoubleValue
2.735

@<SCITEGIC>MOL_PROPERTY
VdW
SciTegic.value.DoubleValue
0.355

@<SCITEGIC>MOL_PROPERTY
VdW6
SciTegic.value.DoubleValue
-6.245

@<SCITEGIC>MOL_PROPERTY
VdW12
SciTegic.value.DoubleValue
6.600

@<SCITEGIC>MOL_PROPERTY
Bond
SciTegic.value.DoubleValue
0.149

@<SCITEGIC>MOL_PROPERTY
Angle
SciTegic.value.DoubleValue
3.168

@<SCITEGIC>MOL_PROPERTY
Pdih
SciTegic.value.DoubleValue
4.840

@<SCITEGIC>MOL_PROPERTY
Idih
SciTegic.value.DoubleValue
0.011

@<SCITEGIC>MOL_PROPERTY
Tether
SciTegic.value.DoubleValue
0.000

@<TRIPOS>MOLECULE
guest-s18_confgen4.mol2 : confsearch ligand conformer 821
          16          15           1
SMALL
USER_CHARGES
 
@<TRIPOS>ATOM
       1    C1      17.278835   19.059006   22.394143 C.2        1 MOL1         0.6075
       2    O1      17.268746   20.088837   23.039993 O.co2      1 MOL1        -0.6830
       3    O2      16.278563   18.406679   22.172241 O.co2      1 MOL1        -0.6830
       4    C2      18.596343   18.533875   21.821165 C.3        1 MOL1        -0.2050
       5    H1      18.468409   18.443727   20.735962 H          1 MOL1         0.0710
       6    H2      18.742236   17.519978   22.212180 H          1 MOL1         0.0710
       7    C3      19.846668   19.399398   22.130850 C.3        1 MOL1        -0.1947
       8    H3      19.692415   20.415347   21.741592 H          1 MOL1         0.0712
       9    H4      19.966529   19.490630   23.219325 H          1 MOL1         0.0712
      10    C4      21.127629   18.797101   21.516329 C.3        1 MOL1        -0.1921
      11    H5      21.009744   18.706953   20.427533 H          1 MOL1         0.0712
      12    H6      21.284032   17.781679   21.906145 H          1 MOL1         0.0712
      13    C5      22.365785   19.661056   21.827282 C.3        1 MOL1        -0.2936
      14    H7      22.249681   20.674391   21.420907 H          1 MOL1         0.0724
      15    H8      23.267314   19.219030   21.383434 H          1 MOL1         0.0724
      16    H9      22.525998   19.742294   22.910426 H          1 MOL1         0.0724
@<TRIPOS>BOND
    1     1     2    1
    2     1     3    2
    3     1     4    1
    4     4     5    1
    5     4     6    1
    6     4     7    1
    7     7     8    1
    8     7     9    1
    9     7    10    1
   10    10    11    1
   11    10    12    1
   12    10    13    1
   13    13    14    1
   14    13    15    1
   15    13    16    1
@<TRIPOS>SUBSTRUCTURE
       1 MOL1            1 RESIDUE      1      MOL     
@<SCITEGIC>MOL_PROPERTY
VConf Rank
SciTegic.value.IntegerValue
821

@<SCITEGIC>MOL_PROPERTY
Conf_Id
SciTegic.value.IntegerValue
0

@<SCITEGIC>MOL_PROPERTY
Delta U+W
SciTegic.value.DoubleValue
0.000

@<SCITEGIC>MOL_PROPERTY
U+W
SciTegic.value.DoubleValue
-56.904

@<SCITEGIC>MOL_PROPERTY
Grad RMS
SciTegic.value.DoubleValue
0.000000

@<SCITEGIC>MOL_PROPERTY
U
SciTegic.value.DoubleValue
7.329

@<SCITEGIC>MOL_PROPERTY
W
SciTegic.value.DoubleValue
-64.233

@<SCITEGIC>MOL_PROPERTY
W(PB)
SciTegic.value.DoubleValue
-66.148

@<SCITEGIC>MOL_PROPERTY
W(SA)
SciTegic.value.DoubleValue
1.915

@<SCITEGIC>MOL_PROPERTY
Valence
SciTegic.value.DoubleValue
6.755

@<SCITEGIC>MOL_PROPERTY
Coulomb
SciTegic.value.DoubleValue
-0.421

@<SCITEGIC>MOL_PROPERTY
VdW
SciTegic.value.DoubleValue
0.995

@<SCITEGIC>MOL_PROPERTY
VdW6
SciTegic.value.DoubleValue
-4.495

@<SCITEGIC>MOL_PROPERTY
VdW12
SciTegic.value.DoubleValue
5.490

@<SCITEGIC>MOL_PROPERTY
Bond
SciTegic.value.DoubleValue
0.106

@<SCITEGIC>MOL_PROPERTY
Angle
SciTegic.value.DoubleValue
2.715

@<SCITEGIC>MOL_PROPERTY
Pdih
SciTegic.value.DoubleValue
3.934

@<SCITEGIC>MOL_PROPERTY
Idih
SciTegic.value.DoubleValue
0.000

@<SCITEGIC>MOL_PROPERTY
Tether
SciTegic.value.DoubleValue
0.000

@<TRIPOS>MOLECULE
guest-s18_confgen4.mol2 : confsearch ligand conformer 822
          16          15           1
SMALL
USER_CHARGES
 
@<TRIPOS>ATOM
       1    C1      21.615279   21.277540   21.365273 C.2        1 MOL1         0.6075
       2    O1      21.302249   22.304422   21.933928 O.co2      1 MOL1        -0.6830
       3    O2      22.756892   21.003436   21.053137 O.co2      1 MOL1        -0.6830
       4    C2      20.517988   20.269594   21.041885 C.3        1 MOL1        -0.2050
       5    H1      20.792808   19.751941   20.114868 H          1 MOL1         0.0710
       6    H2      19.593525   20.824505   20.841155 H          1 MOL1         0.0710
       7    C3      20.288368   19.243198   22.178479 C.3        1 MOL1        -0.1947
       8    H3      21.225615   18.704618   22.376093 H          1 MOL1         0.0712
       9    H4      20.026343   19.777233   23.102438 H          1 MOL1         0.0712
      10    C4      19.174031   18.235916   21.826062 C.3        1 MOL1        -0.1921
      11    H5      19.436014   17.701179   20.902504 H          1 MOL1         0.0712
      12    H6      18.236434   18.774077   21.628998 H          1 MOL1         0.0712
      13    C5      18.951012   17.217645   22.961617 C.3        1 MOL1        -0.2936
      14    H7      18.656897   17.723487   23.890644 H          1 MOL1         0.0724
      15    H8      19.865346   16.642681   23.158800 H          1 MOL1         0.0724
      16    H9      18.155942   16.509123   22.695139 H          1 MOL1         0.0724
@<TRIPOS>BOND
    1     1     2    1
    2     1     3    2
    3     1     4    1
    4     4     5    1
    5     4     6    1
    6     4     7    1
    7     7     8    1
    8     7     9    1
    9     7    10    1
   10    10    11    1
   11    10    12    1
   12    10    13    1
   13    13    14    1
   14    13    15    1
   15    13    16    1
@<TRIPOS>SUBSTRUCTURE
       1 MOL1            1 RESIDUE      1      MOL     
@<SCITEGIC>MOL_PROPERTY
VConf Rank
SciTegic.value.IntegerValue
822

@<SCITEGIC>MOL_PROPERTY
Conf_Id
SciTegic.value.IntegerValue
22

@<SCITEGIC>MOL_PROPERTY
Delta U+W
SciTegic.value.DoubleValue
-1.185

@<SCITEGIC>MOL_PROPERTY
U+W
SciTegic.value.DoubleValue
-58.089

@<SCITEGIC>MOL_PROPERTY
Grad RMS
SciTegic.value.DoubleValue
0.000000

@<SCITEGIC>MOL_PROPERTY
U
SciTegic.value.DoubleValue
6.298

@<SCITEGIC>MOL_PROPERTY
W
SciTegic.value.DoubleValue
-64.387

@<SCITEGIC>MOL_PROPERTY
W(PB)
SciTegic.value.DoubleValue
-66.329

@<SCITEGIC>MOL_PROPERTY
W(SA)
SciTegic.value.DoubleValue
1.942

@<SCITEGIC>MOL_PROPERTY
Valence
SciTegic.value.DoubleValue
6.246

@<SCITEGIC>MOL_PROPERTY
Coulomb
SciTegic.value.DoubleValue
-0.408

@<SCITEGIC>MOL_PROPERTY
VdW
SciTegic.value.DoubleValue
0.460

@<SCITEGIC>MOL_PROPERTY
VdW6
SciTegic.value.DoubleValue
-4.207

@<SCITEGIC>MOL_PROPERTY
VdW12
SciTegic.value.DoubleValue
4.667

@<SCITEGIC>MOL_PROPERTY
Bond
SciTegic.value.DoubleValue
0.072

@<SCITEGIC>MOL_PROPERTY
Angle
SciTegic.value.DoubleValue
2.246

@<SCITEGIC>MOL_PROPERTY
Pdih
SciTegic.value.DoubleValue
3.928

@<SCITEGIC>MOL_PROPERTY
Idih
SciTegic.value.DoubleValue
0.001

@<SCITEGIC>MOL_PROPERTY
Tether
SciTegic.value.DoubleValue
0.000

@<TRIPOS>MOLECULE
guest-s18_confgen4.mol2 : confsearch ligand conformer 823
          16          15           1
SMALL
USER_CHARGES
 
@<TRIPOS>ATOM
       1    C1      22.301483   18.060429   22.233495 C.2        1 MOL1         0.6075
       2    O1      22.960719   17.712926   21.273993 O.co2      1 MOL1        -0.6830
       3    O2      22.469348   17.627114   23.355999 O.co2      1 MOL1        -0.6830
       4    C2      21.190204   19.080672   22.012733 C.3        1 MOL1        -0.2050
       5    H1      21.500882   19.752916   21.203949 H          1 MOL1         0.0710
       6    H2      21.105259   19.684883   22.923134 H          1 MOL1         0.0710
       7    C3      19.829484   18.422001   21.666917 C.3        1 MOL1        -0.1947
       8    H3      19.968498   17.756519   20.803646 H          1 MOL1         0.0712
       9    H4      19.508083   17.784447   22.502102 H          1 MOL1         0.0712
      10    C4      18.718488   19.443879   21.332459 C.3        1 MOL1        -0.1921
      11    H5      17.826654   18.898081   20.994752 H          1 MOL1         0.0712
      12    H6      19.034901   20.073839   20.489599 H          1 MOL1         0.0712
      13    C5      18.331575   20.336404   22.531055 C.3        1 MOL1        -0.2936
      14    H7      19.162996   20.985938   22.832097 H          1 MOL1         0.0724
      15    H8      18.038961   19.727214   23.396223 H          1 MOL1         0.0724
      16    H9      17.483181   20.982312   22.270214 H          1 MOL1         0.0724
@<TRIPOS>BOND
    1     1     2    1
    2     1     3    2
    3     1     4    1
    4     4     5    1
    5     4     6    1
    6     4     7    1
    7     7     8    1
    8     7     9    1
    9     7    10    1
   10    10    11    1
   11    10    12    1
   12    10    13    1
   13    13    14    1
   14    13    15    1
   15    13    16    1
@<TRIPOS>SUBSTRUCTURE
       1 MOL1            1 RESIDUE      1      MOL     
@<SCITEGIC>MOL_PROPERTY
VConf Rank
SciTegic.value.IntegerValue
823

@<SCITEGIC>MOL_PROPERTY
Conf_Id
SciTegic.value.IntegerValue
36

@<SCITEGIC>MOL_PROPERTY
Delta U+W
SciTegic.value.DoubleValue
-0.427

@<SCITEGIC>MOL_PROPERTY
U+W
SciTegic.value.DoubleValue
-57.331

@<SCITEGIC>MOL_PROPERTY
Grad RMS
SciTegic.value.DoubleValue
0.000000

@<SCITEGIC>MOL_PROPERTY
U
SciTegic.value.DoubleValue
7.263

@<SCITEGIC>MOL_PROPERTY
W
SciTegic.value.DoubleValue
-64.594

@<SCITEGIC>MOL_PROPERTY
W(PB)
SciTegic.value.DoubleValue
-66.513

@<SCITEGIC>MOL_PROPERTY
W(SA)
SciTegic.value.DoubleValue
1.920

@<SCITEGIC>MOL_PROPERTY
Valence
SciTegic.value.DoubleValue
6.734

@<SCITEGIC>MOL_PROPERTY
Coulomb
SciTegic.value.DoubleValue
-0.068

@<SCITEGIC>MOL_PROPERTY
VdW
SciTegic.value.DoubleValue
0.598

@<SCITEGIC>MOL_PROPERTY
VdW6
SciTegic.value.DoubleValue
-4.819

@<SCITEGIC>MOL_PROPERTY
VdW12
SciTegic.value.DoubleValue
5.417

@<SCITEGIC>MOL_PROPERTY
Bond
SciTegic.value.DoubleValue
0.107

@<SCITEGIC>MOL_PROPERTY
Angle
SciTegic.value.DoubleValue
2.469

@<SCITEGIC>MOL_PROPERTY
Pdih
SciTegic.value.DoubleValue
4.157

@<SCITEGIC>MOL_PROPERTY
Idih
SciTegic.value.DoubleValue
0.001

@<SCITEGIC>MOL_PROPERTY
Tether
SciTegic.value.DoubleValue
0.000

@<TRIPOS>MOLECULE
guest-s18_confgen4.mol2 : confsearch ligand conformer 824
          16          15           1
SMALL
USER_CHARGES
 
@<TRIPOS>ATOM
       1    C1      22.439772   19.729209   22.465022 C.2        1 MOL1         0.6075
       2    O1      22.585944   20.925736   22.616397 O.co2      1 MOL1        -0.6830
       3    O2      23.350606   18.969365   22.202320 O.co2      1 MOL1        -0.6830
       4    C2      21.034122   19.152425   22.591677 C.3        1 MOL1        -0.2050
       5    H1      20.494543   19.747203   23.337473 H          1 MOL1         0.0710
       6    H2      21.118655   18.133266   22.987575 H          1 MOL1         0.0710
       7    C3      20.265733   19.140266   21.244671 C.3        1 MOL1        -0.1947
       8    H3      20.149991   20.170061   20.879383 H          1 MOL1         0.0712
       9    H4      20.872658   18.611613   20.496609 H          1 MOL1         0.0712
      10    C4      18.880820   18.458553   21.332374 C.3        1 MOL1        -0.1921
      11    H5      18.997500   17.424927   21.686469 H          1 MOL1         0.0712
      12    H6      18.454086   18.394483   20.321878 H          1 MOL1         0.0712
      13    C5      17.888730   19.210995   22.244798 C.3        1 MOL1        -0.2936
      14    H7      18.219959   19.201873   23.290736 H          1 MOL1         0.0724
      15    H8      16.898340   18.739161   22.205967 H          1 MOL1         0.0724
      16    H9      17.777829   20.256002   21.927130 H          1 MOL1         0.0724
@<TRIPOS>BOND
    1     1     2    1
    2     1     3    2
    3     1     4    1
    4     4     5    1
    5     4     6    1
    6     4     7    1
    7     7     8    1
    8     7     9    1
    9     7    10    1
   10    10    11    1
   11    10    12    1
   12    10    13    1
   13    13    14    1
   14    13    15    1
   15    13    16    1
@<TRIPOS>SUBSTRUCTURE
       1 MOL1            1 RESIDUE      1      MOL     
@<SCITEGIC>MOL_PROPERTY
VConf Rank
SciTegic.value.IntegerValue
824

@<SCITEGIC>MOL_PROPERTY
Conf_Id
SciTegic.value.IntegerValue
17

@<SCITEGIC>MOL_PROPERTY
Delta U+W
SciTegic.value.DoubleValue
-0.432

@<SCITEGIC>MOL_PROPERTY
U+W
SciTegic.value.DoubleValue
-57.336

@<SCITEGIC>MOL_PROPERTY
Grad RMS
SciTegic.value.DoubleValue
0.000000

@<SCITEGIC>MOL_PROPERTY
U
SciTegic.value.DoubleValue
7.263

@<SCITEGIC>MOL_PROPERTY
W
SciTegic.value.DoubleValue
-64.599

@<SCITEGIC>MOL_PROPERTY
W(PB)
SciTegic.value.DoubleValue
-66.503

@<SCITEGIC>MOL_PROPERTY
W(SA)
SciTegic.value.DoubleValue
1.904

@<SCITEGIC>MOL_PROPERTY
Valence
SciTegic.value.DoubleValue
6.734

@<SCITEGIC>MOL_PROPERTY
Coulomb
SciTegic.value.DoubleValue
-0.068

@<SCITEGIC>MOL_PROPERTY
VdW
SciTegic.value.DoubleValue
0.598

@<SCITEGIC>MOL_PROPERTY
VdW6
SciTegic.value.DoubleValue
-4.819

@<SCITEGIC>MOL_PROPERTY
VdW12
SciTegic.value.DoubleValue
5.417

@<SCITEGIC>MOL_PROPERTY
Bond
SciTegic.value.DoubleValue
0.107

@<SCITEGIC>MOL_PROPERTY
Angle
SciTegic.value.DoubleValue
2.469

@<SCITEGIC>MOL_PROPERTY
Pdih
SciTegic.value.DoubleValue
4.157

@<SCITEGIC>MOL_PROPERTY
Idih
SciTegic.value.DoubleValue
0.001

@<SCITEGIC>MOL_PROPERTY
Tether
SciTegic.value.DoubleValue
0.000

@<TRIPOS>MOLECULE
guest-s18_confgen4.mol2 : confsearch ligand conformer 825
          16          15           1
SMALL
USER_CHARGES
 
@<TRIPOS>ATOM
       1    C1      19.904072   17.297596   23.564977 C.2        1 MOL1         0.6075
       2    O1      20.961302   16.887842   24.001679 O.co2      1 MOL1        -0.6830
       3    O2      18.937326   17.535489   24.261447 O.co2      1 MOL1        -0.6830
       4    C2      19.778278   17.500812   22.057538 C.3        1 MOL1        -0.2050
       5    H1      18.713654   17.526140   21.794828 H          1 MOL1         0.0710
       6    H2      20.203955   16.615536   21.570383 H          1 MOL1         0.0710
       7    C3      20.489805   18.773695   21.529774 C.3        1 MOL1        -0.1947
       8    H3      21.548079   18.748134   21.824776 H          1 MOL1         0.0712
       9    H4      20.467409   18.765119   20.431602 H          1 MOL1         0.0712
      10    C4      19.835508   20.075228   22.041720 C.3        1 MOL1        -0.1921
      11    H5      19.870565   20.104407   23.139738 H          1 MOL1         0.0712
      12    H6      18.774455   20.093590   21.756752 H          1 MOL1         0.0712
      13    C5      20.540326   21.323957   21.475811 C.3        1 MOL1        -0.2936
      14    H7      21.597208   21.346250   21.772383 H          1 MOL1         0.0724
      15    H8      20.063944   22.239541   21.849818 H          1 MOL1         0.0724
      16    H9      20.491216   21.339947   20.379113 H          1 MOL1         0.0724
@<TRIPOS>BOND
    1     1     2    1
    2     1     3    2
    3     1     4    1
    4     4     5    1
    5     4     6    1
    6     4     7    1
    7     7     8    1
    8     7     9    1
    9     7    10    1
   10    10    11    1
   11    10    12    1
   12    10    13    1
   13    13    14    1
   14    13    15    1
   15    13    16    1
@<TRIPOS>SUBSTRUCTURE
       1 MOL1            1 RESIDUE      1      MOL     
@<SCITEGIC>MOL_PROPERTY
VConf Rank
SciTegic.value.IntegerValue
825

@<SCITEGIC>MOL_PROPERTY
Conf_Id
SciTegic.value.IntegerValue
19

@<SCITEGIC>MOL_PROPERTY
Delta U+W
SciTegic.value.DoubleValue
0.048

@<SCITEGIC>MOL_PROPERTY
U+W
SciTegic.value.DoubleValue
-56.856

@<SCITEGIC>MOL_PROPERTY
Grad RMS
SciTegic.value.DoubleValue
0.000000

@<SCITEGIC>MOL_PROPERTY
U
SciTegic.value.DoubleValue
8.276

@<SCITEGIC>MOL_PROPERTY
W
SciTegic.value.DoubleValue
-65.132

@<SCITEGIC>MOL_PROPERTY
W(PB)
SciTegic.value.DoubleValue
-67.031

@<SCITEGIC>MOL_PROPERTY
W(SA)
SciTegic.value.DoubleValue
1.899

@<SCITEGIC>MOL_PROPERTY
Valence
SciTegic.value.DoubleValue
6.513

@<SCITEGIC>MOL_PROPERTY
Coulomb
SciTegic.value.DoubleValue
1.428

@<SCITEGIC>MOL_PROPERTY
VdW
SciTegic.value.DoubleValue
0.335

@<SCITEGIC>MOL_PROPERTY
VdW6
SciTegic.value.DoubleValue
-5.021

@<SCITEGIC>MOL_PROPERTY
VdW12
SciTegic.value.DoubleValue
5.356

@<SCITEGIC>MOL_PROPERTY
Bond
SciTegic.value.DoubleValue
0.092

@<SCITEGIC>MOL_PROPERTY
Angle
SciTegic.value.DoubleValue
2.417

@<SCITEGIC>MOL_PROPERTY
Pdih
SciTegic.value.DoubleValue
4.003

@<SCITEGIC>MOL_PROPERTY
Idih
SciTegic.value.DoubleValue
0.001

@<SCITEGIC>MOL_PROPERTY
Tether
SciTegic.value.DoubleValue
0.000

@<TRIPOS>MOLECULE
guest-s18_confgen4.mol2 : confsearch ligand conformer 826
          16          15           1
SMALL
USER_CHARGES
 
@<TRIPOS>ATOM
       1    C1      21.898821   20.315346   21.720341 C.2        1 MOL1         0.6075
       2    O1      22.813854   19.591366   21.381360 O.co2      1 MOL1        -0.6830
       3    O2      21.990247   21.142800   22.605340 O.co2      1 MOL1        -0.6830
       4    C2      20.571189   20.193231   20.977388 C.3        1 MOL1        -0.2050
       5    H1      20.797575   20.152766   19.905312 H          1 MOL1         0.0710
       6    H2      19.990457   21.108613   21.144461 H          1 MOL1         0.0710
       7    C3      19.735506   18.949329   21.376618 C.3        1 MOL1        -0.1947
       8    H3      18.873687   18.866996   20.700566 H          1 MOL1         0.0712
       9    H4      20.339446   18.042857   21.231054 H          1 MOL1         0.0712
      10    C4      19.233318   19.014452   22.835301 C.3        1 MOL1        -0.1921
      11    H5      18.639998   19.927499   22.982589 H          1 MOL1         0.0712
      12    H6      20.088558   19.076476   23.522644 H          1 MOL1         0.0712
      13    C5      18.378222   17.783371   23.195304 C.3        1 MOL1        -0.2936
      14    H7      17.495608   17.714299   22.545969 H          1 MOL1         0.0724
      15    H8      18.030364   17.844884   24.234692 H          1 MOL1         0.0724
      16    H9      18.957949   16.857391   23.086082 H          1 MOL1         0.0724
@<TRIPOS>BOND
    1     1     2    1
    2     1     3    2
    3     1     4    1
    4     4     5    1
    5     4     6    1
    6     4     7    1
    7     7     8    1
    8     7     9    1
    9     7    10    1
   10    10    11    1
   11    10    12    1
   12    10    13    1
   13    13    14    1
   14    13    15    1
   15    13    16    1
@<TRIPOS>SUBSTRUCTURE
       1 MOL1            1 RESIDUE      1      MOL     
@<SCITEGIC>MOL_PROPERTY
VConf Rank
SciTegic.value.IntegerValue
826

@<SCITEGIC>MOL_PROPERTY
Conf_Id
SciTegic.value.IntegerValue
20

@<SCITEGIC>MOL_PROPERTY
Delta U+W
SciTegic.value.DoubleValue
-0.010

@<SCITEGIC>MOL_PROPERTY
U+W
SciTegic.value.DoubleValue
-56.914

@<SCITEGIC>MOL_PROPERTY
Grad RMS
SciTegic.value.DoubleValue
0.000000

@<SCITEGIC>MOL_PROPERTY
U
SciTegic.value.DoubleValue
8.277

@<SCITEGIC>MOL_PROPERTY
W
SciTegic.value.DoubleValue
-65.191

@<SCITEGIC>MOL_PROPERTY
W(PB)
SciTegic.value.DoubleValue
-67.081

@<SCITEGIC>MOL_PROPERTY
W(SA)
SciTegic.value.DoubleValue
1.890

@<SCITEGIC>MOL_PROPERTY
Valence
SciTegic.value.DoubleValue
6.513

@<SCITEGIC>MOL_PROPERTY
Coulomb
SciTegic.value.DoubleValue
1.429

@<SCITEGIC>MOL_PROPERTY
VdW
SciTegic.value.DoubleValue
0.335

@<SCITEGIC>MOL_PROPERTY
VdW6
SciTegic.value.DoubleValue
-5.021

@<SCITEGIC>MOL_PROPERTY
VdW12
SciTegic.value.DoubleValue
5.356

@<SCITEGIC>MOL_PROPERTY
Bond
SciTegic.value.DoubleValue
0.092

@<SCITEGIC>MOL_PROPERTY
Angle
SciTegic.value.DoubleValue
2.417

@<SCITEGIC>MOL_PROPERTY
Pdih
SciTegic.value.DoubleValue
4.002

@<SCITEGIC>MOL_PROPERTY
Idih
SciTegic.value.DoubleValue
0.001

@<SCITEGIC>MOL_PROPERTY
Tether
SciTegic.value.DoubleValue
0.000

@<TRIPOS>MOLECULE
guest-s18_confgen4.mol2 : confsearch ligand conformer 827
          16          15           1
SMALL
USER_CHARGES
 
@<TRIPOS>ATOM
       1    C1      21.249567   20.641931   21.462182 C.2        1 MOL1         0.6075
       2    O1      21.328768   21.759183   21.933627 O.co2      1 MOL1        -0.6830
       3    O2      21.219110   20.418926   20.268179 O.co2      1 MOL1        -0.6830
       4    C2      21.221401   19.455893   22.422528 C.3        1 MOL1        -0.2050
       5    H1      22.058449   19.581337   23.119303 H          1 MOL1         0.0710
       6    H2      21.424089   18.539651   21.856255 H          1 MOL1         0.0710
       7    C3      19.900041   19.320845   23.227792 C.3        1 MOL1        -0.1947
       8    H3      19.998695   18.495678   23.945941 H          1 MOL1         0.0712
       9    H4      19.755574   20.232425   23.824035 H          1 MOL1         0.0712
      10    C4      18.642802   19.089335   22.356159 C.3        1 MOL1        -0.1921
      11    H5      18.513140   19.926417   21.656103 H          1 MOL1         0.0712
      12    H6      17.757608   19.090760   23.006973 H          1 MOL1         0.0712
      13    C5      18.682113   17.760473   21.571925 C.3        1 MOL1        -0.2936
      14    H7      19.481047   17.765877   20.819488 H          1 MOL1         0.0724
      15    H8      17.732556   17.597250   21.046035 H          1 MOL1         0.0724
      16    H9      18.846642   16.909765   22.245936 H          1 MOL1         0.0724
@<TRIPOS>BOND
    1     1     2    1
    2     1     3    2
    3     1     4    1
    4     4     5    1
    5     4     6    1
    6     4     7    1
    7     7     8    1
    8     7     9    1
    9     7    10    1
   10    10    11    1
   11    10    12    1
   12    10    13    1
   13    13    14    1
   14    13    15    1
   15    13    16    1
@<TRIPOS>SUBSTRUCTURE
       1 MOL1            1 RESIDUE      1      MOL     
@<SCITEGIC>MOL_PROPERTY
VConf Rank
SciTegic.value.IntegerValue
827

@<SCITEGIC>MOL_PROPERTY
Conf_Id
SciTegic.value.IntegerValue
37

@<SCITEGIC>MOL_PROPERTY
Delta U+W
SciTegic.value.DoubleValue
1.063

@<SCITEGIC>MOL_PROPERTY
U+W
SciTegic.value.DoubleValue
-55.841

@<SCITEGIC>MOL_PROPERTY
Grad RMS
SciTegic.value.DoubleValue
0.000000

@<SCITEGIC>MOL_PROPERTY
U
SciTegic.value.DoubleValue
9.719

@<SCITEGIC>MOL_PROPERTY
W
SciTegic.value.DoubleValue
-65.560

@<SCITEGIC>MOL_PROPERTY
W(PB)
SciTegic.value.DoubleValue
-67.414

@<SCITEGIC>MOL_PROPERTY
W(SA)
SciTegic.value.DoubleValue
1.854

@<SCITEGIC>MOL_PROPERTY
Valence
SciTegic.value.DoubleValue
7.002

@<SCITEGIC>MOL_PROPERTY
Coulomb
SciTegic.value.DoubleValue
2.402

@<SCITEGIC>MOL_PROPERTY
VdW
SciTegic.value.DoubleValue
0.314

@<SCITEGIC>MOL_PROPERTY
VdW6
SciTegic.value.DoubleValue
-5.861

@<SCITEGIC>MOL_PROPERTY
VdW12
SciTegic.value.DoubleValue
6.175

@<SCITEGIC>MOL_PROPERTY
Bond
SciTegic.value.DoubleValue
0.134

@<SCITEGIC>MOL_PROPERTY
Angle
SciTegic.value.DoubleValue
2.733

@<SCITEGIC>MOL_PROPERTY
Pdih
SciTegic.value.DoubleValue
4.133

@<SCITEGIC>MOL_PROPERTY
Idih
SciTegic.value.DoubleValue
0.002

@<SCITEGIC>MOL_PROPERTY
Tether
SciTegic.value.DoubleValue
0.000

@<TRIPOS>MOLECULE
guest-s18_confgen4.mol2 : confsearch ligand conformer 828
          16          15           1
SMALL
USER_CHARGES
 
@<TRIPOS>ATOM
       1    C1      20.731021   19.459564   20.133437 C.2        1 MOL1         0.6075
       2    O1      21.768730   20.010218   19.822432 O.co2      1 MOL1        -0.6830
       3    O2      20.339897   18.428933   19.622438 O.co2      1 MOL1        -0.6830
       4    C2      19.857829   20.118163   21.198111 C.3        1 MOL1        -0.2050
       5    H1      18.860786   19.664173   21.165768 H          1 MOL1         0.0710
       6    H2      19.729887   21.168229   20.910233 H          1 MOL1         0.0710
       7    C3      20.444870   20.048373   22.634493 C.3        1 MOL1        -0.1947
       8    H3      21.417901   20.558758   22.643075 H          1 MOL1         0.0712
       9    H4      19.795153   20.612796   23.316888 H          1 MOL1         0.0712
      10    C4      20.629216   18.611891   23.179038 C.3        1 MOL1        -0.1921
      11    H5      21.123124   18.667116   24.158902 H          1 MOL1         0.0712
      12    H6      21.305982   18.046747   22.523144 H          1 MOL1         0.0712
      13    C5      19.299040   17.844479   23.334450 C.3        1 MOL1        -0.2936
      14    H7      18.590745   18.405670   23.957706 H          1 MOL1         0.0724
      15    H8      19.471458   16.870643   23.810660 H          1 MOL1         0.0724
      16    H9      18.830661   17.658397   22.359524 H          1 MOL1         0.0724
@<TRIPOS>BOND
    1     1     2    1
    2     1     3    2
    3     1     4    1
    4     4     5    1
    5     4     6    1
    6     4     7    1
    7     7     8    1
    8     7     9    1
    9     7    10    1
   10    10    11    1
   11    10    12    1
   12    10    13    1
   13    13    14    1
   14    13    15    1
   15    13    16    1
@<TRIPOS>SUBSTRUCTURE
       1 MOL1            1 RESIDUE      1      MOL     
@<SCITEGIC>MOL_PROPERTY
VConf Rank
SciTegic.value.IntegerValue
828

@<SCITEGIC>MOL_PROPERTY
Conf_Id
SciTegic.value.IntegerValue
39

@<SCITEGIC>MOL_PROPERTY
Delta U+W
SciTegic.value.DoubleValue
1.129

@<SCITEGIC>MOL_PROPERTY
U+W
SciTegic.value.DoubleValue
-55.775

@<SCITEGIC>MOL_PROPERTY
Grad RMS
SciTegic.value.DoubleValue
0.000000

@<SCITEGIC>MOL_PROPERTY
U
SciTegic.value.DoubleValue
9.718

@<SCITEGIC>MOL_PROPERTY
W
SciTegic.value.DoubleValue
-65.493

@<SCITEGIC>MOL_PROPERTY
W(PB)
SciTegic.value.DoubleValue
-67.361

@<SCITEGIC>MOL_PROPERTY
W(SA)
SciTegic.value.DoubleValue
1.869

@<SCITEGIC>MOL_PROPERTY
Valence
SciTegic.value.DoubleValue
7.002

@<SCITEGIC>MOL_PROPERTY
Coulomb
SciTegic.value.DoubleValue
2.402

@<SCITEGIC>MOL_PROPERTY
VdW
SciTegic.value.DoubleValue
0.314

@<SCITEGIC>MOL_PROPERTY
VdW6
SciTegic.value.DoubleValue
-5.861

@<SCITEGIC>MOL_PROPERTY
VdW12
SciTegic.value.DoubleValue
6.175

@<SCITEGIC>MOL_PROPERTY
Bond
SciTegic.value.DoubleValue
0.134

@<SCITEGIC>MOL_PROPERTY
Angle
SciTegic.value.DoubleValue
2.734

@<SCITEGIC>MOL_PROPERTY
Pdih
SciTegic.value.DoubleValue
4.133

@<SCITEGIC>MOL_PROPERTY
Idih
SciTegic.value.DoubleValue
0.002

@<SCITEGIC>MOL_PROPERTY
Tether
SciTegic.value.DoubleValue
0.000

@<TRIPOS>MOLECULE
guest-s18_confgen4.mol2 : confsearch ligand conformer 829
          16          15           1
SMALL
USER_CHARGES
 
@<TRIPOS>ATOM
       1    C1      17.982208   19.612259   22.427634 C.2        1 MOL1         0.6075
       2    O1      17.244973   18.672863   22.202157 O.co2      1 MOL1        -0.6830
       3    O2      17.840564   20.709258   21.923958 O.co2      1 MOL1        -0.6830
       4    C2      19.087913   19.428059   23.465488 C.3        1 MOL1        -0.2050
       5    H1      19.026397   18.412879   23.876102 H          1 MOL1         0.0710
       6    H2      18.855841   20.113530   24.288909 H          1 MOL1         0.0710
       7    C3      20.529170   19.717035   22.959273 C.3        1 MOL1        -0.1947
       8    H3      20.539951   20.643776   22.368869 H          1 MOL1         0.0712
       9    H4      21.163930   19.908677   23.834947 H          1 MOL1         0.0712
      10    C4      21.174482   18.565045   22.151775 C.3        1 MOL1        -0.1921
      11    H5      21.159976   17.640087   22.744627 H          1 MOL1         0.0712
      12    H6      22.233030   18.808092   21.985355 H          1 MOL1         0.0712
      13    C5      20.509526   18.314281   20.782381 C.3        1 MOL1        -0.2936
      14    H7      19.497104   17.908600   20.898247 H          1 MOL1         0.0724
      15    H8      21.091257   17.587891   20.200388 H          1 MOL1         0.0724
      16    H9      20.444966   19.242484   20.199629 H          1 MOL1         0.0724
@<TRIPOS>BOND
    1     1     2    1
    2     1     3    2
    3     1     4    1
    4     4     5    1
    5     4     6    1
    6     4     7    1
    7     7     8    1
    8     7     9    1
    9     7    10    1
   10    10    11    1
   11    10    12    1
   12    10    13    1
   13    13    14    1
   14    13    15    1
   15    13    16    1
@<TRIPOS>SUBSTRUCTURE
       1 MOL1            1 RESIDUE      1      MOL     
@<SCITEGIC>MOL_PROPERTY
VConf Rank
SciTegic.value.IntegerValue
829

@<SCITEGIC>MOL_PROPERTY
Conf_Id
SciTegic.value.IntegerValue
47

@<SCITEGIC>MOL_PROPERTY
Delta U+W
SciTegic.value.DoubleValue
2.301

@<SCITEGIC>MOL_PROPERTY
U+W
SciTegic.value.DoubleValue
-54.603

@<SCITEGIC>MOL_PROPERTY
Grad RMS
SciTegic.value.DoubleValue
0.000000

@<SCITEGIC>MOL_PROPERTY
U
SciTegic.value.DoubleValue
11.258

@<SCITEGIC>MOL_PROPERTY
W
SciTegic.value.DoubleValue
-65.861

@<SCITEGIC>MOL_PROPERTY
W(PB)
SciTegic.value.DoubleValue
-67.702

@<SCITEGIC>MOL_PROPERTY
W(SA)
SciTegic.value.DoubleValue
1.841

@<SCITEGIC>MOL_PROPERTY
Valence
SciTegic.value.DoubleValue
8.169

@<SCITEGIC>MOL_PROPERTY
Coulomb
SciTegic.value.DoubleValue
2.735

@<SCITEGIC>MOL_PROPERTY
VdW
SciTegic.value.DoubleValue
0.355

@<SCITEGIC>MOL_PROPERTY
VdW6
SciTegic.value.DoubleValue
-6.245

@<SCITEGIC>MOL_PROPERTY
VdW12
SciTegic.value.DoubleValue
6.600

@<SCITEGIC>MOL_PROPERTY
Bond
SciTegic.value.DoubleValue
0.149

@<SCITEGIC>MOL_PROPERTY
Angle
SciTegic.value.DoubleValue
3.168

@<SCITEGIC>MOL_PROPERTY
Pdih
SciTegic.value.DoubleValue
4.840

@<SCITEGIC>MOL_PROPERTY
Idih
SciTegic.value.DoubleValue
0.011

@<SCITEGIC>MOL_PROPERTY
Tether
SciTegic.value.DoubleValue
0.000

@<TRIPOS>MOLECULE
guest-s18_confgen4.mol2 : confsearch ligand conformer 830
          16          15           1
SMALL
USER_CHARGES
 
@<TRIPOS>ATOM
       1    C1      20.152565   20.454072   23.716748 C.2        1 MOL1         0.6075
       2    O1      21.162999   20.163747   24.326579 O.co2      1 MOL1        -0.6830
       3    O2      19.102775   20.738144   24.259022 O.co2      1 MOL1        -0.6830
       4    C2      20.228244   20.555206   22.194345 C.3        1 MOL1        -0.2050
       5    H1      20.955001   21.345543   21.973120 H          1 MOL1         0.0710
       6    H2      19.261054   20.902752   21.811286 H          1 MOL1         0.0710
       7    C3      20.660116   19.253273   21.462604 C.3        1 MOL1        -0.1947
       8    H3      21.024962   19.530583   20.464386 H          1 MOL1         0.0712
       9    H4      21.514941   18.797898   21.981689 H          1 MOL1         0.0712
      10    C4      19.532156   18.209363   21.279517 C.3        1 MOL1        -0.1921
      11    H5      19.900540   17.412277   20.619031 H          1 MOL1         0.0712
      12    H6      18.678866   18.668971   20.761939 H          1 MOL1         0.0712
      13    C5      19.054809   17.568724   22.599368 C.3        1 MOL1        -0.2936
      14    H7      18.360305   16.743367   22.396342 H          1 MOL1         0.0724
      15    H8      18.527382   18.296008   23.228557 H          1 MOL1         0.0724
      16    H9      19.901439   17.167090   23.171414 H          1 MOL1         0.0724
@<TRIPOS>BOND
    1     1     2    1
    2     1     3    2
    3     1     4    1
    4     4     5    1
    5     4     6    1
    6     4     7    1
    7     7     8    1
    8     7     9    1
    9     7    10    1
   10    10    11    1
   11    10    12    1
   12    10    13    1
   13    13    14    1
   14    13    15    1
   15    13    16    1
@<TRIPOS>SUBSTRUCTURE
       1 MOL1            1 RESIDUE      1      MOL     
@<SCITEGIC>MOL_PROPERTY
VConf Rank
SciTegic.value.IntegerValue
830

@<SCITEGIC>MOL_PROPERTY
Conf_Id
SciTegic.value.IntegerValue
45

@<SCITEGIC>MOL_PROPERTY
Delta U+W
SciTegic.value.DoubleValue
2.303

@<SCITEGIC>MOL_PROPERTY
U+W
SciTegic.value.DoubleValue
-54.601

@<SCITEGIC>MOL_PROPERTY
Grad RMS
SciTegic.value.DoubleValue
0.000000

@<SCITEGIC>MOL_PROPERTY
U
SciTegic.value.DoubleValue
11.258

@<SCITEGIC>MOL_PROPERTY
W
SciTegic.value.DoubleValue
-65.860

@<SCITEGIC>MOL_PROPERTY
W(PB)
SciTegic.value.DoubleValue
-67.709

@<SCITEGIC>MOL_PROPERTY
W(SA)
SciTegic.value.DoubleValue
1.849

@<SCITEGIC>MOL_PROPERTY
Valence
SciTegic.value.DoubleValue
8.169

@<SCITEGIC>MOL_PROPERTY
Coulomb
SciTegic.value.DoubleValue
2.735

@<SCITEGIC>MOL_PROPERTY
VdW
SciTegic.value.DoubleValue
0.355

@<SCITEGIC>MOL_PROPERTY
VdW6
SciTegic.value.DoubleValue
-6.245

@<SCITEGIC>MOL_PROPERTY
VdW12
SciTegic.value.DoubleValue
6.600

@<SCITEGIC>MOL_PROPERTY
Bond
SciTegic.value.DoubleValue
0.149

@<SCITEGIC>MOL_PROPERTY
Angle
SciTegic.value.DoubleValue
3.168

@<SCITEGIC>MOL_PROPERTY
Pdih
SciTegic.value.DoubleValue
4.840

@<SCITEGIC>MOL_PROPERTY
Idih
SciTegic.value.DoubleValue
0.011

@<SCITEGIC>MOL_PROPERTY
Tether
SciTegic.value.DoubleValue
0.000

@<TRIPOS>MOLECULE
guest-s18_confgen4.mol2 : confsearch ligand conformer 831
          16          15           1
SMALL
USER_CHARGES
 
@<TRIPOS>ATOM
       1    C1      22.581426   19.620312   22.760472 C.2        1 MOL1         0.6075
       2    O1      23.096524   19.007784   21.845452 O.co2      1 MOL1        -0.6830
       3    O2      23.222984   20.178857   23.627504 O.co2      1 MOL1        -0.6830
       4    C2      21.057151   19.709931   22.852383 C.3        1 MOL1        -0.2050
       5    H1      20.791553   20.773698   22.856786 H          1 MOL1         0.0710
       6    H2      20.763511   19.302064   23.826849 H          1 MOL1         0.0710
       7    C3      20.280128   18.980954   21.724033 C.3        1 MOL1        -0.1947
       8    H3      20.582460   19.390029   20.750009 H          1 MOL1         0.0712
       9    H4      20.554377   17.916882   21.721084 H          1 MOL1         0.0712
      10    C4      18.753092   19.122871   21.895150 C.3        1 MOL1        -0.1921
      11    H5      18.477270   20.186553   21.896500 H          1 MOL1         0.0712
      12    H6      18.449158   18.712528   22.868156 H          1 MOL1         0.0712
      13    C5      17.986995   18.396904   20.771669 C.3        1 MOL1        -0.2936
      14    H7      18.248623   18.808951   19.788187 H          1 MOL1         0.0724
      15    H8      16.903377   18.507613   20.908262 H          1 MOL1         0.0724
      16    H9      18.220299   17.324049   20.767008 H          1 MOL1         0.0724
@<TRIPOS>BOND
    1     1     2    1
    2     1     3    2
    3     1     4    1
    4     4     5    1
    5     4     6    1
    6     4     7    1
    7     7     8    1
    8     7     9    1
    9     7    10    1
   10    10    11    1
   11    10    12    1
   12    10    13    1
   13    13    14    1
   14    13    15    1
   15    13    16    1
@<TRIPOS>SUBSTRUCTURE
       1 MOL1            1 RESIDUE      1      MOL     
@<SCITEGIC>MOL_PROPERTY
VConf Rank
SciTegic.value.IntegerValue
831

@<SCITEGIC>MOL_PROPERTY
Conf_Id
SciTegic.value.IntegerValue
0

@<SCITEGIC>MOL_PROPERTY
Delta U+W
SciTegic.value.DoubleValue
0.000

@<SCITEGIC>MOL_PROPERTY
U+W
SciTegic.value.DoubleValue
-56.904

@<SCITEGIC>MOL_PROPERTY
Grad RMS
SciTegic.value.DoubleValue
0.000000

@<SCITEGIC>MOL_PROPERTY
U
SciTegic.value.DoubleValue
7.329

@<SCITEGIC>MOL_PROPERTY
W
SciTegic.value.DoubleValue
-64.233

@<SCITEGIC>MOL_PROPERTY
W(PB)
SciTegic.value.DoubleValue
-66.148

@<SCITEGIC>MOL_PROPERTY
W(SA)
SciTegic.value.DoubleValue
1.915

@<SCITEGIC>MOL_PROPERTY
Valence
SciTegic.value.DoubleValue
6.755

@<SCITEGIC>MOL_PROPERTY
Coulomb
SciTegic.value.DoubleValue
-0.421

@<SCITEGIC>MOL_PROPERTY
VdW
SciTegic.value.DoubleValue
0.995

@<SCITEGIC>MOL_PROPERTY
VdW6
SciTegic.value.DoubleValue
-4.495

@<SCITEGIC>MOL_PROPERTY
VdW12
SciTegic.value.DoubleValue
5.490

@<SCITEGIC>MOL_PROPERTY
Bond
SciTegic.value.DoubleValue
0.106

@<SCITEGIC>MOL_PROPERTY
Angle
SciTegic.value.DoubleValue
2.715

@<SCITEGIC>MOL_PROPERTY
Pdih
SciTegic.value.DoubleValue
3.934

@<SCITEGIC>MOL_PROPERTY
Idih
SciTegic.value.DoubleValue
0.000

@<SCITEGIC>MOL_PROPERTY
Tether
SciTegic.value.DoubleValue
0.000

@<TRIPOS>MOLECULE
guest-s18_confgen4.mol2 : confsearch ligand conformer 832
          16          15           1
SMALL
USER_CHARGES
 
@<TRIPOS>ATOM
       1    C1      19.903953   16.865214   20.407746 C.2        1 MOL1         0.6075
       2    O1      19.129153   16.929176   19.474239 O.co2      1 MOL1        -0.6830
       3    O2      20.919535   16.198702   20.393633 O.co2      1 MOL1        -0.6830
       4    C2      19.594150   17.680167   21.658529 C.3        1 MOL1        -0.2050
       5    H1      19.980367   17.132535   22.526737 H          1 MOL1         0.0710
       6    H2      18.504323   17.734877   21.768684 H          1 MOL1         0.0710
       7    C3      20.198406   19.105293   21.614347 C.3        1 MOL1        -0.1947
       8    H3      21.288061   19.033953   21.491414 H          1 MOL1         0.0712
       9    H4      19.812004   19.636306   20.733285 H          1 MOL1         0.0712
      10    C4      19.870412   19.907865   22.890615 C.3        1 MOL1        -0.1921
      11    H5      20.257261   19.377501   23.771864 H          1 MOL1         0.0712
      12    H6      18.780815   19.979978   23.013561 H          1 MOL1         0.0712
      13    C5      20.474849   21.324960   22.839642 C.3        1 MOL1        -0.2936
      14    H7      20.080809   21.889529   21.984385 H          1 MOL1         0.0724
      15    H8      21.568160   21.282601   22.748265 H          1 MOL1         0.0724
      16    H9      20.232486   21.881935   23.754075 H          1 MOL1         0.0724
@<TRIPOS>BOND
    1     1     2    1
    2     1     3    2
    3     1     4    1
    4     4     5    1
    5     4     6    1
    6     4     7    1
    7     7     8    1
    8     7     9    1
    9     7    10    1
   10    10    11    1
   11    10    12    1
   12    10    13    1
   13    13    14    1
   14    13    15    1
   15    13    16    1
@<TRIPOS>SUBSTRUCTURE
       1 MOL1            1 RESIDUE      1      MOL     
@<SCITEGIC>MOL_PROPERTY
VConf Rank
SciTegic.value.IntegerValue
832

@<SCITEGIC>MOL_PROPERTY
Conf_Id
SciTegic.value.IntegerValue
22

@<SCITEGIC>MOL_PROPERTY
Delta U+W
SciTegic.value.DoubleValue
-1.185

@<SCITEGIC>MOL_PROPERTY
U+W
SciTegic.value.DoubleValue
-58.089

@<SCITEGIC>MOL_PROPERTY
Grad RMS
SciTegic.value.DoubleValue
0.000000

@<SCITEGIC>MOL_PROPERTY
U
SciTegic.value.DoubleValue
6.298

@<SCITEGIC>MOL_PROPERTY
W
SciTegic.value.DoubleValue
-64.387

@<SCITEGIC>MOL_PROPERTY
W(PB)
SciTegic.value.DoubleValue
-66.329

@<SCITEGIC>MOL_PROPERTY
W(SA)
SciTegic.value.DoubleValue
1.942

@<SCITEGIC>MOL_PROPERTY
Valence
SciTegic.value.DoubleValue
6.246

@<SCITEGIC>MOL_PROPERTY
Coulomb
SciTegic.value.DoubleValue
-0.408

@<SCITEGIC>MOL_PROPERTY
VdW
SciTegic.value.DoubleValue
0.460

@<SCITEGIC>MOL_PROPERTY
VdW6
SciTegic.value.DoubleValue
-4.207

@<SCITEGIC>MOL_PROPERTY
VdW12
SciTegic.value.DoubleValue
4.667

@<SCITEGIC>MOL_PROPERTY
Bond
SciTegic.value.DoubleValue
0.072

@<SCITEGIC>MOL_PROPERTY
Angle
SciTegic.value.DoubleValue
2.246

@<SCITEGIC>MOL_PROPERTY
Pdih
SciTegic.value.DoubleValue
3.928

@<SCITEGIC>MOL_PROPERTY
Idih
SciTegic.value.DoubleValue
0.001

@<SCITEGIC>MOL_PROPERTY
Tether
SciTegic.value.DoubleValue
0.000

@<TRIPOS>MOLECULE
guest-s18_confgen4.mol2 : confsearch ligand conformer 833
          16          15           1
SMALL
USER_CHARGES
 
@<TRIPOS>ATOM
       1    C1      20.562673   16.952270   20.751688 C.2        1 MOL1         0.6075
       2    O1      21.696034   16.692807   20.399314 O.co2      1 MOL1        -0.6830
       3    O2      19.574488   16.437328   20.267662 O.co2      1 MOL1        -0.6830
       4    C2      20.369634   17.995413   21.846750 C.3        1 MOL1        -0.2050
       5    H1      21.227271   17.937021   22.527642 H          1 MOL1         0.0710
       6    H2      19.478922   17.716397   22.421119 H          1 MOL1         0.0710
       7    C3      20.228559   19.434970   21.287494 C.3        1 MOL1        -0.1947
       8    H3      21.094703   19.651457   20.646904 H          1 MOL1         0.0712
       9    H4      19.341996   19.491773   20.640897 H          1 MOL1         0.0712
      10    C4      20.142171   20.517117   22.388360 C.3        1 MOL1        -0.1921
      11    H5      20.155273   21.507232   21.912114 H          1 MOL1         0.0712
      12    H6      21.034289   20.468181   23.027978 H          1 MOL1         0.0712
      13    C5      18.872489   20.400152   23.258511 C.3        1 MOL1        -0.2936
      14    H7      18.871391   19.471846   23.843343 H          1 MOL1         0.0724
      15    H8      17.967479   20.417617   22.637301 H          1 MOL1         0.0724
      16    H9      18.813345   21.237990   23.965291 H          1 MOL1         0.0724
@<TRIPOS>BOND
    1     1     2    1
    2     1     3    2
    3     1     4    1
    4     4     5    1
    5     4     6    1
    6     4     7    1
    7     7     8    1
    8     7     9    1
    9     7    10    1
   10    10    11    1
   11    10    12    1
   12    10    13    1
   13    13    14    1
   14    13    15    1
   15    13    16    1
@<TRIPOS>SUBSTRUCTURE
       1 MOL1            1 RESIDUE      1      MOL     
@<SCITEGIC>MOL_PROPERTY
VConf Rank
SciTegic.value.IntegerValue
833

@<SCITEGIC>MOL_PROPERTY
Conf_Id
SciTegic.value.IntegerValue
36

@<SCITEGIC>MOL_PROPERTY
Delta U+W
SciTegic.value.DoubleValue
-0.427

@<SCITEGIC>MOL_PROPERTY
U+W
SciTegic.value.DoubleValue
-57.331

@<SCITEGIC>MOL_PROPERTY
Grad RMS
SciTegic.value.DoubleValue
0.000000

@<SCITEGIC>MOL_PROPERTY
U
SciTegic.value.DoubleValue
7.263

@<SCITEGIC>MOL_PROPERTY
W
SciTegic.value.DoubleValue
-64.594

@<SCITEGIC>MOL_PROPERTY
W(PB)
SciTegic.value.DoubleValue
-66.513

@<SCITEGIC>MOL_PROPERTY
W(SA)
SciTegic.value.DoubleValue
1.920

@<SCITEGIC>MOL_PROPERTY
Valence
SciTegic.value.DoubleValue
6.734

@<SCITEGIC>MOL_PROPERTY
Coulomb
SciTegic.value.DoubleValue
-0.068

@<SCITEGIC>MOL_PROPERTY
VdW
SciTegic.value.DoubleValue
0.598

@<SCITEGIC>MOL_PROPERTY
VdW6
SciTegic.value.DoubleValue
-4.819

@<SCITEGIC>MOL_PROPERTY
VdW12
SciTegic.value.DoubleValue
5.417

@<SCITEGIC>MOL_PROPERTY
Bond
SciTegic.value.DoubleValue
0.107

@<SCITEGIC>MOL_PROPERTY
Angle
SciTegic.value.DoubleValue
2.469

@<SCITEGIC>MOL_PROPERTY
Pdih
SciTegic.value.DoubleValue
4.157

@<SCITEGIC>MOL_PROPERTY
Idih
SciTegic.value.DoubleValue
0.001

@<SCITEGIC>MOL_PROPERTY
Tether
SciTegic.value.DoubleValue
0.000

@<TRIPOS>MOLECULE
guest-s18_confgen4.mol2 : confsearch ligand conformer 834
          16          15           1
SMALL
USER_CHARGES
 
@<TRIPOS>ATOM
       1    C1      18.182499   17.519242   21.044701 C.2        1 MOL1         0.6075
       2    O1      18.697649   16.629634   20.397264 O.co2      1 MOL1        -0.6830
       3    O2      17.009453   17.822373   20.954870 O.co2      1 MOL1        -0.6830
       4    C2      19.059741   18.311696   22.007528 C.3        1 MOL1        -0.2050
       5    H1      19.825434   17.632149   22.398741 H          1 MOL1         0.0710
       6    H2      18.438490   18.624434   22.855354 H          1 MOL1         0.0710
       7    C3      19.717405   19.548555   21.342207 C.3        1 MOL1        -0.1947
       8    H3      20.370365   19.219733   20.521946 H          1 MOL1         0.0712
       9    H4      18.930238   20.164034   20.885060 H          1 MOL1         0.0712
      10    C4      20.521416   20.424302   22.330660 C.3        1 MOL1        -0.1921
      11    H5      19.865739   20.762916   23.144791 H          1 MOL1         0.0712
      12    H6      20.858931   21.329256   21.806780 H          1 MOL1         0.0712
      13    C5      21.751840   19.702874   22.921022 C.3        1 MOL1        -0.2936
      14    H7      21.455430   18.853749   23.549441 H          1 MOL1         0.0724
      15    H8      22.336341   20.390462   23.545994 H          1 MOL1         0.0724
      16    H9      22.408317   19.329729   22.124121 H          1 MOL1         0.0724
@<TRIPOS>BOND
    1     1     2    1
    2     1     3    2
    3     1     4    1
    4     4     5    1
    5     4     6    1
    6     4     7    1
    7     7     8    1
    8     7     9    1
    9     7    10    1
   10    10    11    1
   11    10    12    1
   12    10    13    1
   13    13    14    1
   14    13    15    1
   15    13    16    1
@<TRIPOS>SUBSTRUCTURE
       1 MOL1            1 RESIDUE      1      MOL     
@<SCITEGIC>MOL_PROPERTY
VConf Rank
SciTegic.value.IntegerValue
834

@<SCITEGIC>MOL_PROPERTY
Conf_Id
SciTegic.value.IntegerValue
17

@<SCITEGIC>MOL_PROPERTY
Delta U+W
SciTegic.value.DoubleValue
-0.432

@<SCITEGIC>MOL_PROPERTY
U+W
SciTegic.value.DoubleValue
-57.336

@<SCITEGIC>MOL_PROPERTY
Grad RMS
SciTegic.value.DoubleValue
0.000000

@<SCITEGIC>MOL_PROPERTY
U
SciTegic.value.DoubleValue
7.263

@<SCITEGIC>MOL_PROPERTY
W
SciTegic.value.DoubleValue
-64.599

@<SCITEGIC>MOL_PROPERTY
W(PB)
SciTegic.value.DoubleValue
-66.503

@<SCITEGIC>MOL_PROPERTY
W(SA)
SciTegic.value.DoubleValue
1.904

@<SCITEGIC>MOL_PROPERTY
Valence
SciTegic.value.DoubleValue
6.734

@<SCITEGIC>MOL_PROPERTY
Coulomb
SciTegic.value.DoubleValue
-0.068

@<SCITEGIC>MOL_PROPERTY
VdW
SciTegic.value.DoubleValue
0.598

@<SCITEGIC>MOL_PROPERTY
VdW6
SciTegic.value.DoubleValue
-4.819

@<SCITEGIC>MOL_PROPERTY
VdW12
SciTegic.value.DoubleValue
5.417

@<SCITEGIC>MOL_PROPERTY
Bond
SciTegic.value.DoubleValue
0.107

@<SCITEGIC>MOL_PROPERTY
Angle
SciTegic.value.DoubleValue
2.469

@<SCITEGIC>MOL_PROPERTY
Pdih
SciTegic.value.DoubleValue
4.157

@<SCITEGIC>MOL_PROPERTY
Idih
SciTegic.value.DoubleValue
0.001

@<SCITEGIC>MOL_PROPERTY
Tether
SciTegic.value.DoubleValue
0.000

@<TRIPOS>MOLECULE
guest-s18_confgen4.mol2 : confsearch ligand conformer 835
          16          15           1
SMALL
USER_CHARGES
 
@<TRIPOS>ATOM
       1    C1      19.124558   17.640842   20.558431 C.2        1 MOL1         0.6075
       2    O1      18.031611   17.246109   20.913385 O.co2      1 MOL1        -0.6830
       3    O2      19.351421   18.080502   19.448704 O.co2      1 MOL1        -0.6830
       4    C2      20.278453   17.556627   21.553884 C.3        1 MOL1        -0.2050
       5    H1      21.223770   17.609612   21.000122 H          1 MOL1         0.0710
       6    H2      20.238831   16.564528   22.019076 H          1 MOL1         0.0710
       7    C3      20.242771   18.646491   22.656589 C.3        1 MOL1        -0.1947
       8    H3      19.279543   18.600013   23.183519 H          1 MOL1         0.0712
       9    H4      21.020845   18.426787   23.400156 H          1 MOL1         0.0712
      10    C4      20.463250   20.067576   22.094373 C.3        1 MOL1        -0.1921
      11    H5      19.677956   20.306461   21.363641 H          1 MOL1         0.0712
      12    H6      21.420894   20.109164   21.557190 H          1 MOL1         0.0712
      13    C5      20.456842   21.126914   23.214243 C.3        1 MOL1        -0.2936
      14    H7      19.497510   21.127655   23.748219 H          1 MOL1         0.0724
      15    H8      20.613817   22.130487   22.797929 H          1 MOL1         0.0724
      16    H9      21.255030   20.933513   23.942878 H          1 MOL1         0.0724
@<TRIPOS>BOND
    1     1     2    1
    2     1     3    2
    3     1     4    1
    4     4     5    1
    5     4     6    1
    6     4     7    1
    7     7     8    1
    8     7     9    1
    9     7    10    1
   10    10    11    1
   11    10    12    1
   12    10    13    1
   13    13    14    1
   14    13    15    1
   15    13    16    1
@<TRIPOS>SUBSTRUCTURE
       1 MOL1            1 RESIDUE      1      MOL     
@<SCITEGIC>MOL_PROPERTY
VConf Rank
SciTegic.value.IntegerValue
835

@<SCITEGIC>MOL_PROPERTY
Conf_Id
SciTegic.value.IntegerValue
19

@<SCITEGIC>MOL_PROPERTY
Delta U+W
SciTegic.value.DoubleValue
0.048

@<SCITEGIC>MOL_PROPERTY
U+W
SciTegic.value.DoubleValue
-56.856

@<SCITEGIC>MOL_PROPERTY
Grad RMS
SciTegic.value.DoubleValue
0.000000

@<SCITEGIC>MOL_PROPERTY
U
SciTegic.value.DoubleValue
8.276

@<SCITEGIC>MOL_PROPERTY
W
SciTegic.value.DoubleValue
-65.132

@<SCITEGIC>MOL_PROPERTY
W(PB)
SciTegic.value.DoubleValue
-67.031

@<SCITEGIC>MOL_PROPERTY
W(SA)
SciTegic.value.DoubleValue
1.899

@<SCITEGIC>MOL_PROPERTY
Valence
SciTegic.value.DoubleValue
6.513

@<SCITEGIC>MOL_PROPERTY
Coulomb
SciTegic.value.DoubleValue
1.428

@<SCITEGIC>MOL_PROPERTY
VdW
SciTegic.value.DoubleValue
0.335

@<SCITEGIC>MOL_PROPERTY
VdW6
SciTegic.value.DoubleValue
-5.021

@<SCITEGIC>MOL_PROPERTY
VdW12
SciTegic.value.DoubleValue
5.356

@<SCITEGIC>MOL_PROPERTY
Bond
SciTegic.value.DoubleValue
0.092

@<SCITEGIC>MOL_PROPERTY
Angle
SciTegic.value.DoubleValue
2.417

@<SCITEGIC>MOL_PROPERTY
Pdih
SciTegic.value.DoubleValue
4.003

@<SCITEGIC>MOL_PROPERTY
Idih
SciTegic.value.DoubleValue
0.001

@<SCITEGIC>MOL_PROPERTY
Tether
SciTegic.value.DoubleValue
0.000

@<TRIPOS>MOLECULE
guest-s18_confgen4.mol2 : confsearch ligand conformer 836
          16          15           1
SMALL
USER_CHARGES
 
@<TRIPOS>ATOM
       1    C1      19.132166   17.314119   20.802884 C.2        1 MOL1         0.6075
       2    O1      20.040521   16.661806   20.327782 O.co2      1 MOL1        -0.6830
       3    O2      18.176064   17.700652   20.160450 O.co2      1 MOL1        -0.6830
       4    C2      19.185525   17.644577   22.291994 C.3        1 MOL1        -0.2050
       5    H1      19.463603   16.726019   22.822239 H          1 MOL1         0.0710
       6    H2      18.176201   17.911572   22.628244 H          1 MOL1         0.0710
       7    C3      20.185759   18.773221   22.653570 C.3        1 MOL1        -0.1947
       8    H3      20.260181   18.846687   23.747016 H          1 MOL1         0.0712
       9    H4      21.185963   18.505024   22.285761 H          1 MOL1         0.0712
      10    C4      19.767490   20.144017   22.078975 C.3        1 MOL1        -0.1921
      11    H5      18.762232   20.405110   22.437676 H          1 MOL1         0.0712
      12    H6      19.709588   20.087979   20.982968 H          1 MOL1         0.0712
      13    C5      20.759732   21.253154   22.480996 C.3        1 MOL1        -0.2936
      14    H7      20.812994   21.356141   23.572770 H          1 MOL1         0.0724
      15    H8      20.448596   22.219868   22.064131 H          1 MOL1         0.0724
      16    H9      21.768183   21.031733   22.107565 H          1 MOL1         0.0724
@<TRIPOS>BOND
    1     1     2    1
    2     1     3    2
    3     1     4    1
    4     4     5    1
    5     4     6    1
    6     4     7    1
    7     7     8    1
    8     7     9    1
    9     7    10    1
   10    10    11    1
   11    10    12    1
   12    10    13    1
   13    13    14    1
   14    13    15    1
   15    13    16    1
@<TRIPOS>SUBSTRUCTURE
       1 MOL1            1 RESIDUE      1      MOL     
@<SCITEGIC>MOL_PROPERTY
VConf Rank
SciTegic.value.IntegerValue
836

@<SCITEGIC>MOL_PROPERTY
Conf_Id
SciTegic.value.IntegerValue
20

@<SCITEGIC>MOL_PROPERTY
Delta U+W
SciTegic.value.DoubleValue
-0.010

@<SCITEGIC>MOL_PROPERTY
U+W
SciTegic.value.DoubleValue
-56.914

@<SCITEGIC>MOL_PROPERTY
Grad RMS
SciTegic.value.DoubleValue
0.000000

@<SCITEGIC>MOL_PROPERTY
U
SciTegic.value.DoubleValue
8.277

@<SCITEGIC>MOL_PROPERTY
W
SciTegic.value.DoubleValue
-65.191

@<SCITEGIC>MOL_PROPERTY
W(PB)
SciTegic.value.DoubleValue
-67.081

@<SCITEGIC>MOL_PROPERTY
W(SA)
SciTegic.value.DoubleValue
1.890

@<SCITEGIC>MOL_PROPERTY
Valence
SciTegic.value.DoubleValue
6.513

@<SCITEGIC>MOL_PROPERTY
Coulomb
SciTegic.value.DoubleValue
1.429

@<SCITEGIC>MOL_PROPERTY
VdW
SciTegic.value.DoubleValue
0.335

@<SCITEGIC>MOL_PROPERTY
VdW6
SciTegic.value.DoubleValue
-5.021

@<SCITEGIC>MOL_PROPERTY
VdW12
SciTegic.value.DoubleValue
5.356

@<SCITEGIC>MOL_PROPERTY
Bond
SciTegic.value.DoubleValue
0.092

@<SCITEGIC>MOL_PROPERTY
Angle
SciTegic.value.DoubleValue
2.417

@<SCITEGIC>MOL_PROPERTY
Pdih
SciTegic.value.DoubleValue
4.002

@<SCITEGIC>MOL_PROPERTY
Idih
SciTegic.value.DoubleValue
0.001

@<SCITEGIC>MOL_PROPERTY
Tether
SciTegic.value.DoubleValue
0.000

@<TRIPOS>MOLECULE
guest-s18_confgen4.mol2 : confsearch ligand conformer 837
          16          15           1
SMALL
USER_CHARGES
 
@<TRIPOS>ATOM
       1    C1      18.206643   20.289692   22.948047 C.2        1 MOL1         0.6075
       2    O1      17.046597   20.013997   22.713375 O.co2      1 MOL1        -0.6830
       3    O2      18.654760   21.416970   22.879232 O.co2      1 MOL1        -0.6830
       4    C2      19.139745   19.163651   23.385194 C.3        1 MOL1        -0.2050
       5    H1      18.641462   18.626045   24.200408 H          1 MOL1         0.0710
       6    H2      20.046964   19.604743   23.813723 H          1 MOL1         0.0710
       7    C3      19.499723   18.161035   22.254771 C.3        1 MOL1        -0.1947
       8    H3      20.104454   17.346223   22.675193 H          1 MOL1         0.0712
       9    H4      18.573945   17.698540   21.885464 H          1 MOL1         0.0712
      10    C4      20.254720   18.790972   21.060138 C.3        1 MOL1        -0.1921
      11    H5      19.644472   19.585378   20.608348 H          1 MOL1         0.0712
      12    H6      20.388369   18.024771   20.284122 H          1 MOL1         0.0712
      13    C5      21.638309   19.356913   21.444631 C.3        1 MOL1        -0.2936
      14    H7      21.543271   20.210706   22.127633 H          1 MOL1         0.0724
      15    H8      22.172095   19.705129   20.550943 H          1 MOL1         0.0724
      16    H9      22.256073   18.590984   21.931239 H          1 MOL1         0.0724
@<TRIPOS>BOND
    1     1     2    1
    2     1     3    2
    3     1     4    1
    4     4     5    1
    5     4     6    1
    6     4     7    1
    7     7     8    1
    8     7     9    1
    9     7    10    1
   10    10    11    1
   11    10    12    1
   12    10    13    1
   13    13    14    1
   14    13    15    1
   15    13    16    1
@<TRIPOS>SUBSTRUCTURE
       1 MOL1            1 RESIDUE      1      MOL     
@<SCITEGIC>MOL_PROPERTY
VConf Rank
SciTegic.value.IntegerValue
837

@<SCITEGIC>MOL_PROPERTY
Conf_Id
SciTegic.value.IntegerValue
37

@<SCITEGIC>MOL_PROPERTY
Delta U+W
SciTegic.value.DoubleValue
1.063

@<SCITEGIC>MOL_PROPERTY
U+W
SciTegic.value.DoubleValue
-55.841

@<SCITEGIC>MOL_PROPERTY
Grad RMS
SciTegic.value.DoubleValue
0.000000

@<SCITEGIC>MOL_PROPERTY
U
SciTegic.value.DoubleValue
9.719

@<SCITEGIC>MOL_PROPERTY
W
SciTegic.value.DoubleValue
-65.560

@<SCITEGIC>MOL_PROPERTY
W(PB)
SciTegic.value.DoubleValue
-67.414

@<SCITEGIC>MOL_PROPERTY
W(SA)
SciTegic.value.DoubleValue
1.854

@<SCITEGIC>MOL_PROPERTY
Valence
SciTegic.value.DoubleValue
7.002

@<SCITEGIC>MOL_PROPERTY
Coulomb
SciTegic.value.DoubleValue
2.402

@<SCITEGIC>MOL_PROPERTY
VdW
SciTegic.value.DoubleValue
0.314

@<SCITEGIC>MOL_PROPERTY
VdW6
SciTegic.value.DoubleValue
-5.861

@<SCITEGIC>MOL_PROPERTY
VdW12
SciTegic.value.DoubleValue
6.175

@<SCITEGIC>MOL_PROPERTY
Bond
SciTegic.value.DoubleValue
0.134

@<SCITEGIC>MOL_PROPERTY
Angle
SciTegic.value.DoubleValue
2.733

@<SCITEGIC>MOL_PROPERTY
Pdih
SciTegic.value.DoubleValue
4.133

@<SCITEGIC>MOL_PROPERTY
Idih
SciTegic.value.DoubleValue
0.002

@<SCITEGIC>MOL_PROPERTY
Tether
SciTegic.value.DoubleValue
0.000

@<TRIPOS>MOLECULE
guest-s18_confgen4.mol2 : confsearch ligand conformer 838
          16          15           1
SMALL
USER_CHARGES
 
@<TRIPOS>ATOM
       1    C1      20.105088   21.155174   22.907410 C.2        1 MOL1         0.6075
       2    O1      20.249895   22.125698   22.190542 O.co2      1 MOL1        -0.6830
       3    O2      19.236440   21.069925   23.752680 O.co2      1 MOL1        -0.6830
       4    C2      21.089373   19.997988   22.759591 C.3        1 MOL1        -0.2050
       5    H1      20.998813   19.344911   23.635113 H          1 MOL1         0.0710
       6    H2      22.099232   20.423356   22.793179 H          1 MOL1         0.0710
       7    C3      20.920035   19.182579   21.448442 C.3        1 MOL1        -0.1947
       8    H3      21.070087   19.855371   20.592761 H          1 MOL1         0.0712
       9    H4      21.714963   18.426978   21.389054 H          1 MOL1         0.0712
      10    C4      19.545367   18.487580   21.302651 C.3        1 MOL1        -0.1921
      11    H5      19.494718   18.010493   20.314242 H          1 MOL1         0.0712
      12    H6      18.742354   19.237410   21.325490 H          1 MOL1         0.0712
      13    C5      19.285880   17.418601   22.385422 C.3        1 MOL1        -0.2936
      14    H7      20.093702   16.675629   22.407358 H          1 MOL1         0.0724
      15    H8      18.344960   16.890094   22.184897 H          1 MOL1         0.0724
      16    H9      19.205390   17.872363   23.381468 H          1 MOL1         0.0724
@<TRIPOS>BOND
    1     1     2    1
    2     1     3    2
    3     1     4    1
    4     4     5    1
    5     4     6    1
    6     4     7    1
    7     7     8    1
    8     7     9    1
    9     7    10    1
   10    10    11    1
   11    10    12    1
   12    10    13    1
   13    13    14    1
   14    13    15    1
   15    13    16    1
@<TRIPOS>SUBSTRUCTURE
       1 MOL1            1 RESIDUE      1      MOL     
@<SCITEGIC>MOL_PROPERTY
VConf Rank
SciTegic.value.IntegerValue
838

@<SCITEGIC>MOL_PROPERTY
Conf_Id
SciTegic.value.IntegerValue
39

@<SCITEGIC>MOL_PROPERTY
Delta U+W
SciTegic.value.DoubleValue
1.129

@<SCITEGIC>MOL_PROPERTY
U+W
SciTegic.value.DoubleValue
-55.775

@<SCITEGIC>MOL_PROPERTY
Grad RMS
SciTegic.value.DoubleValue
0.000000

@<SCITEGIC>MOL_PROPERTY
U
SciTegic.value.DoubleValue
9.718

@<SCITEGIC>MOL_PROPERTY
W
SciTegic.value.DoubleValue
-65.493

@<SCITEGIC>MOL_PROPERTY
W(PB)
SciTegic.value.DoubleValue
-67.361

@<SCITEGIC>MOL_PROPERTY
W(SA)
SciTegic.value.DoubleValue
1.869

@<SCITEGIC>MOL_PROPERTY
Valence
SciTegic.value.DoubleValue
7.002

@<SCITEGIC>MOL_PROPERTY
Coulomb
SciTegic.value.DoubleValue
2.402

@<SCITEGIC>MOL_PROPERTY
VdW
SciTegic.value.DoubleValue
0.314

@<SCITEGIC>MOL_PROPERTY
VdW6
SciTegic.value.DoubleValue
-5.861

@<SCITEGIC>MOL_PROPERTY
VdW12
SciTegic.value.DoubleValue
6.175

@<SCITEGIC>MOL_PROPERTY
Bond
SciTegic.value.DoubleValue
0.134

@<SCITEGIC>MOL_PROPERTY
Angle
SciTegic.value.DoubleValue
2.734

@<SCITEGIC>MOL_PROPERTY
Pdih
SciTegic.value.DoubleValue
4.133

@<SCITEGIC>MOL_PROPERTY
Idih
SciTegic.value.DoubleValue
0.002

@<SCITEGIC>MOL_PROPERTY
Tether
SciTegic.value.DoubleValue
0.000

@<TRIPOS>MOLECULE
guest-s18_confgen4.mol2 : confsearch ligand conformer 839
          16          15           1
SMALL
USER_CHARGES
 
@<TRIPOS>ATOM
       1    C1      21.325981   18.217457   23.364902 C.2        1 MOL1         0.6075
       2    O1      21.482161   18.798962   24.420497 O.co2      1 MOL1        -0.6830
       3    O2      22.243427   17.905142   22.631479 O.co2      1 MOL1        -0.6830
       4    C2      19.912789   17.778184   22.985980 C.3        1 MOL1        -0.2050
       5    H1      19.222208   18.067502   23.787462 H          1 MOL1         0.0710
       6    H2      19.925541   16.682235   22.964009 H          1 MOL1         0.0710
       7    C3      19.398154   18.304433   21.616602 C.3        1 MOL1        -0.1947
       8    H3      20.182401   18.195066   20.854672 H          1 MOL1         0.0712
       9    H4      18.570785   17.657896   21.294266 H          1 MOL1         0.0712
      10    C4      18.877441   19.761818   21.637775 C.3        1 MOL1        -0.1921
      11    H5      18.095101   19.867417   22.401989 H          1 MOL1         0.0712
      12    H6      18.396312   19.972738   20.672725 H          1 MOL1         0.0712
      13    C5      19.979890   20.814801   21.874672 C.3        1 MOL1        -0.2936
      14    H7      20.380547   20.751333   22.893713 H          1 MOL1         0.0724
      15    H8      19.578613   21.827600   21.740572 H          1 MOL1         0.0724
      16    H9      20.809937   20.682233   21.168429 H          1 MOL1         0.0724
@<TRIPOS>BOND
    1     1     2    1
    2     1     3    2
    3     1     4    1
    4     4     5    1
    5     4     6    1
    6     4     7    1
    7     7     8    1
    8     7     9    1
    9     7    10    1
   10    10    11    1
   11    10    12    1
   12    10    13    1
   13    13    14    1
   14    13    15    1
   15    13    16    1
@<TRIPOS>SUBSTRUCTURE
       1 MOL1            1 RESIDUE      1      MOL     
@<SCITEGIC>MOL_PROPERTY
VConf Rank
SciTegic.value.IntegerValue
839

@<SCITEGIC>MOL_PROPERTY
Conf_Id
SciTegic.value.IntegerValue
47

@<SCITEGIC>MOL_PROPERTY
Delta U+W
SciTegic.value.DoubleValue
2.301

@<SCITEGIC>MOL_PROPERTY
U+W
SciTegic.value.DoubleValue
-54.603

@<SCITEGIC>MOL_PROPERTY
Grad RMS
SciTegic.value.DoubleValue
0.000000

@<SCITEGIC>MOL_PROPERTY
U
SciTegic.value.DoubleValue
11.258

@<SCITEGIC>MOL_PROPERTY
W
SciTegic.value.DoubleValue
-65.861

@<SCITEGIC>MOL_PROPERTY
W(PB)
SciTegic.value.DoubleValue
-67.702

@<SCITEGIC>MOL_PROPERTY
W(SA)
SciTegic.value.DoubleValue
1.841

@<SCITEGIC>MOL_PROPERTY
Valence
SciTegic.value.DoubleValue
8.169

@<SCITEGIC>MOL_PROPERTY
Coulomb
SciTegic.value.DoubleValue
2.735

@<SCITEGIC>MOL_PROPERTY
VdW
SciTegic.value.DoubleValue
0.355

@<SCITEGIC>MOL_PROPERTY
VdW6
SciTegic.value.DoubleValue
-6.245

@<SCITEGIC>MOL_PROPERTY
VdW12
SciTegic.value.DoubleValue
6.600

@<SCITEGIC>MOL_PROPERTY
Bond
SciTegic.value.DoubleValue
0.149

@<SCITEGIC>MOL_PROPERTY
Angle
SciTegic.value.DoubleValue
3.168

@<SCITEGIC>MOL_PROPERTY
Pdih
SciTegic.value.DoubleValue
4.840

@<SCITEGIC>MOL_PROPERTY
Idih
SciTegic.value.DoubleValue
0.011

@<SCITEGIC>MOL_PROPERTY
Tether
SciTegic.value.DoubleValue
0.000

@<TRIPOS>MOLECULE
guest-s18_confgen4.mol2 : confsearch ligand conformer 840
          16          15           1
SMALL
USER_CHARGES
 
@<TRIPOS>ATOM
       1    C1      18.061040   18.285579   22.314893 C.2        1 MOL1         0.6075
       2    O1      17.354753   18.849662   21.502410 O.co2      1 MOL1        -0.6830
       3    O2      17.713863   18.054552   23.456345 O.co2      1 MOL1        -0.6830
       4    C2      19.419222   17.759769   21.853880 C.3        1 MOL1        -0.2050
       5    H1      19.214809   17.025213   21.066231 H          1 MOL1         0.0710
       6    H2      19.888552   17.211318   22.679657 H          1 MOL1         0.0710
       7    C3      20.394962   18.835727   21.299594 C.3        1 MOL1        -0.1947
       8    H3      21.148561   18.325336   20.684740 H          1 MOL1         0.0712
       9    H4      19.858765   19.513380   20.620757 H          1 MOL1         0.0712
      10    C4      21.142617   19.650506   22.382510 C.3        1 MOL1        -0.1921
      11    H5      21.912461   20.259676   21.889005 H          1 MOL1         0.0712
      12    H6      21.675774   18.969430   23.060087 H          1 MOL1         0.0712
      13    C5      20.228962   20.586524   23.200673 C.3        1 MOL1        -0.2936
      14    H7      20.828660   21.235914   23.851383 H          1 MOL1         0.0724
      15    H8      19.545899   20.017046   23.842638 H          1 MOL1         0.0724
      16    H9      19.629255   21.227384   22.541144 H          1 MOL1         0.0724
@<TRIPOS>BOND
    1     1     2    1
    2     1     3    2
    3     1     4    1
    4     4     5    1
    5     4     6    1
    6     4     7    1
    7     7     8    1
    8     7     9    1
    9     7    10    1
   10    10    11    1
   11    10    12    1
   12    10    13    1
   13    13    14    1
   14    13    15    1
   15    13    16    1
@<TRIPOS>SUBSTRUCTURE
       1 MOL1            1 RESIDUE      1      MOL     
@<SCITEGIC>MOL_PROPERTY
VConf Rank
SciTegic.value.IntegerValue
840

@<SCITEGIC>MOL_PROPERTY
Conf_Id
SciTegic.value.IntegerValue
45

@<SCITEGIC>MOL_PROPERTY
Delta U+W
SciTegic.value.DoubleValue
2.303

@<SCITEGIC>MOL_PROPERTY
U+W
SciTegic.value.DoubleValue
-54.601

@<SCITEGIC>MOL_PROPERTY
Grad RMS
SciTegic.value.DoubleValue
0.000000

@<SCITEGIC>MOL_PROPERTY
U
SciTegic.value.DoubleValue
11.258

@<SCITEGIC>MOL_PROPERTY
W
SciTegic.value.DoubleValue
-65.860

@<SCITEGIC>MOL_PROPERTY
W(PB)
SciTegic.value.DoubleValue
-67.709

@<SCITEGIC>MOL_PROPERTY
W(SA)
SciTegic.value.DoubleValue
1.849

@<SCITEGIC>MOL_PROPERTY
Valence
SciTegic.value.DoubleValue
8.169

@<SCITEGIC>MOL_PROPERTY
Coulomb
SciTegic.value.DoubleValue
2.735

@<SCITEGIC>MOL_PROPERTY
VdW
SciTegic.value.DoubleValue
0.355

@<SCITEGIC>MOL_PROPERTY
VdW6
SciTegic.value.DoubleValue
-6.245

@<SCITEGIC>MOL_PROPERTY
VdW12
SciTegic.value.DoubleValue
6.600

@<SCITEGIC>MOL_PROPERTY
Bond
SciTegic.value.DoubleValue
0.149

@<SCITEGIC>MOL_PROPERTY
Angle
SciTegic.value.DoubleValue
3.168

@<SCITEGIC>MOL_PROPERTY
Pdih
SciTegic.value.DoubleValue
4.840

@<SCITEGIC>MOL_PROPERTY
Idih
SciTegic.value.DoubleValue
0.011

@<SCITEGIC>MOL_PROPERTY
Tether
SciTegic.value.DoubleValue
0.000

@<TRIPOS>MOLECULE
guest-s18_confgen4.mol2 : confsearch ligand conformer 841
          16          15           1
SMALL
USER_CHARGES
 
@<TRIPOS>ATOM
       1    C1      21.415611   17.558767   23.707445 C.2        1 MOL1         0.6075
       2    O1      20.512168   16.763276   23.877040 O.co2      1 MOL1        -0.6830
       3    O2      22.492033   17.466580   24.262539 O.co2      1 MOL1        -0.6830
       4    C2      21.218793   18.741514   22.757567 C.3        1 MOL1        -0.2050
       5    H1      22.004309   18.682943   21.994878 H          1 MOL1         0.0710
       6    H2      21.398532   19.657108   23.333367 H          1 MOL1         0.0710
       7    C3      19.828472   18.818367   22.072404 C.3        1 MOL1        -0.1947
       8    H3      19.651768   17.896195   21.501576 H          1 MOL1         0.0712
       9    H4      19.045375   18.871379   22.841441 H          1 MOL1         0.0712
      10    C4      19.718084   20.038628   21.134301 C.3        1 MOL1        -0.1921
      11    H5      20.499619   19.985922   20.363636 H          1 MOL1         0.0712
      12    H6      19.892863   20.961698   21.704294 H          1 MOL1         0.0712
      13    C5      18.335249   20.109475   20.456887 C.3        1 MOL1        -0.2936
      14    H7      18.146862   19.211483   19.853903 H          1 MOL1         0.0724
      15    H8      18.273566   20.982186   19.793779 H          1 MOL1         0.0724
      16    H9      17.535625   20.194459   21.204449 H          1 MOL1         0.0724
@<TRIPOS>BOND
    1     1     2    1
    2     1     3    2
    3     1     4    1
    4     4     5    1
    5     4     6    1
    6     4     7    1
    7     7     8    1
    8     7     9    1
    9     7    10    1
   10    10    11    1
   11    10    12    1
   12    10    13    1
   13    13    14    1
   14    13    15    1
   15    13    16    1
@<TRIPOS>SUBSTRUCTURE
       1 MOL1            1 RESIDUE      1      MOL     
@<SCITEGIC>MOL_PROPERTY
VConf Rank
SciTegic.value.IntegerValue
841

@<SCITEGIC>MOL_PROPERTY
Conf_Id
SciTegic.value.IntegerValue
0

@<SCITEGIC>MOL_PROPERTY
Delta U+W
SciTegic.value.DoubleValue
0.000

@<SCITEGIC>MOL_PROPERTY
U+W
SciTegic.value.DoubleValue
-56.904

@<SCITEGIC>MOL_PROPERTY
Grad RMS
SciTegic.value.DoubleValue
0.000000

@<SCITEGIC>MOL_PROPERTY
U
SciTegic.value.DoubleValue
7.329

@<SCITEGIC>MOL_PROPERTY
W
SciTegic.value.DoubleValue
-64.233

@<SCITEGIC>MOL_PROPERTY
W(PB)
SciTegic.value.DoubleValue
-66.148

@<SCITEGIC>MOL_PROPERTY
W(SA)
SciTegic.value.DoubleValue
1.915

@<SCITEGIC>MOL_PROPERTY
Valence
SciTegic.value.DoubleValue
6.755

@<SCITEGIC>MOL_PROPERTY
Coulomb
SciTegic.value.DoubleValue
-0.421

@<SCITEGIC>MOL_PROPERTY
VdW
SciTegic.value.DoubleValue
0.995

@<SCITEGIC>MOL_PROPERTY
VdW6
SciTegic.value.DoubleValue
-4.495

@<SCITEGIC>MOL_PROPERTY
VdW12
SciTegic.value.DoubleValue
5.490

@<SCITEGIC>MOL_PROPERTY
Bond
SciTegic.value.DoubleValue
0.106

@<SCITEGIC>MOL_PROPERTY
Angle
SciTegic.value.DoubleValue
2.715

@<SCITEGIC>MOL_PROPERTY
Pdih
SciTegic.value.DoubleValue
3.934

@<SCITEGIC>MOL_PROPERTY
Idih
SciTegic.value.DoubleValue
0.000

@<SCITEGIC>MOL_PROPERTY
Tether
SciTegic.value.DoubleValue
0.000

@<TRIPOS>MOLECULE
guest-s18_confgen4.mol2 : confsearch ligand conformer 842
          16          15           1
SMALL
USER_CHARGES
 
@<TRIPOS>ATOM
       1    C1      18.041619   19.388085   20.094169 C.2        1 MOL1         0.6075
       2    O1      17.623013   20.520145   19.956138 O.co2      1 MOL1        -0.6830
       3    O2      18.063102   18.565911   19.200070 O.co2      1 MOL1        -0.6830
       4    C2      18.586506   18.982680   21.459206 C.3        1 MOL1        -0.2050
       5    H1      18.384554   17.914388   21.603484 H          1 MOL1         0.0710
       6    H2      18.021825   19.525620   22.226801 H          1 MOL1         0.0710
       7    C3      20.101519   19.264845   21.611457 C.3        1 MOL1        -0.1947
       8    H3      20.651899   18.724488   20.828740 H          1 MOL1         0.0712
       9    H4      20.289170   20.335787   21.452018 H          1 MOL1         0.0712
      10    C4      20.626893   18.845867   23.000342 C.3        1 MOL1        -0.1921
      11    H5      20.440036   17.774808   23.159887 H          1 MOL1         0.0712
      12    H6      20.077184   19.386499   23.783333 H          1 MOL1         0.0712
      13    C5      22.135126   19.129585   23.144702 C.3        1 MOL1        -0.2936
      14    H7      22.347135   20.199701   23.020706 H          1 MOL1         0.0724
      15    H8      22.712665   18.576123   22.392639 H          1 MOL1         0.0724
      16    H9      22.492499   18.826059   24.137328 H          1 MOL1         0.0724
@<TRIPOS>BOND
    1     1     2    1
    2     1     3    2
    3     1     4    1
    4     4     5    1
    5     4     6    1
    6     4     7    1
    7     7     8    1
    8     7     9    1
    9     7    10    1
   10    10    11    1
   11    10    12    1
   12    10    13    1
   13    13    14    1
   14    13    15    1
   15    13    16    1
@<TRIPOS>SUBSTRUCTURE
       1 MOL1            1 RESIDUE      1      MOL     
@<SCITEGIC>MOL_PROPERTY
VConf Rank
SciTegic.value.IntegerValue
842

@<SCITEGIC>MOL_PROPERTY
Conf_Id
SciTegic.value.IntegerValue
22

@<SCITEGIC>MOL_PROPERTY
Delta U+W
SciTegic.value.DoubleValue
-1.185

@<SCITEGIC>MOL_PROPERTY
U+W
SciTegic.value.DoubleValue
-58.089

@<SCITEGIC>MOL_PROPERTY
Grad RMS
SciTegic.value.DoubleValue
0.000000

@<SCITEGIC>MOL_PROPERTY
U
SciTegic.value.DoubleValue
6.298

@<SCITEGIC>MOL_PROPERTY
W
SciTegic.value.DoubleValue
-64.387

@<SCITEGIC>MOL_PROPERTY
W(PB)
SciTegic.value.DoubleValue
-66.329

@<SCITEGIC>MOL_PROPERTY
W(SA)
SciTegic.value.DoubleValue
1.942

@<SCITEGIC>MOL_PROPERTY
Valence
SciTegic.value.DoubleValue
6.246

@<SCITEGIC>MOL_PROPERTY
Coulomb
SciTegic.value.DoubleValue
-0.408

@<SCITEGIC>MOL_PROPERTY
VdW
SciTegic.value.DoubleValue
0.460

@<SCITEGIC>MOL_PROPERTY
VdW6
SciTegic.value.DoubleValue
-4.207

@<SCITEGIC>MOL_PROPERTY
VdW12
SciTegic.value.DoubleValue
4.667

@<SCITEGIC>MOL_PROPERTY
Bond
SciTegic.value.DoubleValue
0.072

@<SCITEGIC>MOL_PROPERTY
Angle
SciTegic.value.DoubleValue
2.246

@<SCITEGIC>MOL_PROPERTY
Pdih
SciTegic.value.DoubleValue
3.928

@<SCITEGIC>MOL_PROPERTY
Idih
SciTegic.value.DoubleValue
0.001

@<SCITEGIC>MOL_PROPERTY
Tether
SciTegic.value.DoubleValue
0.000

@<TRIPOS>MOLECULE
guest-s18_confgen4.mol2 : confsearch ligand conformer 843
          16          15           1
SMALL
USER_CHARGES
 
@<TRIPOS>ATOM
       1    C1      20.629449   18.026458   24.225982 C.2        1 MOL1         0.6075
       2    O1      21.527584   18.452459   24.924461 O.co2      1 MOL1        -0.6830
       3    O2      20.214023   16.886459   24.287466 O.co2      1 MOL1        -0.6830
       4    C2      20.003706   18.968123   23.203101 C.3        1 MOL1        -0.2050
       5    H1      20.034972   19.984957   23.612534 H          1 MOL1         0.0710
       6    H2      18.948250   18.692747   23.096808 H          1 MOL1         0.0710
       7    C3      20.719635   18.923591   21.828162 C.3        1 MOL1        -0.1947
       8    H3      21.790227   19.118301   21.980962 H          1 MOL1         0.0712
       9    H4      20.644831   17.910844   21.408573 H          1 MOL1         0.0712
      10    C4      20.167778   19.951302   20.813434 C.3        1 MOL1        -0.1921
      11    H5      20.796024   19.930147   19.912230 H          1 MOL1         0.0712
      12    H6      20.253327   20.965272   21.228074 H          1 MOL1         0.0712
      13    C5      18.703946   19.678791   20.406164 C.3        1 MOL1        -0.2936
      14    H7      18.021738   19.801303   21.256673 H          1 MOL1         0.0724
      15    H8      18.588190   18.659524   20.015081 H          1 MOL1         0.0724
      16    H9      18.387038   20.379292   19.622663 H          1 MOL1         0.0724
@<TRIPOS>BOND
    1     1     2    1
    2     1     3    2
    3     1     4    1
    4     4     5    1
    5     4     6    1
    6     4     7    1
    7     7     8    1
    8     7     9    1
    9     7    10    1
   10    10    11    1
   11    10    12    1
   12    10    13    1
   13    13    14    1
   14    13    15    1
   15    13    16    1
@<TRIPOS>SUBSTRUCTURE
       1 MOL1            1 RESIDUE      1      MOL     
@<SCITEGIC>MOL_PROPERTY
VConf Rank
SciTegic.value.IntegerValue
843

@<SCITEGIC>MOL_PROPERTY
Conf_Id
SciTegic.value.IntegerValue
36

@<SCITEGIC>MOL_PROPERTY
Delta U+W
SciTegic.value.DoubleValue
-0.427

@<SCITEGIC>MOL_PROPERTY
U+W
SciTegic.value.DoubleValue
-57.331

@<SCITEGIC>MOL_PROPERTY
Grad RMS
SciTegic.value.DoubleValue
0.000000

@<SCITEGIC>MOL_PROPERTY
U
SciTegic.value.DoubleValue
7.263

@<SCITEGIC>MOL_PROPERTY
W
SciTegic.value.DoubleValue
-64.594

@<SCITEGIC>MOL_PROPERTY
W(PB)
SciTegic.value.DoubleValue
-66.513

@<SCITEGIC>MOL_PROPERTY
W(SA)
SciTegic.value.DoubleValue
1.920

@<SCITEGIC>MOL_PROPERTY
Valence
SciTegic.value.DoubleValue
6.734

@<SCITEGIC>MOL_PROPERTY
Coulomb
SciTegic.value.DoubleValue
-0.068

@<SCITEGIC>MOL_PROPERTY
VdW
SciTegic.value.DoubleValue
0.598

@<SCITEGIC>MOL_PROPERTY
VdW6
SciTegic.value.DoubleValue
-4.819

@<SCITEGIC>MOL_PROPERTY
VdW12
SciTegic.value.DoubleValue
5.417

@<SCITEGIC>MOL_PROPERTY
Bond
SciTegic.value.DoubleValue
0.107

@<SCITEGIC>MOL_PROPERTY
Angle
SciTegic.value.DoubleValue
2.469

@<SCITEGIC>MOL_PROPERTY
Pdih
SciTegic.value.DoubleValue
4.157

@<SCITEGIC>MOL_PROPERTY
Idih
SciTegic.value.DoubleValue
0.001

@<SCITEGIC>MOL_PROPERTY
Tether
SciTegic.value.DoubleValue
0.000

@<TRIPOS>MOLECULE
guest-s18_confgen4.mol2 : confsearch ligand conformer 844
          16          15           1
SMALL
USER_CHARGES
 
@<TRIPOS>ATOM
       1    C1      17.401581   18.781582   22.034795 C.2        1 MOL1         0.6075
       2    O1      16.942289   19.031213   23.131468 O.co2      1 MOL1        -0.6830
       3    O2      16.823990   18.112484   21.201313 O.co2      1 MOL1        -0.6830
       4    C2      18.786387   19.320151   21.692992 C.3        1 MOL1        -0.2050
       5    H1      18.906742   20.281956   22.204423 H          1 MOL1         0.0710
       6    H2      18.817962   19.518743   20.614970 H          1 MOL1         0.0710
       7    C3      19.925325   18.345465   22.090236 C.3        1 MOL1        -0.1947
       8    H3      19.910202   18.187707   23.177523 H          1 MOL1         0.0712
       9    H4      19.728509   17.366568   21.631482 H          1 MOL1         0.0712
      10    C4      21.327764   18.826472   21.651825 C.3        1 MOL1        -0.1921
      11    H5      21.346482   18.973026   20.562995 H          1 MOL1         0.0712
      12    H6      22.057297   18.034694   21.871323 H          1 MOL1         0.0712
      13    C5      21.774371   20.124421   22.358083 C.3        1 MOL1        -0.2936
      14    H7      21.138223   20.973025   22.077065 H          1 MOL1         0.0724
      15    H8      22.806082   20.376586   22.080607 H          1 MOL1         0.0724
      16    H9      21.736083   20.011046   23.449380 H          1 MOL1         0.0724
@<TRIPOS>BOND
    1     1     2    1
    2     1     3    2
    3     1     4    1
    4     4     5    1
    5     4     6    1
    6     4     7    1
    7     7     8    1
    8     7     9    1
    9     7    10    1
   10    10    11    1
   11    10    12    1
   12    10    13    1
   13    13    14    1
   14    13    15    1
   15    13    16    1
@<TRIPOS>SUBSTRUCTURE
       1 MOL1            1 RESIDUE      1      MOL     
@<SCITEGIC>MOL_PROPERTY
VConf Rank
SciTegic.value.IntegerValue
844

@<SCITEGIC>MOL_PROPERTY
Conf_Id
SciTegic.value.IntegerValue
17

@<SCITEGIC>MOL_PROPERTY
Delta U+W
SciTegic.value.DoubleValue
-0.432

@<SCITEGIC>MOL_PROPERTY
U+W
SciTegic.value.DoubleValue
-57.336

@<SCITEGIC>MOL_PROPERTY
Grad RMS
SciTegic.value.DoubleValue
0.000000

@<SCITEGIC>MOL_PROPERTY
U
SciTegic.value.DoubleValue
7.263

@<SCITEGIC>MOL_PROPERTY
W
SciTegic.value.DoubleValue
-64.599

@<SCITEGIC>MOL_PROPERTY
W(PB)
SciTegic.value.DoubleValue
-66.503

@<SCITEGIC>MOL_PROPERTY
W(SA)
SciTegic.value.DoubleValue
1.904

@<SCITEGIC>MOL_PROPERTY
Valence
SciTegic.value.DoubleValue
6.734

@<SCITEGIC>MOL_PROPERTY
Coulomb
SciTegic.value.DoubleValue
-0.068

@<SCITEGIC>MOL_PROPERTY
VdW
SciTegic.value.DoubleValue
0.598

@<SCITEGIC>MOL_PROPERTY
VdW6
SciTegic.value.DoubleValue
-4.819

@<SCITEGIC>MOL_PROPERTY
VdW12
SciTegic.value.DoubleValue
5.417

@<SCITEGIC>MOL_PROPERTY
Bond
SciTegic.value.DoubleValue
0.107

@<SCITEGIC>MOL_PROPERTY
Angle
SciTegic.value.DoubleValue
2.469

@<SCITEGIC>MOL_PROPERTY
Pdih
SciTegic.value.DoubleValue
4.157

@<SCITEGIC>MOL_PROPERTY
Idih
SciTegic.value.DoubleValue
0.001

@<SCITEGIC>MOL_PROPERTY
Tether
SciTegic.value.DoubleValue
0.000

@<TRIPOS>MOLECULE
guest-s18_confgen4.mol2 : confsearch ligand conformer 845
          16          15           1
SMALL
USER_CHARGES
 
@<TRIPOS>ATOM
       1    C1      18.128744   20.379960   22.261061 C.2        1 MOL1         0.6075
       2    O1      18.241195   21.535973   21.904228 O.co2      1 MOL1        -0.6830
       3    O2      17.236401   19.645613   21.885931 O.co2      1 MOL1        -0.6830
       4    C2      19.150643   19.830029   23.252419 C.3        1 MOL1        -0.2050
       5    H1      18.730333   18.936367   23.729695 H          1 MOL1         0.0710
       6    H2      19.278851   20.580250   24.041700 H          1 MOL1         0.0710
       7    C3      20.529156   19.501644   22.622421 C.3        1 MOL1        -0.1947
       8    H3      20.924452   20.397650   22.123885 H          1 MOL1         0.0712
       9    H4      21.236035   19.248021   23.424017 H          1 MOL1         0.0712
      10    C4      20.459103   18.331803   21.617062 C.3        1 MOL1        -0.1921
      11    H5      19.769659   18.582837   20.798910 H          1 MOL1         0.0712
      12    H6      20.052073   17.440165   22.113735 H          1 MOL1         0.0712
      13    C5      21.847068   18.004297   21.031710 C.3        1 MOL1        -0.2936
      14    H7      22.264060   18.870969   20.502138 H          1 MOL1         0.0724
      15    H8      21.779479   17.171986   20.319104 H          1 MOL1         0.0724
      16    H9      22.549847   17.715719   21.824326 H          1 MOL1         0.0724
@<TRIPOS>BOND
    1     1     2    1
    2     1     3    2
    3     1     4    1
    4     4     5    1
    5     4     6    1
    6     4     7    1
    7     7     8    1
    8     7     9    1
    9     7    10    1
   10    10    11    1
   11    10    12    1
   12    10    13    1
   13    13    14    1
   14    13    15    1
   15    13    16    1
@<TRIPOS>SUBSTRUCTURE
       1 MOL1            1 RESIDUE      1      MOL     
@<SCITEGIC>MOL_PROPERTY
VConf Rank
SciTegic.value.IntegerValue
845

@<SCITEGIC>MOL_PROPERTY
Conf_Id
SciTegic.value.IntegerValue
19

@<SCITEGIC>MOL_PROPERTY
Delta U+W
SciTegic.value.DoubleValue
0.048

@<SCITEGIC>MOL_PROPERTY
U+W
SciTegic.value.DoubleValue
-56.856

@<SCITEGIC>MOL_PROPERTY
Grad RMS
SciTegic.value.DoubleValue
0.000000

@<SCITEGIC>MOL_PROPERTY
U
SciTegic.value.DoubleValue
8.276

@<SCITEGIC>MOL_PROPERTY
W
SciTegic.value.DoubleValue
-65.132

@<SCITEGIC>MOL_PROPERTY
W(PB)
SciTegic.value.DoubleValue
-67.031

@<SCITEGIC>MOL_PROPERTY
W(SA)
SciTegic.value.DoubleValue
1.899

@<SCITEGIC>MOL_PROPERTY
Valence
SciTegic.value.DoubleValue
6.513

@<SCITEGIC>MOL_PROPERTY
Coulomb
SciTegic.value.DoubleValue
1.428

@<SCITEGIC>MOL_PROPERTY
VdW
SciTegic.value.DoubleValue
0.335

@<SCITEGIC>MOL_PROPERTY
VdW6
SciTegic.value.DoubleValue
-5.021

@<SCITEGIC>MOL_PROPERTY
VdW12
SciTegic.value.DoubleValue
5.356

@<SCITEGIC>MOL_PROPERTY
Bond
SciTegic.value.DoubleValue
0.092

@<SCITEGIC>MOL_PROPERTY
Angle
SciTegic.value.DoubleValue
2.417

@<SCITEGIC>MOL_PROPERTY
Pdih
SciTegic.value.DoubleValue
4.003

@<SCITEGIC>MOL_PROPERTY
Idih
SciTegic.value.DoubleValue
0.001

@<SCITEGIC>MOL_PROPERTY
Tether
SciTegic.value.DoubleValue
0.000

@<TRIPOS>MOLECULE
guest-s18_confgen4.mol2 : confsearch ligand conformer 846
          16          15           1
SMALL
USER_CHARGES
 
@<TRIPOS>ATOM
       1    C1      17.613058   19.889026   22.174214 C.2        1 MOL1         0.6075
       2    O1      17.397028   20.701543   23.051419 O.co2      1 MOL1        -0.6830
       3    O2      16.926523   18.904016   21.987972 O.co2      1 MOL1        -0.6830
       4    C2      18.797164   20.133186   21.242670 C.3        1 MOL1        -0.2050
       5    H1      18.766724   21.187347   20.942580 H          1 MOL1         0.0710
       6    H2      18.654396   19.539848   20.331268 H          1 MOL1         0.0710
       7    C3      20.176322   19.815826   21.876902 C.3        1 MOL1        -0.1947
       8    H3      20.968410   20.149631   21.192994 H          1 MOL1         0.0712
       9    H4      20.293206   20.395425   22.803199 H          1 MOL1         0.0712
      10    C4      20.361377   18.311969   22.174158 C.3        1 MOL1        -0.1921
      11    H5      20.231987   17.732732   21.249431 H          1 MOL1         0.0712
      12    H6      19.585821   17.971118   22.874198 H          1 MOL1         0.0712
      13    C5      21.751862   18.019847   22.772129 C.3        1 MOL1        -0.2936
      14    H7      22.548744   18.318912   22.078620 H          1 MOL1         0.0724
      15    H8      21.866566   16.947698   22.978181 H          1 MOL1         0.0724
      16    H9      21.895611   18.563554   23.715087 H          1 MOL1         0.0724
@<TRIPOS>BOND
    1     1     2    1
    2     1     3    2
    3     1     4    1
    4     4     5    1
    5     4     6    1
    6     4     7    1
    7     7     8    1
    8     7     9    1
    9     7    10    1
   10    10    11    1
   11    10    12    1
   12    10    13    1
   13    13    14    1
   14    13    15    1
   15    13    16    1
@<TRIPOS>SUBSTRUCTURE
       1 MOL1            1 RESIDUE      1      MOL     
@<SCITEGIC>MOL_PROPERTY
VConf Rank
SciTegic.value.IntegerValue
846

@<SCITEGIC>MOL_PROPERTY
Conf_Id
SciTegic.value.IntegerValue
20

@<SCITEGIC>MOL_PROPERTY
Delta U+W
SciTegic.value.DoubleValue
-0.010

@<SCITEGIC>MOL_PROPERTY
U+W
SciTegic.value.DoubleValue
-56.914

@<SCITEGIC>MOL_PROPERTY
Grad RMS
SciTegic.value.DoubleValue
0.000000

@<SCITEGIC>MOL_PROPERTY
U
SciTegic.value.DoubleValue
8.277

@<SCITEGIC>MOL_PROPERTY
W
SciTegic.value.DoubleValue
-65.191

@<SCITEGIC>MOL_PROPERTY
W(PB)
SciTegic.value.DoubleValue
-67.081

@<SCITEGIC>MOL_PROPERTY
W(SA)
SciTegic.value.DoubleValue
1.890

@<SCITEGIC>MOL_PROPERTY
Valence
SciTegic.value.DoubleValue
6.513

@<SCITEGIC>MOL_PROPERTY
Coulomb
SciTegic.value.DoubleValue
1.429

@<SCITEGIC>MOL_PROPERTY
VdW
SciTegic.value.DoubleValue
0.335

@<SCITEGIC>MOL_PROPERTY
VdW6
SciTegic.value.DoubleValue
-5.021

@<SCITEGIC>MOL_PROPERTY
VdW12
SciTegic.value.DoubleValue
5.356

@<SCITEGIC>MOL_PROPERTY
Bond
SciTegic.value.DoubleValue
0.092

@<SCITEGIC>MOL_PROPERTY
Angle
SciTegic.value.DoubleValue
2.417

@<SCITEGIC>MOL_PROPERTY
Pdih
SciTegic.value.DoubleValue
4.002

@<SCITEGIC>MOL_PROPERTY
Idih
SciTegic.value.DoubleValue
0.001

@<SCITEGIC>MOL_PROPERTY
Tether
SciTegic.value.DoubleValue
0.000

@<TRIPOS>MOLECULE
guest-s18_confgen4.mol2 : confsearch ligand conformer 847
          16          15           1
SMALL
USER_CHARGES
 
@<TRIPOS>ATOM
       1    C1      21.915095   19.771016   21.981548 C.2        1 MOL1         0.6075
       2    O1      22.332170   20.415864   21.039738 O.co2      1 MOL1        -0.6830
       3    O2      22.479521   18.790714   22.425092 O.co2      1 MOL1        -0.6830
       4    C2      20.632151   20.239624   22.662876 C.3        1 MOL1        -0.2050
       5    H1      20.749693   21.308069   22.878492 H          1 MOL1         0.0710
       6    H2      20.544110   19.735634   23.632149 H          1 MOL1         0.0710
       7    C3      19.347708   20.025935   21.815987 C.3        1 MOL1        -0.1947
       8    H3      18.490214   20.462059   22.345959 H          1 MOL1         0.0712
       9    H4      19.447105   20.587249   20.876624 H          1 MOL1         0.0712
      10    C4      19.041631   18.546068   21.483870 C.3        1 MOL1        -0.1921
      11    H5      19.878302   18.107493   20.922415 H          1 MOL1         0.0712
      12    H6      18.168627   18.507608   20.817902 H          1 MOL1         0.0712
      13    C5      18.752081   17.688904   22.734419 C.3        1 MOL1        -0.2936
      14    H7      19.642325   17.598577   23.369867 H          1 MOL1         0.0724
      15    H8      18.448776   16.675116   22.442700 H          1 MOL1         0.0724
      16    H9      17.942090   18.125818   23.332823 H          1 MOL1         0.0724
@<TRIPOS>BOND
    1     1     2    1
    2     1     3    2
    3     1     4    1
    4     4     5    1
    5     4     6    1
    6     4     7    1
    7     7     8    1
    8     7     9    1
    9     7    10    1
   10    10    11    1
   11    10    12    1
   12    10    13    1
   13    13    14    1
   14    13    15    1
   15    13    16    1
@<TRIPOS>SUBSTRUCTURE
       1 MOL1            1 RESIDUE      1      MOL     
@<SCITEGIC>MOL_PROPERTY
VConf Rank
SciTegic.value.IntegerValue
847

@<SCITEGIC>MOL_PROPERTY
Conf_Id
SciTegic.value.IntegerValue
37

@<SCITEGIC>MOL_PROPERTY
Delta U+W
SciTegic.value.DoubleValue
1.063

@<SCITEGIC>MOL_PROPERTY
U+W
SciTegic.value.DoubleValue
-55.841

@<SCITEGIC>MOL_PROPERTY
Grad RMS
SciTegic.value.DoubleValue
0.000000

@<SCITEGIC>MOL_PROPERTY
U
SciTegic.value.DoubleValue
9.719

@<SCITEGIC>MOL_PROPERTY
W
SciTegic.value.DoubleValue
-65.560

@<SCITEGIC>MOL_PROPERTY
W(PB)
SciTegic.value.DoubleValue
-67.414

@<SCITEGIC>MOL_PROPERTY
W(SA)
SciTegic.value.DoubleValue
1.854

@<SCITEGIC>MOL_PROPERTY
Valence
SciTegic.value.DoubleValue
7.002

@<SCITEGIC>MOL_PROPERTY
Coulomb
SciTegic.value.DoubleValue
2.402

@<SCITEGIC>MOL_PROPERTY
VdW
SciTegic.value.DoubleValue
0.314

@<SCITEGIC>MOL_PROPERTY
VdW6
SciTegic.value.DoubleValue
-5.861

@<SCITEGIC>MOL_PROPERTY
VdW12
SciTegic.value.DoubleValue
6.175

@<SCITEGIC>MOL_PROPERTY
Bond
SciTegic.value.DoubleValue
0.134

@<SCITEGIC>MOL_PROPERTY
Angle
SciTegic.value.DoubleValue
2.733

@<SCITEGIC>MOL_PROPERTY
Pdih
SciTegic.value.DoubleValue
4.133

@<SCITEGIC>MOL_PROPERTY
Idih
SciTegic.value.DoubleValue
0.002

@<SCITEGIC>MOL_PROPERTY
Tether
SciTegic.value.DoubleValue
0.000

@<TRIPOS>MOLECULE
guest-s18_confgen4.mol2 : confsearch ligand conformer 848
          16          15           1
SMALL
USER_CHARGES
 
@<TRIPOS>ATOM
       1    C1      18.108684   18.954228   21.487901 C.2        1 MOL1         0.6075
       2    O1      17.815294   18.739906   20.328257 O.co2      1 MOL1        -0.6830
       3    O2      17.609946   18.363948   22.425520 O.co2      1 MOL1        -0.6830
       4    C2      19.132807   20.047410   21.780939 C.3        1 MOL1        -0.2050
       5    H1      19.082072   20.300815   22.846049 H          1 MOL1         0.0710
       6    H2      18.817868   20.943607   21.233649 H          1 MOL1         0.0710
       7    C3      20.586646   19.682578   21.373592 C.3        1 MOL1        -0.1947
       8    H3      20.611680   19.487540   20.292534 H          1 MOL1         0.0712
       9    H4      21.237272   20.550737   21.544932 H          1 MOL1         0.0712
      10    C4      21.168377   18.456191   22.116259 C.3        1 MOL1        -0.1921
      11    H5      22.160522   18.230979   21.701462 H          1 MOL1         0.0712
      12    H6      20.545028   17.571786   21.924266 H          1 MOL1         0.0712
      13    C5      21.302753   18.673785   23.638441 C.3        1 MOL1        -0.2936
      14    H7      21.892670   19.573286   23.857441 H          1 MOL1         0.0724
      15    H8      21.805463   17.817020   24.105449 H          1 MOL1         0.0724
      16    H9      20.319214   18.780333   24.113610 H          1 MOL1         0.0724
@<TRIPOS>BOND
    1     1     2    1
    2     1     3    2
    3     1     4    1
    4     4     5    1
    5     4     6    1
    6     4     7    1
    7     7     8    1
    8     7     9    1
    9     7    10    1
   10    10    11    1
   11    10    12    1
   12    10    13    1
   13    13    14    1
   14    13    15    1
   15    13    16    1
@<TRIPOS>SUBSTRUCTURE
       1 MOL1            1 RESIDUE      1      MOL     
@<SCITEGIC>MOL_PROPERTY
VConf Rank
SciTegic.value.IntegerValue
848

@<SCITEGIC>MOL_PROPERTY
Conf_Id
SciTegic.value.IntegerValue
39

@<SCITEGIC>MOL_PROPERTY
Delta U+W
SciTegic.value.DoubleValue
1.129

@<SCITEGIC>MOL_PROPERTY
U+W
SciTegic.value.DoubleValue
-55.775

@<SCITEGIC>MOL_PROPERTY
Grad RMS
SciTegic.value.DoubleValue
0.000000

@<SCITEGIC>MOL_PROPERTY
U
SciTegic.value.DoubleValue
9.718

@<SCITEGIC>MOL_PROPERTY
W
SciTegic.value.DoubleValue
-65.493

@<SCITEGIC>MOL_PROPERTY
W(PB)
SciTegic.value.DoubleValue
-67.361

@<SCITEGIC>MOL_PROPERTY
W(SA)
SciTegic.value.DoubleValue
1.869

@<SCITEGIC>MOL_PROPERTY
Valence
SciTegic.value.DoubleValue
7.002

@<SCITEGIC>MOL_PROPERTY
Coulomb
SciTegic.value.DoubleValue
2.402

@<SCITEGIC>MOL_PROPERTY
VdW
SciTegic.value.DoubleValue
0.314

@<SCITEGIC>MOL_PROPERTY
VdW6
SciTegic.value.DoubleValue
-5.861

@<SCITEGIC>MOL_PROPERTY
VdW12
SciTegic.value.DoubleValue
6.175

@<SCITEGIC>MOL_PROPERTY
Bond
SciTegic.value.DoubleValue
0.134

@<SCITEGIC>MOL_PROPERTY
Angle
SciTegic.value.DoubleValue
2.734

@<SCITEGIC>MOL_PROPERTY
Pdih
SciTegic.value.DoubleValue
4.133

@<SCITEGIC>MOL_PROPERTY
Idih
SciTegic.value.DoubleValue
0.002

@<SCITEGIC>MOL_PROPERTY
Tether
SciTegic.value.DoubleValue
0.000

@<TRIPOS>MOLECULE
guest-s18_confgen4.mol2 : confsearch ligand conformer 849
          16          15           1
SMALL
USER_CHARGES
 
@<TRIPOS>ATOM
       1    C1      20.010644   17.277151   21.422235 C.2        1 MOL1         0.6075
       2    O1      20.717288   17.298641   20.433795 O.co2      1 MOL1        -0.6830
       3    O2      18.907087   16.768393   21.444259 O.co2      1 MOL1        -0.6830
       4    C2      20.576554   17.838542   22.725401 C.3        1 MOL1        -0.2050
       5    H1      21.602991   18.182816   22.549668 H          1 MOL1         0.0710
       6    H2      20.644212   16.994474   23.421620 H          1 MOL1         0.0710
       7    C3      19.735336   18.968708   23.382712 C.3        1 MOL1        -0.1947
       8    H3      18.670213   18.698748   23.369498 H          1 MOL1         0.0712
       9    H4      20.018907   19.029896   24.442097 H          1 MOL1         0.0712
      10    C4      19.935874   20.370896   22.758841 C.3        1 MOL1        -0.1921
      11    H5      21.002028   20.636169   22.772165 H          1 MOL1         0.0712
      12    H6      19.426411   21.109336   23.393228 H          1 MOL1         0.0712
      13    C5      19.387082   20.498981   21.322628 C.3        1 MOL1        -0.2936
      14    H7      19.974868   19.900973   20.615596 H          1 MOL1         0.0724
      15    H8      19.430135   21.543104   20.986887 H          1 MOL1         0.0724
      16    H9      18.341658   20.167990   21.269112 H          1 MOL1         0.0724
@<TRIPOS>BOND
    1     1     2    1
    2     1     3    2
    3     1     4    1
    4     4     5    1
    5     4     6    1
    6     4     7    1
    7     7     8    1
    8     7     9    1
    9     7    10    1
   10    10    11    1
   11    10    12    1
   12    10    13    1
   13    13    14    1
   14    13    15    1
   15    13    16    1
@<TRIPOS>SUBSTRUCTURE
       1 MOL1            1 RESIDUE      1      MOL     
@<SCITEGIC>MOL_PROPERTY
VConf Rank
SciTegic.value.IntegerValue
849

@<SCITEGIC>MOL_PROPERTY
Conf_Id
SciTegic.value.IntegerValue
47

@<SCITEGIC>MOL_PROPERTY
Delta U+W
SciTegic.value.DoubleValue
2.301

@<SCITEGIC>MOL_PROPERTY
U+W
SciTegic.value.DoubleValue
-54.603

@<SCITEGIC>MOL_PROPERTY
Grad RMS
SciTegic.value.DoubleValue
0.000000

@<SCITEGIC>MOL_PROPERTY
U
SciTegic.value.DoubleValue
11.258

@<SCITEGIC>MOL_PROPERTY
W
SciTegic.value.DoubleValue
-65.861

@<SCITEGIC>MOL_PROPERTY
W(PB)
SciTegic.value.DoubleValue
-67.702

@<SCITEGIC>MOL_PROPERTY
W(SA)
SciTegic.value.DoubleValue
1.841

@<SCITEGIC>MOL_PROPERTY
Valence
SciTegic.value.DoubleValue
8.169

@<SCITEGIC>MOL_PROPERTY
Coulomb
SciTegic.value.DoubleValue
2.735

@<SCITEGIC>MOL_PROPERTY
VdW
SciTegic.value.DoubleValue
0.355

@<SCITEGIC>MOL_PROPERTY
VdW6
SciTegic.value.DoubleValue
-6.245

@<SCITEGIC>MOL_PROPERTY
VdW12
SciTegic.value.DoubleValue
6.600

@<SCITEGIC>MOL_PROPERTY
Bond
SciTegic.value.DoubleValue
0.149

@<SCITEGIC>MOL_PROPERTY
Angle
SciTegic.value.DoubleValue
3.168

@<SCITEGIC>MOL_PROPERTY
Pdih
SciTegic.value.DoubleValue
4.840

@<SCITEGIC>MOL_PROPERTY
Idih
SciTegic.value.DoubleValue
0.011

@<SCITEGIC>MOL_PROPERTY
Tether
SciTegic.value.DoubleValue
0.000

@<TRIPOS>MOLECULE
guest-s18_confgen4.mol2 : confsearch ligand conformer 850
          16          15           1
SMALL
USER_CHARGES
 
@<TRIPOS>ATOM
       1    C1      18.587857   20.635235   22.332443 C.2        1 MOL1         0.6075
       2    O1      17.846012   20.474737   23.281688 O.co2      1 MOL1        -0.6830
       3    O2      18.196353   20.929565   21.220278 O.co2      1 MOL1        -0.6830
       4    C2      20.094952   20.551646   22.567697 C.3        1 MOL1        -0.2050
       5    H1      20.340254   21.345042   23.283308 H          1 MOL1         0.0710
       6    H2      20.616000   20.799039   21.634807 H          1 MOL1         0.0710
       7    C3      20.606071   19.193402   23.125298 C.3        1 MOL1        -0.1947
       8    H3      21.589114   19.363933   23.584646 H          1 MOL1         0.0712
       9    H4      19.948489   18.850133   23.936034 H          1 MOL1         0.0712
      10    C4      20.768085   18.078197   22.064342 C.3        1 MOL1        -0.1921
      11    H5      21.280027   17.225789   22.531901 H          1 MOL1         0.0712
      12    H6      21.424567   18.425926   21.254807 H          1 MOL1         0.0712
      13    C5      19.432704   17.581460   21.472482 C.3        1 MOL1        -0.2936
      14    H7      19.598156   16.702709   20.835936 H          1 MOL1         0.0724
      15    H8      18.958923   18.352643   20.852960 H          1 MOL1         0.0724
      16    H9      18.730591   17.297558   22.267320 H          1 MOL1         0.0724
@<TRIPOS>BOND
    1     1     2    1
    2     1     3    2
    3     1     4    1
    4     4     5    1
    5     4     6    1
    6     4     7    1
    7     7     8    1
    8     7     9    1
    9     7    10    1
   10    10    11    1
   11    10    12    1
   12    10    13    1
   13    13    14    1
   14    13    15    1
   15    13    16    1
@<TRIPOS>SUBSTRUCTURE
       1 MOL1            1 RESIDUE      1      MOL     
@<SCITEGIC>MOL_PROPERTY
VConf Rank
SciTegic.value.IntegerValue
850

@<SCITEGIC>MOL_PROPERTY
Conf_Id
SciTegic.value.IntegerValue
45

@<SCITEGIC>MOL_PROPERTY
Delta U+W
SciTegic.value.DoubleValue
2.303

@<SCITEGIC>MOL_PROPERTY
U+W
SciTegic.value.DoubleValue
-54.601

@<SCITEGIC>MOL_PROPERTY
Grad RMS
SciTegic.value.DoubleValue
0.000000

@<SCITEGIC>MOL_PROPERTY
U
SciTegic.value.DoubleValue
11.258

@<SCITEGIC>MOL_PROPERTY
W
SciTegic.value.DoubleValue
-65.860

@<SCITEGIC>MOL_PROPERTY
W(PB)
SciTegic.value.DoubleValue
-67.709

@<SCITEGIC>MOL_PROPERTY
W(SA)
SciTegic.value.DoubleValue
1.849

@<SCITEGIC>MOL_PROPERTY
Valence
SciTegic.value.DoubleValue
8.169

@<SCITEGIC>MOL_PROPERTY
Coulomb
SciTegic.value.DoubleValue
2.735

@<SCITEGIC>MOL_PROPERTY
VdW
SciTegic.value.DoubleValue
0.355

@<SCITEGIC>MOL_PROPERTY
VdW6
SciTegic.value.DoubleValue
-6.245

@<SCITEGIC>MOL_PROPERTY
VdW12
SciTegic.value.DoubleValue
6.600

@<SCITEGIC>MOL_PROPERTY
Bond
SciTegic.value.DoubleValue
0.149

@<SCITEGIC>MOL_PROPERTY
Angle
SciTegic.value.DoubleValue
3.168

@<SCITEGIC>MOL_PROPERTY
Pdih
SciTegic.value.DoubleValue
4.840

@<SCITEGIC>MOL_PROPERTY
Idih
SciTegic.value.DoubleValue
0.011

@<SCITEGIC>MOL_PROPERTY
Tether
SciTegic.value.DoubleValue
0.000

@<TRIPOS>MOLECULE
guest-s18_confgen4.mol2 : confsearch ligand conformer 851
          16          15           1
SMALL
USER_CHARGES
 
@<TRIPOS>ATOM
       1    C1      20.533916   21.507235   20.650206 C.2        1 MOL1         0.6075
       2    O1      19.943878   22.187808   21.466571 O.co2      1 MOL1        -0.6830
       3    O2      21.092339   21.974620   19.678080 O.co2      1 MOL1        -0.6830
       4    C2      20.593656   19.988996   20.827057 C.3        1 MOL1        -0.2050
       5    H1      21.652092   19.704591   20.858479 H          1 MOL1         0.0710
       6    H2      20.166906   19.537257   19.923741 H          1 MOL1         0.0710
       7    C3      19.865924   19.437769   22.082008 C.3        1 MOL1        -0.1947
       8    H3      20.294038   19.897960   22.983347 H          1 MOL1         0.0712
       9    H4      18.807325   19.730440   22.047636 H          1 MOL1         0.0712
      10    C4      19.976799   17.901801   22.180841 C.3        1 MOL1        -0.1921
      11    H5      21.035002   17.607871   22.217068 H          1 MOL1         0.0712
      12    H6      19.547401   17.440239   21.280798 H          1 MOL1         0.0712
      13    C5      19.252214   17.360410   23.429045 C.3        1 MOL1        -0.2936
      14    H7      19.682668   17.782139   24.346827 H          1 MOL1         0.0724
      15    H8      19.340683   16.267579   23.484148 H          1 MOL1         0.0724
      16    H9      18.184090   17.613266   23.403654 H          1 MOL1         0.0724
@<TRIPOS>BOND
    1     1     2    1
    2     1     3    2
    3     1     4    1
    4     4     5    1
    5     4     6    1
    6     4     7    1
    7     7     8    1
    8     7     9    1
    9     7    10    1
   10    10    11    1
   11    10    12    1
   12    10    13    1
   13    13    14    1
   14    13    15    1
   15    13    16    1
@<TRIPOS>SUBSTRUCTURE
       1 MOL1            1 RESIDUE      1      MOL     
@<SCITEGIC>MOL_PROPERTY
VConf Rank
SciTegic.value.IntegerValue
851

@<SCITEGIC>MOL_PROPERTY
Conf_Id
SciTegic.value.IntegerValue
0

@<SCITEGIC>MOL_PROPERTY
Delta U+W
SciTegic.value.DoubleValue
0.000

@<SCITEGIC>MOL_PROPERTY
U+W
SciTegic.value.DoubleValue
-56.904

@<SCITEGIC>MOL_PROPERTY
Grad RMS
SciTegic.value.DoubleValue
0.000000

@<SCITEGIC>MOL_PROPERTY
U
SciTegic.value.DoubleValue
7.329

@<SCITEGIC>MOL_PROPERTY
W
SciTegic.value.DoubleValue
-64.233

@<SCITEGIC>MOL_PROPERTY
W(PB)
SciTegic.value.DoubleValue
-66.148

@<SCITEGIC>MOL_PROPERTY
W(SA)
SciTegic.value.DoubleValue
1.915

@<SCITEGIC>MOL_PROPERTY
Valence
SciTegic.value.DoubleValue
6.755

@<SCITEGIC>MOL_PROPERTY
Coulomb
SciTegic.value.DoubleValue
-0.421

@<SCITEGIC>MOL_PROPERTY
VdW
SciTegic.value.DoubleValue
0.995

@<SCITEGIC>MOL_PROPERTY
VdW6
SciTegic.value.DoubleValue
-4.495

@<SCITEGIC>MOL_PROPERTY
VdW12
SciTegic.value.DoubleValue
5.490

@<SCITEGIC>MOL_PROPERTY
Bond
SciTegic.value.DoubleValue
0.106

@<SCITEGIC>MOL_PROPERTY
Angle
SciTegic.value.DoubleValue
2.715

@<SCITEGIC>MOL_PROPERTY
Pdih
SciTegic.value.DoubleValue
3.934

@<SCITEGIC>MOL_PROPERTY
Idih
SciTegic.value.DoubleValue
0.000

@<SCITEGIC>MOL_PROPERTY
Tether
SciTegic.value.DoubleValue
0.000

@<TRIPOS>MOLECULE
guest-s18_confgen4.mol2 : confsearch ligand conformer 852
          16          15           1
SMALL
USER_CHARGES
 
@<TRIPOS>ATOM
       1    C1      19.243296   16.784511   23.112578 C.2        1 MOL1         0.6075
       2    O1      18.376432   16.905706   23.955016 O.co2      1 MOL1        -0.6830
       3    O2      19.369478   15.797681   22.415378 O.co2      1 MOL1        -0.6830
       4    C2      20.214728   17.941427   22.906549 C.3        1 MOL1        -0.2050
       5    H1      21.182763   17.524150   22.603832 H          1 MOL1         0.0710
       6    H2      20.363958   18.437724   23.873126 H          1 MOL1         0.0710
       7    C3      19.720707   18.962873   21.852675 C.3        1 MOL1        -0.1947
       8    H3      19.564176   18.448670   20.894216 H          1 MOL1         0.0712
       9    H4      18.745296   19.362240   22.163530 H          1 MOL1         0.0712
      10    C4      20.721100   20.122203   21.663650 C.3        1 MOL1        -0.1921
      11    H5      21.696475   19.723288   21.352122 H          1 MOL1         0.0712
      12    H6      20.877413   20.637074   22.621779 H          1 MOL1         0.0712
      13    C5      20.222946   21.134744   20.613552 C.3        1 MOL1        -0.2936
      14    H7      19.262729   21.573326   20.915379 H          1 MOL1         0.0724
      15    H8      20.087817   20.652784   19.636349 H          1 MOL1         0.0724
      16    H9      20.945428   21.952193   20.491289 H          1 MOL1         0.0724
@<TRIPOS>BOND
    1     1     2    1
    2     1     3    2
    3     1     4    1
    4     4     5    1
    5     4     6    1
    6     4     7    1
    7     7     8    1
    8     7     9    1
    9     7    10    1
   10    10    11    1
   11    10    12    1
   12    10    13    1
   13    13    14    1
   14    13    15    1
   15    13    16    1
@<TRIPOS>SUBSTRUCTURE
       1 MOL1            1 RESIDUE      1      MOL     
@<SCITEGIC>MOL_PROPERTY
VConf Rank
SciTegic.value.IntegerValue
852

@<SCITEGIC>MOL_PROPERTY
Conf_Id
SciTegic.value.IntegerValue
22

@<SCITEGIC>MOL_PROPERTY
Delta U+W
SciTegic.value.DoubleValue
-1.185

@<SCITEGIC>MOL_PROPERTY
U+W
SciTegic.value.DoubleValue
-58.089

@<SCITEGIC>MOL_PROPERTY
Grad RMS
SciTegic.value.DoubleValue
0.000000

@<SCITEGIC>MOL_PROPERTY
U
SciTegic.value.DoubleValue
6.298

@<SCITEGIC>MOL_PROPERTY
W
SciTegic.value.DoubleValue
-64.387

@<SCITEGIC>MOL_PROPERTY
W(PB)
SciTegic.value.DoubleValue
-66.329

@<SCITEGIC>MOL_PROPERTY
W(SA)
SciTegic.value.DoubleValue
1.942

@<SCITEGIC>MOL_PROPERTY
Valence
SciTegic.value.DoubleValue
6.246

@<SCITEGIC>MOL_PROPERTY
Coulomb
SciTegic.value.DoubleValue
-0.408

@<SCITEGIC>MOL_PROPERTY
VdW
SciTegic.value.DoubleValue
0.460

@<SCITEGIC>MOL_PROPERTY
VdW6
SciTegic.value.DoubleValue
-4.207

@<SCITEGIC>MOL_PROPERTY
VdW12
SciTegic.value.DoubleValue
4.667

@<SCITEGIC>MOL_PROPERTY
Bond
SciTegic.value.DoubleValue
0.072

@<SCITEGIC>MOL_PROPERTY
Angle
SciTegic.value.DoubleValue
2.246

@<SCITEGIC>MOL_PROPERTY
Pdih
SciTegic.value.DoubleValue
3.928

@<SCITEGIC>MOL_PROPERTY
Idih
SciTegic.value.DoubleValue
0.001

@<SCITEGIC>MOL_PROPERTY
Tether
SciTegic.value.DoubleValue
0.000

@<TRIPOS>MOLECULE
guest-s18_confgen4.mol2 : confsearch ligand conformer 853
          16          15           1
SMALL
USER_CHARGES
 
@<TRIPOS>ATOM
       1    C1      19.765992   17.194374   20.299923 C.2        1 MOL1         0.6075
       2    O1      20.378758   16.153860   20.433496 O.co2      1 MOL1        -0.6830
       3    O2      19.314185   17.576116   19.238744 O.co2      1 MOL1        -0.6830
       4    C2      19.571087   18.078319   21.526799 C.3        1 MOL1        -0.2050
       5    H1      19.494361   17.427909   22.406370 H          1 MOL1         0.0710
       6    H2      18.609820   18.593449   21.418521 H          1 MOL1         0.0710
       7    C3      20.719674   19.102556   21.718322 C.3        1 MOL1        -0.1947
       8    H3      21.675963   18.561606   21.736006 H          1 MOL1         0.0712
       9    H4      20.759321   19.775368   20.850532 H          1 MOL1         0.0712
      10    C4      20.594233   19.932144   23.016958 C.3        1 MOL1        -0.1921
      11    H5      21.496252   20.549247   23.130341 H          1 MOL1         0.0712
      12    H6      20.566421   19.259977   23.885750 H          1 MOL1         0.0712
      13    C5      19.355674   20.853356   23.033467 C.3        1 MOL1        -0.2936
      14    H7      18.424488   20.273127   23.036468 H          1 MOL1         0.0724
      15    H8      19.346787   21.515457   22.157801 H          1 MOL1         0.0724
      16    H9      19.357702   21.482707   23.932868 H          1 MOL1         0.0724
@<TRIPOS>BOND
    1     1     2    1
    2     1     3    2
    3     1     4    1
    4     4     5    1
    5     4     6    1
    6     4     7    1
    7     7     8    1
    8     7     9    1
    9     7    10    1
   10    10    11    1
   11    10    12    1
   12    10    13    1
   13    13    14    1
   14    13    15    1
   15    13    16    1
@<TRIPOS>SUBSTRUCTURE
       1 MOL1            1 RESIDUE      1      MOL     
@<SCITEGIC>MOL_PROPERTY
VConf Rank
SciTegic.value.IntegerValue
853

@<SCITEGIC>MOL_PROPERTY
Conf_Id
SciTegic.value.IntegerValue
36

@<SCITEGIC>MOL_PROPERTY
Delta U+W
SciTegic.value.DoubleValue
-0.427

@<SCITEGIC>MOL_PROPERTY
U+W
SciTegic.value.DoubleValue
-57.331

@<SCITEGIC>MOL_PROPERTY
Grad RMS
SciTegic.value.DoubleValue
0.000000

@<SCITEGIC>MOL_PROPERTY
U
SciTegic.value.DoubleValue
7.263

@<SCITEGIC>MOL_PROPERTY
W
SciTegic.value.DoubleValue
-64.594

@<SCITEGIC>MOL_PROPERTY
W(PB)
SciTegic.value.DoubleValue
-66.513

@<SCITEGIC>MOL_PROPERTY
W(SA)
SciTegic.value.DoubleValue
1.920

@<SCITEGIC>MOL_PROPERTY
Valence
SciTegic.value.DoubleValue
6.734

@<SCITEGIC>MOL_PROPERTY
Coulomb
SciTegic.value.DoubleValue
-0.068

@<SCITEGIC>MOL_PROPERTY
VdW
SciTegic.value.DoubleValue
0.598

@<SCITEGIC>MOL_PROPERTY
VdW6
SciTegic.value.DoubleValue
-4.819

@<SCITEGIC>MOL_PROPERTY
VdW12
SciTegic.value.DoubleValue
5.417

@<SCITEGIC>MOL_PROPERTY
Bond
SciTegic.value.DoubleValue
0.107

@<SCITEGIC>MOL_PROPERTY
Angle
SciTegic.value.DoubleValue
2.469

@<SCITEGIC>MOL_PROPERTY
Pdih
SciTegic.value.DoubleValue
4.157

@<SCITEGIC>MOL_PROPERTY
Idih
SciTegic.value.DoubleValue
0.001

@<SCITEGIC>MOL_PROPERTY
Tether
SciTegic.value.DoubleValue
0.000

@<TRIPOS>MOLECULE
guest-s18_confgen4.mol2 : confsearch ligand conformer 854
          16          15           1
SMALL
USER_CHARGES
 
@<TRIPOS>ATOM
       1    C1      21.068842   16.913369   21.272113 C.2        1 MOL1         0.6075
       2    O1      20.332263   16.270014   20.551348 O.co2      1 MOL1        -0.6830
       3    O2      22.011689   16.433122   21.869104 O.co2      1 MOL1        -0.6830
       4    C2      20.782873   18.399951   21.453410 C.3        1 MOL1        -0.2050
       5    H1      20.360470   18.776148   20.514704 H          1 MOL1         0.0710
       6    H2      21.738899   18.914101   21.609072 H          1 MOL1         0.0710
       7    C3      19.822781   18.687443   22.636866 C.3        1 MOL1        -0.1947
       8    H3      18.854618   18.202815   22.449500 H          1 MOL1         0.0712
       9    H4      20.232206   18.222990   23.544656 H          1 MOL1         0.0712
      10    C4      19.609035   20.195291   22.903537 C.3        1 MOL1        -0.1921
      11    H5      20.575922   20.677901   23.102528 H          1 MOL1         0.0712
      12    H6      19.010166   20.310896   23.817485 H          1 MOL1         0.0712
      13    C5      18.894330   20.922989   21.744838 C.3        1 MOL1        -0.2936
      14    H7      19.509732   20.931598   20.836550 H          1 MOL1         0.0724
      15    H8      18.688285   21.966481   22.016272 H          1 MOL1         0.0724
      16    H9      17.937176   20.440029   21.508497 H          1 MOL1         0.0724
@<TRIPOS>BOND
    1     1     2    1
    2     1     3    2
    3     1     4    1
    4     4     5    1
    5     4     6    1
    6     4     7    1
    7     7     8    1
    8     7     9    1
    9     7    10    1
   10    10    11    1
   11    10    12    1
   12    10    13    1
   13    13    14    1
   14    13    15    1
   15    13    16    1
@<TRIPOS>SUBSTRUCTURE
       1 MOL1            1 RESIDUE      1      MOL     
@<SCITEGIC>MOL_PROPERTY
VConf Rank
SciTegic.value.IntegerValue
854

@<SCITEGIC>MOL_PROPERTY
Conf_Id
SciTegic.value.IntegerValue
17

@<SCITEGIC>MOL_PROPERTY
Delta U+W
SciTegic.value.DoubleValue
-0.432

@<SCITEGIC>MOL_PROPERTY
U+W
SciTegic.value.DoubleValue
-57.336

@<SCITEGIC>MOL_PROPERTY
Grad RMS
SciTegic.value.DoubleValue
0.000000

@<SCITEGIC>MOL_PROPERTY
U
SciTegic.value.DoubleValue
7.263

@<SCITEGIC>MOL_PROPERTY
W
SciTegic.value.DoubleValue
-64.599

@<SCITEGIC>MOL_PROPERTY
W(PB)
SciTegic.value.DoubleValue
-66.503

@<SCITEGIC>MOL_PROPERTY
W(SA)
SciTegic.value.DoubleValue
1.904

@<SCITEGIC>MOL_PROPERTY
Valence
SciTegic.value.DoubleValue
6.734

@<SCITEGIC>MOL_PROPERTY
Coulomb
SciTegic.value.DoubleValue
-0.068

@<SCITEGIC>MOL_PROPERTY
VdW
SciTegic.value.DoubleValue
0.598

@<SCITEGIC>MOL_PROPERTY
VdW6
SciTegic.value.DoubleValue
-4.819

@<SCITEGIC>MOL_PROPERTY
VdW12
SciTegic.value.DoubleValue
5.417

@<SCITEGIC>MOL_PROPERTY
Bond
SciTegic.value.DoubleValue
0.107

@<SCITEGIC>MOL_PROPERTY
Angle
SciTegic.value.DoubleValue
2.469

@<SCITEGIC>MOL_PROPERTY
Pdih
SciTegic.value.DoubleValue
4.157

@<SCITEGIC>MOL_PROPERTY
Idih
SciTegic.value.DoubleValue
0.001

@<SCITEGIC>MOL_PROPERTY
Tether
SciTegic.value.DoubleValue
0.000

@<TRIPOS>MOLECULE
guest-s18_confgen4.mol2 : confsearch ligand conformer 855
          16          15           1
SMALL
USER_CHARGES
 
@<TRIPOS>ATOM
       1    C1      22.140923   18.420172   23.127402 C.2        1 MOL1         0.6075
       2    O1      22.360542   18.965986   24.190509 O.co2      1 MOL1        -0.6830
       3    O2      22.201260   17.217518   22.965400 O.co2      1 MOL1        -0.6830
       4    C2      21.794301   19.296194   21.926598 C.3        1 MOL1        -0.2050
       5    H1      21.969295   18.719783   21.009967 H          1 MOL1         0.0710
       6    H2      22.503067   20.132706   21.915125 H          1 MOL1         0.0710
       7    C3      20.344693   19.847001   21.943461 C.3        1 MOL1        -0.1947
       8    H3      20.175088   20.397319   22.879413 H          1 MOL1         0.0712
       9    H4      20.228995   20.571029   21.125563 H          1 MOL1         0.0712
      10    C4      19.284856   18.734408   21.791591 C.3        1 MOL1        -0.1921
      11    H5      19.377827   18.014465   22.616673 H          1 MOL1         0.0712
      12    H6      19.463217   18.177114   20.861545 H          1 MOL1         0.0712
      13    C5      17.855635   19.311881   21.777522 C.3        1 MOL1        -0.2936
      14    H7      17.640133   19.848781   22.710660 H          1 MOL1         0.0724
      15    H8      17.115188   18.508593   21.669896 H          1 MOL1         0.0724
      16    H9      17.722080   20.010332   20.941015 H          1 MOL1         0.0724
@<TRIPOS>BOND
    1     1     2    1
    2     1     3    2
    3     1     4    1
    4     4     5    1
    5     4     6    1
    6     4     7    1
    7     7     8    1
    8     7     9    1
    9     7    10    1
   10    10    11    1
   11    10    12    1
   12    10    13    1
   13    13    14    1
   14    13    15    1
   15    13    16    1
@<TRIPOS>SUBSTRUCTURE
       1 MOL1            1 RESIDUE      1      MOL     
@<SCITEGIC>MOL_PROPERTY
VConf Rank
SciTegic.value.IntegerValue
855

@<SCITEGIC>MOL_PROPERTY
Conf_Id
SciTegic.value.IntegerValue
19

@<SCITEGIC>MOL_PROPERTY
Delta U+W
SciTegic.value.DoubleValue
0.048

@<SCITEGIC>MOL_PROPERTY
U+W
SciTegic.value.DoubleValue
-56.856

@<SCITEGIC>MOL_PROPERTY
Grad RMS
SciTegic.value.DoubleValue
0.000000

@<SCITEGIC>MOL_PROPERTY
U
SciTegic.value.DoubleValue
8.276

@<SCITEGIC>MOL_PROPERTY
W
SciTegic.value.DoubleValue
-65.132

@<SCITEGIC>MOL_PROPERTY
W(PB)
SciTegic.value.DoubleValue
-67.031

@<SCITEGIC>MOL_PROPERTY
W(SA)
SciTegic.value.DoubleValue
1.899

@<SCITEGIC>MOL_PROPERTY
Valence
SciTegic.value.DoubleValue
6.513

@<SCITEGIC>MOL_PROPERTY
Coulomb
SciTegic.value.DoubleValue
1.428

@<SCITEGIC>MOL_PROPERTY
VdW
SciTegic.value.DoubleValue
0.335

@<SCITEGIC>MOL_PROPERTY
VdW6
SciTegic.value.DoubleValue
-5.021

@<SCITEGIC>MOL_PROPERTY
VdW12
SciTegic.value.DoubleValue
5.356

@<SCITEGIC>MOL_PROPERTY
Bond
SciTegic.value.DoubleValue
0.092

@<SCITEGIC>MOL_PROPERTY
Angle
SciTegic.value.DoubleValue
2.417

@<SCITEGIC>MOL_PROPERTY
Pdih
SciTegic.value.DoubleValue
4.003

@<SCITEGIC>MOL_PROPERTY
Idih
SciTegic.value.DoubleValue
0.001

@<SCITEGIC>MOL_PROPERTY
Tether
SciTegic.value.DoubleValue
0.000

@<TRIPOS>MOLECULE
guest-s18_confgen4.mol2 : confsearch ligand conformer 856
          16          15           1
SMALL
USER_CHARGES
 
@<TRIPOS>ATOM
       1    C1      17.636469   18.992370   22.873172 C.2        1 MOL1         0.6075
       2    O1      17.019763   18.064573   22.388188 O.co2      1 MOL1        -0.6830
       3    O2      17.205831   20.127014   22.931435 O.co2      1 MOL1        -0.6830
       4    C2      19.016366   18.710373   23.461270 C.3        1 MOL1        -0.2050
       5    H1      18.934838   17.800804   24.068125 H          1 MOL1         0.0710
       6    H2      19.278940   19.525937   24.146102 H          1 MOL1         0.0710
       7    C3      20.130490   18.524714   22.398584 C.3        1 MOL1        -0.1947
       8    H3      21.049078   18.190819   22.899853 H          1 MOL1         0.0712
       9    H4      19.840833   17.724553   21.703268 H          1 MOL1         0.0712
      10    C4      20.422700   19.820786   21.611820 C.3        1 MOL1        -0.1921
      11    H5      20.700148   20.623195   22.309345 H          1 MOL1         0.0712
      12    H6      19.515058   20.153405   21.089063 H          1 MOL1         0.0712
      13    C5      21.555912   19.617632   20.586680 C.3        1 MOL1        -0.2936
      14    H7      22.487302   19.317603   21.084586 H          1 MOL1         0.0724
      15    H8      21.750209   20.547185   20.035956 H          1 MOL1         0.0724
      16    H9      21.290862   18.840715   19.857572 H          1 MOL1         0.0724
@<TRIPOS>BOND
    1     1     2    1
    2     1     3    2
    3     1     4    1
    4     4     5    1
    5     4     6    1
    6     4     7    1
    7     7     8    1
    8     7     9    1
    9     7    10    1
   10    10    11    1
   11    10    12    1
   12    10    13    1
   13    13    14    1
   14    13    15    1
   15    13    16    1
@<TRIPOS>SUBSTRUCTURE
       1 MOL1            1 RESIDUE      1      MOL     
@<SCITEGIC>MOL_PROPERTY
VConf Rank
SciTegic.value.IntegerValue
856

@<SCITEGIC>MOL_PROPERTY
Conf_Id
SciTegic.value.IntegerValue
20

@<SCITEGIC>MOL_PROPERTY
Delta U+W
SciTegic.value.DoubleValue
-0.010

@<SCITEGIC>MOL_PROPERTY
U+W
SciTegic.value.DoubleValue
-56.914

@<SCITEGIC>MOL_PROPERTY
Grad RMS
SciTegic.value.DoubleValue
0.000000

@<SCITEGIC>MOL_PROPERTY
U
SciTegic.value.DoubleValue
8.277

@<SCITEGIC>MOL_PROPERTY
W
SciTegic.value.DoubleValue
-65.191

@<SCITEGIC>MOL_PROPERTY
W(PB)
SciTegic.value.DoubleValue
-67.081

@<SCITEGIC>MOL_PROPERTY
W(SA)
SciTegic.value.DoubleValue
1.890

@<SCITEGIC>MOL_PROPERTY
Valence
SciTegic.value.DoubleValue
6.513

@<SCITEGIC>MOL_PROPERTY
Coulomb
SciTegic.value.DoubleValue
1.429

@<SCITEGIC>MOL_PROPERTY
VdW
SciTegic.value.DoubleValue
0.335

@<SCITEGIC>MOL_PROPERTY
VdW6
SciTegic.value.DoubleValue
-5.021

@<SCITEGIC>MOL_PROPERTY
VdW12
SciTegic.value.DoubleValue
5.356

@<SCITEGIC>MOL_PROPERTY
Bond
SciTegic.value.DoubleValue
0.092

@<SCITEGIC>MOL_PROPERTY
Angle
SciTegic.value.DoubleValue
2.417

@<SCITEGIC>MOL_PROPERTY
Pdih
SciTegic.value.DoubleValue
4.002

@<SCITEGIC>MOL_PROPERTY
Idih
SciTegic.value.DoubleValue
0.001

@<SCITEGIC>MOL_PROPERTY
Tether
SciTegic.value.DoubleValue
0.000

@<TRIPOS>MOLECULE
guest-s18_confgen4.mol2 : confsearch ligand conformer 857
          16          15           1
SMALL
USER_CHARGES
 
@<TRIPOS>ATOM
       1    C1      20.243644   17.104160   22.662809 C.2        1 MOL1         0.6075
       2    O1      19.482943   16.200822   22.376281 O.co2      1 MOL1        -0.6830
       3    O2      20.754362   17.228235   23.758288 O.co2      1 MOL1        -0.6830
       4    C2      20.601271   18.115566   21.577035 C.3        1 MOL1        -0.2050
       5    H1      20.906785   17.547241   20.690723 H          1 MOL1         0.0710
       6    H2      21.481743   18.682519   21.900425 H          1 MOL1         0.0710
       7    C3      19.441527   19.075826   21.195495 C.3        1 MOL1        -0.1947
       8    H3      19.760249   19.710343   20.357536 H          1 MOL1         0.0712
       9    H4      18.596433   18.478827   20.825678 H          1 MOL1         0.0712
      10    C4      18.949337   19.973866   22.355350 C.3        1 MOL1        -0.1921
      11    H5      18.594753   19.349914   23.187547 H          1 MOL1         0.0712
      12    H6      18.080674   20.551127   22.009918 H          1 MOL1         0.0712
      13    C5      20.027128   20.953636   22.866095 C.3        1 MOL1        -0.2936
      14    H7      20.862651   20.417561   23.334084 H          1 MOL1         0.0724
      15    H8      19.604015   21.630555   23.619498 H          1 MOL1         0.0724
      16    H9      20.424086   21.565550   22.045699 H          1 MOL1         0.0724
@<TRIPOS>BOND
    1     1     2    1
    2     1     3    2
    3     1     4    1
    4     4     5    1
    5     4     6    1
    6     4     7    1
    7     7     8    1
    8     7     9    1
    9     7    10    1
   10    10    11    1
   11    10    12    1
   12    10    13    1
   13    13    14    1
   14    13    15    1
   15    13    16    1
@<TRIPOS>SUBSTRUCTURE
       1 MOL1            1 RESIDUE      1      MOL     
@<SCITEGIC>MOL_PROPERTY
VConf Rank
SciTegic.value.IntegerValue
857

@<SCITEGIC>MOL_PROPERTY
Conf_Id
SciTegic.value.IntegerValue
37

@<SCITEGIC>MOL_PROPERTY
Delta U+W
SciTegic.value.DoubleValue
1.063

@<SCITEGIC>MOL_PROPERTY
U+W
SciTegic.value.DoubleValue
-55.841

@<SCITEGIC>MOL_PROPERTY
Grad RMS
SciTegic.value.DoubleValue
0.000000

@<SCITEGIC>MOL_PROPERTY
U
SciTegic.value.DoubleValue
9.719

@<SCITEGIC>MOL_PROPERTY
W
SciTegic.value.DoubleValue
-65.560

@<SCITEGIC>MOL_PROPERTY
W(PB)
SciTegic.value.DoubleValue
-67.414

@<SCITEGIC>MOL_PROPERTY
W(SA)
SciTegic.value.DoubleValue
1.854

@<SCITEGIC>MOL_PROPERTY
Valence
SciTegic.value.DoubleValue
7.002

@<SCITEGIC>MOL_PROPERTY
Coulomb
SciTegic.value.DoubleValue
2.402

@<SCITEGIC>MOL_PROPERTY
VdW
SciTegic.value.DoubleValue
0.314

@<SCITEGIC>MOL_PROPERTY
VdW6
SciTegic.value.DoubleValue
-5.861

@<SCITEGIC>MOL_PROPERTY
VdW12
SciTegic.value.DoubleValue
6.175

@<SCITEGIC>MOL_PROPERTY
Bond
SciTegic.value.DoubleValue
0.134

@<SCITEGIC>MOL_PROPERTY
Angle
SciTegic.value.DoubleValue
2.733

@<SCITEGIC>MOL_PROPERTY
Pdih
SciTegic.value.DoubleValue
4.133

@<SCITEGIC>MOL_PROPERTY
Idih
SciTegic.value.DoubleValue
0.002

@<SCITEGIC>MOL_PROPERTY
Tether
SciTegic.value.DoubleValue
0.000

@<TRIPOS>MOLECULE
guest-s18_confgen4.mol2 : confsearch ligand conformer 858
          16          15           1
SMALL
USER_CHARGES
 
@<TRIPOS>ATOM
       1    C1      18.533386   17.744725   21.841561 C.2        1 MOL1         0.6075
       2    O1      18.256132   16.852221   22.618319 O.co2      1 MOL1        -0.6830
       3    O2      17.704582   18.477514   21.339163 O.co2      1 MOL1        -0.6830
       4    C2      19.997323   17.930375   21.451473 C.3        1 MOL1        -0.2050
       5    H1      20.046319   18.569530   20.562468 H          1 MOL1         0.0710
       6    H2      20.380599   16.948758   21.149133 H          1 MOL1         0.0710
       7    C3      20.890399   18.501882   22.586583 C.3        1 MOL1        -0.1947
       8    H3      20.861009   17.810811   23.440347 H          1 MOL1         0.0712
       9    H4      21.934293   18.526069   22.245892 H          1 MOL1         0.0712
      10    C4      20.480482   19.912872   23.071419 C.3        1 MOL1        -0.1921
      11    H5      21.115288   20.190800   23.924007 H          1 MOL1         0.0712
      12    H6      19.448180   19.894310   23.447725 H          1 MOL1         0.0712
      13    C5      20.613228   20.994511   21.978315 C.3        1 MOL1        -0.2936
      14    H7      21.628070   21.009721   21.560069 H          1 MOL1         0.0724
      15    H8      20.403512   21.988277   22.394616 H          1 MOL1         0.0724
      16    H9      19.903498   20.821773   21.159210 H          1 MOL1         0.0724
@<TRIPOS>BOND
    1     1     2    1
    2     1     3    2
    3     1     4    1
    4     4     5    1
    5     4     6    1
    6     4     7    1
    7     7     8    1
    8     7     9    1
    9     7    10    1
   10    10    11    1
   11    10    12    1
   12    10    13    1
   13    13    14    1
   14    13    15    1
   15    13    16    1
@<TRIPOS>SUBSTRUCTURE
       1 MOL1            1 RESIDUE      1      MOL     
@<SCITEGIC>MOL_PROPERTY
VConf Rank
SciTegic.value.IntegerValue
858

@<SCITEGIC>MOL_PROPERTY
Conf_Id
SciTegic.value.IntegerValue
39

@<SCITEGIC>MOL_PROPERTY
Delta U+W
SciTegic.value.DoubleValue
1.129

@<SCITEGIC>MOL_PROPERTY
U+W
SciTegic.value.DoubleValue
-55.775

@<SCITEGIC>MOL_PROPERTY
Grad RMS
SciTegic.value.DoubleValue
0.000000

@<SCITEGIC>MOL_PROPERTY
U
SciTegic.value.DoubleValue
9.718

@<SCITEGIC>MOL_PROPERTY
W
SciTegic.value.DoubleValue
-65.493

@<SCITEGIC>MOL_PROPERTY
W(PB)
SciTegic.value.DoubleValue
-67.361

@<SCITEGIC>MOL_PROPERTY
W(SA)
SciTegic.value.DoubleValue
1.869

@<SCITEGIC>MOL_PROPERTY
Valence
SciTegic.value.DoubleValue
7.002

@<SCITEGIC>MOL_PROPERTY
Coulomb
SciTegic.value.DoubleValue
2.402

@<SCITEGIC>MOL_PROPERTY
VdW
SciTegic.value.DoubleValue
0.314

@<SCITEGIC>MOL_PROPERTY
VdW6
SciTegic.value.DoubleValue
-5.861

@<SCITEGIC>MOL_PROPERTY
VdW12
SciTegic.value.DoubleValue
6.175

@<SCITEGIC>MOL_PROPERTY
Bond
SciTegic.value.DoubleValue
0.134

@<SCITEGIC>MOL_PROPERTY
Angle
SciTegic.value.DoubleValue
2.734

@<SCITEGIC>MOL_PROPERTY
Pdih
SciTegic.value.DoubleValue
4.133

@<SCITEGIC>MOL_PROPERTY
Idih
SciTegic.value.DoubleValue
0.002

@<SCITEGIC>MOL_PROPERTY
Tether
SciTegic.value.DoubleValue
0.000

@<TRIPOS>MOLECULE
guest-s18_confgen4.mol2 : confsearch ligand conformer 859
          16          15           1
SMALL
USER_CHARGES
 
@<TRIPOS>ATOM
       1    C1      19.192116   20.220265   23.746691 C.2        1 MOL1         0.6075
       2    O1      18.357718   19.625790   24.400297 O.co2      1 MOL1        -0.6830
       3    O2      19.031088   21.348343   23.324002 O.co2      1 MOL1        -0.6830
       4    C2      20.545688   19.548336   23.523060 C.3        1 MOL1        -0.2050
       5    H1      20.550631   18.577285   24.032976 H          1 MOL1         0.0710
       6    H2      21.288556   20.173273   24.032324 H          1 MOL1         0.0710
       7    C3      20.964751   19.376941   22.035783 C.3        1 MOL1        -0.1947
       8    H3      20.763057   20.303623   21.480698 H          1 MOL1         0.0712
       9    H4      22.053651   19.236333   22.004494 H          1 MOL1         0.0712
      10    C4      20.312592   18.172821   21.314434 C.3        1 MOL1        -0.1921
      11    H5      20.514857   17.248808   21.873469 H          1 MOL1         0.0712
      12    H6      20.794878   18.052249   20.334558 H          1 MOL1         0.0712
      13    C5      18.792956   18.325008   21.095727 C.3        1 MOL1        -0.2936
      14    H7      18.246552   18.283911   22.045859 H          1 MOL1         0.0724
      15    H8      18.413201   17.513608   20.461547 H          1 MOL1         0.0724
      16    H9      18.558995   19.278225   20.603821 H          1 MOL1         0.0724
@<TRIPOS>BOND
    1     1     2    1
    2     1     3    2
    3     1     4    1
    4     4     5    1
    5     4     6    1
    6     4     7    1
    7     7     8    1
    8     7     9    1
    9     7    10    1
   10    10    11    1
   11    10    12    1
   12    10    13    1
   13    13    14    1
   14    13    15    1
   15    13    16    1
@<TRIPOS>SUBSTRUCTURE
       1 MOL1            1 RESIDUE      1      MOL     
@<SCITEGIC>MOL_PROPERTY
VConf Rank
SciTegic.value.IntegerValue
859

@<SCITEGIC>MOL_PROPERTY
Conf_Id
SciTegic.value.IntegerValue
47

@<SCITEGIC>MOL_PROPERTY
Delta U+W
SciTegic.value.DoubleValue
2.301

@<SCITEGIC>MOL_PROPERTY
U+W
SciTegic.value.DoubleValue
-54.603

@<SCITEGIC>MOL_PROPERTY
Grad RMS
SciTegic.value.DoubleValue
0.000000

@<SCITEGIC>MOL_PROPERTY
U
SciTegic.value.DoubleValue
11.258

@<SCITEGIC>MOL_PROPERTY
W
SciTegic.value.DoubleValue
-65.861

@<SCITEGIC>MOL_PROPERTY
W(PB)
SciTegic.value.DoubleValue
-67.702

@<SCITEGIC>MOL_PROPERTY
W(SA)
SciTegic.value.DoubleValue
1.841

@<SCITEGIC>MOL_PROPERTY
Valence
SciTegic.value.DoubleValue
8.169

@<SCITEGIC>MOL_PROPERTY
Coulomb
SciTegic.value.DoubleValue
2.735

@<SCITEGIC>MOL_PROPERTY
VdW
SciTegic.value.DoubleValue
0.355

@<SCITEGIC>MOL_PROPERTY
VdW6
SciTegic.value.DoubleValue
-6.245

@<SCITEGIC>MOL_PROPERTY
VdW12
SciTegic.value.DoubleValue
6.600

@<SCITEGIC>MOL_PROPERTY
Bond
SciTegic.value.DoubleValue
0.149

@<SCITEGIC>MOL_PROPERTY
Angle
SciTegic.value.DoubleValue
3.168

@<SCITEGIC>MOL_PROPERTY
Pdih
SciTegic.value.DoubleValue
4.840

@<SCITEGIC>MOL_PROPERTY
Idih
SciTegic.value.DoubleValue
0.011

@<SCITEGIC>MOL_PROPERTY
Tether
SciTegic.value.DoubleValue
0.000

@<TRIPOS>MOLECULE
guest-s18_confgen4.mol2 : confsearch ligand conformer 860
          16          15           1
SMALL
USER_CHARGES
 
@<TRIPOS>ATOM
       1    C1      21.294742   18.358774   23.448728 C.2        1 MOL1         0.6075
       2    O1      20.810850   17.463539   24.113229 O.co2      1 MOL1        -0.6830
       3    O2      21.990217   19.238289   23.917329 O.co2      1 MOL1        -0.6830
       4    C2      21.094076   18.327825   21.934647 C.3        1 MOL1        -0.2050
       5    H1      21.558944   17.400366   21.580437 H          1 MOL1         0.0710
       6    H2      21.657783   19.153207   21.483031 H          1 MOL1         0.0710
       7    C3      19.614188   18.363962   21.459658 C.3        1 MOL1        -0.1947
       8    H3      19.578596   17.978373   20.431793 H          1 MOL1         0.0712
       9    H4      19.010088   17.672586   22.063481 H          1 MOL1         0.0712
      10    C4      18.969209   19.770931   21.458395 C.3        1 MOL1        -0.1921
      11    H5      17.992252   19.704650   20.959942 H          1 MOL1         0.0712
      12    H6      19.577030   20.459446   20.855293 H          1 MOL1         0.0712
      13    C5      18.759578   20.362361   22.867846 C.3        1 MOL1        -0.2936
      14    H7      18.176389   21.290545   22.811868 H          1 MOL1         0.0724
      15    H8      19.716671   20.602885   23.346513 H          1 MOL1         0.0724
      16    H9      18.217541   19.659277   23.513755 H          1 MOL1         0.0724
@<TRIPOS>BOND
    1     1     2    1
    2     1     3    2
    3     1     4    1
    4     4     5    1
    5     4     6    1
    6     4     7    1
    7     7     8    1
    8     7     9    1
    9     7    10    1
   10    10    11    1
   11    10    12    1
   12    10    13    1
   13    13    14    1
   14    13    15    1
   15    13    16    1
@<TRIPOS>SUBSTRUCTURE
       1 MOL1            1 RESIDUE      1      MOL     
@<SCITEGIC>MOL_PROPERTY
VConf Rank
SciTegic.value.IntegerValue
860

@<SCITEGIC>MOL_PROPERTY
Conf_Id
SciTegic.value.IntegerValue
45

@<SCITEGIC>MOL_PROPERTY
Delta U+W
SciTegic.value.DoubleValue
2.303

@<SCITEGIC>MOL_PROPERTY
U+W
SciTegic.value.DoubleValue
-54.601

@<SCITEGIC>MOL_PROPERTY
Grad RMS
SciTegic.value.DoubleValue
0.000000

@<SCITEGIC>MOL_PROPERTY
U
SciTegic.value.DoubleValue
11.258

@<SCITEGIC>MOL_PROPERTY
W
SciTegic.value.DoubleValue
-65.860

@<SCITEGIC>MOL_PROPERTY
W(PB)
SciTegic.value.DoubleValue
-67.709

@<SCITEGIC>MOL_PROPERTY
W(SA)
SciTegic.value.DoubleValue
1.849

@<SCITEGIC>MOL_PROPERTY
Valence
SciTegic.value.DoubleValue
8.169

@<SCITEGIC>MOL_PROPERTY
Coulomb
SciTegic.value.DoubleValue
2.735

@<SCITEGIC>MOL_PROPERTY
VdW
SciTegic.value.DoubleValue
0.355

@<SCITEGIC>MOL_PROPERTY
VdW6
SciTegic.value.DoubleValue
-6.245

@<SCITEGIC>MOL_PROPERTY
VdW12
SciTegic.value.DoubleValue
6.600

@<SCITEGIC>MOL_PROPERTY
Bond
SciTegic.value.DoubleValue
0.149

@<SCITEGIC>MOL_PROPERTY
Angle
SciTegic.value.DoubleValue
3.168

@<SCITEGIC>MOL_PROPERTY
Pdih
SciTegic.value.DoubleValue
4.840

@<SCITEGIC>MOL_PROPERTY
Idih
SciTegic.value.DoubleValue
0.011

@<SCITEGIC>MOL_PROPERTY
Tether
SciTegic.value.DoubleValue
0.000

@<TRIPOS>MOLECULE
guest-s18_confgen4.mol2 : confsearch ligand conformer 861
          16          15           1
SMALL
USER_CHARGES
 
@<TRIPOS>ATOM
       1    C1      22.122263   19.992656   23.459429 C.2        1 MOL1         0.6075
       2    O1      21.592151   21.041486   23.770419 O.co2      1 MOL1        -0.6830
       3    O2      23.232502   19.674703   23.835710 O.co2      1 MOL1        -0.6830
       4    C2      21.383025   19.006579   22.553298 C.3        1 MOL1        -0.2050
       5    H1      21.312535   18.055183   23.093702 H          1 MOL1         0.0710
       6    H2      22.016237   18.830703   21.675645 H          1 MOL1         0.0710
       7    C3      19.969260   19.455726   22.097355 C.3        1 MOL1        -0.1947
       8    H3      19.341186   19.635634   22.980885 H          1 MOL1         0.0712
       9    H4      20.045618   20.411940   21.561357 H          1 MOL1         0.0712
      10    C4      19.298425   18.403822   21.189205 C.3        1 MOL1        -0.1921
      11    H5      19.219851   17.447488   21.724695 H          1 MOL1         0.0712
      12    H6      19.924698   18.224250   20.304312 H          1 MOL1         0.0712
      13    C5      17.894838   18.855553   20.739734 C.3        1 MOL1        -0.2936
      14    H7      17.237059   19.012476   21.604704 H          1 MOL1         0.0724
      15    H8      17.432179   18.096813   20.095218 H          1 MOL1         0.0724
      16    H9      17.947101   19.794969   20.173839 H          1 MOL1         0.0724
@<TRIPOS>BOND
    1     1     2    1
    2     1     3    2
    3     1     4    1
    4     4     5    1
    5     4     6    1
    6     4     7    1
    7     7     8    1
    8     7     9    1
    9     7    10    1
   10    10    11    1
   11    10    12    1
   12    10    13    1
   13    13    14    1
   14    13    15    1
   15    13    16    1
@<TRIPOS>SUBSTRUCTURE
       1 MOL1            1 RESIDUE      1      MOL     
@<SCITEGIC>MOL_PROPERTY
VConf Rank
SciTegic.value.IntegerValue
861

@<SCITEGIC>MOL_PROPERTY
Conf_Id
SciTegic.value.IntegerValue
0

@<SCITEGIC>MOL_PROPERTY
Delta U+W
SciTegic.value.DoubleValue
0.000

@<SCITEGIC>MOL_PROPERTY
U+W
SciTegic.value.DoubleValue
-56.904

@<SCITEGIC>MOL_PROPERTY
Grad RMS
SciTegic.value.DoubleValue
0.000000

@<SCITEGIC>MOL_PROPERTY
U
SciTegic.value.DoubleValue
7.329

@<SCITEGIC>MOL_PROPERTY
W
SciTegic.value.DoubleValue
-64.233

@<SCITEGIC>MOL_PROPERTY
W(PB)
SciTegic.value.DoubleValue
-66.148

@<SCITEGIC>MOL_PROPERTY
W(SA)
SciTegic.value.DoubleValue
1.915

@<SCITEGIC>MOL_PROPERTY
Valence
SciTegic.value.DoubleValue
6.755

@<SCITEGIC>MOL_PROPERTY
Coulomb
SciTegic.value.DoubleValue
-0.421

@<SCITEGIC>MOL_PROPERTY
VdW
SciTegic.value.DoubleValue
0.995

@<SCITEGIC>MOL_PROPERTY
VdW6
SciTegic.value.DoubleValue
-4.495

@<SCITEGIC>MOL_PROPERTY
VdW12
SciTegic.value.DoubleValue
5.490

@<SCITEGIC>MOL_PROPERTY
Bond
SciTegic.value.DoubleValue
0.106

@<SCITEGIC>MOL_PROPERTY
Angle
SciTegic.value.DoubleValue
2.715

@<SCITEGIC>MOL_PROPERTY
Pdih
SciTegic.value.DoubleValue
3.934

@<SCITEGIC>MOL_PROPERTY
Idih
SciTegic.value.DoubleValue
0.000

@<SCITEGIC>MOL_PROPERTY
Tether
SciTegic.value.DoubleValue
0.000

@<TRIPOS>MOLECULE
guest-s18_confgen4.mol2 : confsearch ligand conformer 862
          16          15           1
SMALL
USER_CHARGES
 
@<TRIPOS>ATOM
       1    C1      22.254791   17.710310   22.686774 C.2        1 MOL1         0.6075
       2    O1      22.737029   18.043762   23.750776 O.co2      1 MOL1        -0.6830
       3    O2      22.307057   16.577577   22.250851 O.co2      1 MOL1        -0.6830
       4    C2      21.528577   18.767109   21.861928 C.3        1 MOL1        -0.2050
       5    H1      21.663624   18.523925   20.801045 H          1 MOL1         0.0710
       6    H2      22.018017   19.732713   22.037734 H          1 MOL1         0.0710
       7    C3      20.020371   18.863815   22.199603 C.3        1 MOL1        -0.1947
       8    H3      19.547085   17.886606   22.030448 H          1 MOL1         0.0712
       9    H4      19.901486   19.095383   23.267214 H          1 MOL1         0.0712
      10    C4      19.309965   19.939517   21.351811 C.3        1 MOL1        -0.1921
      11    H5      19.428044   19.707924   20.284122 H          1 MOL1         0.0712
      12    H6      19.782565   20.917014   21.521180 H          1 MOL1         0.0712
      13    C5      17.809521   20.030175   21.693207 C.3        1 MOL1        -0.2936
      14    H7      17.662089   20.291780   22.749283 H          1 MOL1         0.0724
      15    H8      17.304954   19.073751   21.503110 H          1 MOL1         0.0724
      16    H9      17.319570   20.799231   21.081937 H          1 MOL1         0.0724
@<TRIPOS>BOND
    1     1     2    1
    2     1     3    2
    3     1     4    1
    4     4     5    1
    5     4     6    1
    6     4     7    1
    7     7     8    1
    8     7     9    1
    9     7    10    1
   10    10    11    1
   11    10    12    1
   12    10    13    1
   13    13    14    1
   14    13    15    1
   15    13    16    1
@<TRIPOS>SUBSTRUCTURE
       1 MOL1            1 RESIDUE      1      MOL     
@<SCITEGIC>MOL_PROPERTY
VConf Rank
SciTegic.value.IntegerValue
862

@<SCITEGIC>MOL_PROPERTY
Conf_Id
SciTegic.value.IntegerValue
22

@<SCITEGIC>MOL_PROPERTY
Delta U+W
SciTegic.value.DoubleValue
-1.185

@<SCITEGIC>MOL_PROPERTY
U+W
SciTegic.value.DoubleValue
-58.089

@<SCITEGIC>MOL_PROPERTY
Grad RMS
SciTegic.value.DoubleValue
0.000000

@<SCITEGIC>MOL_PROPERTY
U
SciTegic.value.DoubleValue
6.298

@<SCITEGIC>MOL_PROPERTY
W
SciTegic.value.DoubleValue
-64.387

@<SCITEGIC>MOL_PROPERTY
W(PB)
SciTegic.value.DoubleValue
-66.329

@<SCITEGIC>MOL_PROPERTY
W(SA)
SciTegic.value.DoubleValue
1.942

@<SCITEGIC>MOL_PROPERTY
Valence
SciTegic.value.DoubleValue
6.246

@<SCITEGIC>MOL_PROPERTY
Coulomb
SciTegic.value.DoubleValue
-0.408

@<SCITEGIC>MOL_PROPERTY
VdW
SciTegic.value.DoubleValue
0.460

@<SCITEGIC>MOL_PROPERTY
VdW6
SciTegic.value.DoubleValue
-4.207

@<SCITEGIC>MOL_PROPERTY
VdW12
SciTegic.value.DoubleValue
4.667

@<SCITEGIC>MOL_PROPERTY
Bond
SciTegic.value.DoubleValue
0.072

@<SCITEGIC>MOL_PROPERTY
Angle
SciTegic.value.DoubleValue
2.246

@<SCITEGIC>MOL_PROPERTY
Pdih
SciTegic.value.DoubleValue
3.928

@<SCITEGIC>MOL_PROPERTY
Idih
SciTegic.value.DoubleValue
0.001

@<SCITEGIC>MOL_PROPERTY
Tether
SciTegic.value.DoubleValue
0.000

@<TRIPOS>MOLECULE
guest-s18_confgen4.mol2 : confsearch ligand conformer 863
          16          15           1
SMALL
USER_CHARGES
 
@<TRIPOS>ATOM
       1    C1      21.461497   21.256871   21.965049 C.2        1 MOL1         0.6075
       2    O1      22.666147   21.198208   21.818855 O.co2      1 MOL1        -0.6830
       3    O2      20.891280   22.205446   22.466063 O.co2      1 MOL1        -0.6830
       4    C2      20.622134   20.066859   21.513482 C.3        1 MOL1        -0.2050
       5    H1      21.114977   19.612266   20.645717 H          1 MOL1         0.0710
       6    H2      19.653616   20.450666   21.173214 H          1 MOL1         0.0710
       7    C3      20.427153   19.009991   22.631518 C.3        1 MOL1        -0.1947
       8    H3      21.414161   18.710313   23.010250 H          1 MOL1         0.0712
       9    H4      19.894862   19.465672   23.477881 H          1 MOL1         0.0712
      10    C4      19.671898   17.746403   22.158928 C.3        1 MOL1        -0.1921
      11    H5      19.673202   17.008875   22.973398 H          1 MOL1         0.0712
      12    H6      20.210351   17.283929   21.320139 H          1 MOL1         0.0712
      13    C5      18.211638   18.029009   21.745759 C.3        1 MOL1        -0.2936
      14    H7      18.163410   18.674561   20.859915 H          1 MOL1         0.0724
      15    H8      17.660728   18.518286   22.559611 H          1 MOL1         0.0724
      16    H9      17.693665   17.092216   21.502589 H          1 MOL1         0.0724
@<TRIPOS>BOND
    1     1     2    1
    2     1     3    2
    3     1     4    1
    4     4     5    1
    5     4     6    1
    6     4     7    1
    7     7     8    1
    8     7     9    1
    9     7    10    1
   10    10    11    1
   11    10    12    1
   12    10    13    1
   13    13    14    1
   14    13    15    1
   15    13    16    1
@<TRIPOS>SUBSTRUCTURE
       1 MOL1            1 RESIDUE      1      MOL     
@<SCITEGIC>MOL_PROPERTY
VConf Rank
SciTegic.value.IntegerValue
863

@<SCITEGIC>MOL_PROPERTY
Conf_Id
SciTegic.value.IntegerValue
36

@<SCITEGIC>MOL_PROPERTY
Delta U+W
SciTegic.value.DoubleValue
-0.427

@<SCITEGIC>MOL_PROPERTY
U+W
SciTegic.value.DoubleValue
-57.331

@<SCITEGIC>MOL_PROPERTY
Grad RMS
SciTegic.value.DoubleValue
0.000000

@<SCITEGIC>MOL_PROPERTY
U
SciTegic.value.DoubleValue
7.263

@<SCITEGIC>MOL_PROPERTY
W
SciTegic.value.DoubleValue
-64.594

@<SCITEGIC>MOL_PROPERTY
W(PB)
SciTegic.value.DoubleValue
-66.513

@<SCITEGIC>MOL_PROPERTY
W(SA)
SciTegic.value.DoubleValue
1.920

@<SCITEGIC>MOL_PROPERTY
Valence
SciTegic.value.DoubleValue
6.734

@<SCITEGIC>MOL_PROPERTY
Coulomb
SciTegic.value.DoubleValue
-0.068

@<SCITEGIC>MOL_PROPERTY
VdW
SciTegic.value.DoubleValue
0.598

@<SCITEGIC>MOL_PROPERTY
VdW6
SciTegic.value.DoubleValue
-4.819

@<SCITEGIC>MOL_PROPERTY
VdW12
SciTegic.value.DoubleValue
5.417

@<SCITEGIC>MOL_PROPERTY
Bond
SciTegic.value.DoubleValue
0.107

@<SCITEGIC>MOL_PROPERTY
Angle
SciTegic.value.DoubleValue
2.469

@<SCITEGIC>MOL_PROPERTY
Pdih
SciTegic.value.DoubleValue
4.157

@<SCITEGIC>MOL_PROPERTY
Idih
SciTegic.value.DoubleValue
0.001

@<SCITEGIC>MOL_PROPERTY
Tether
SciTegic.value.DoubleValue
0.000

@<TRIPOS>MOLECULE
guest-s18_confgen4.mol2 : confsearch ligand conformer 864
          16          15           1
SMALL
USER_CHARGES
 
@<TRIPOS>ATOM
       1    C1      22.126268   19.590808   20.639015 C.2        1 MOL1         0.6075
       2    O1      22.187403   18.877347   19.657591 O.co2      1 MOL1        -0.6830
       3    O2      23.088987   20.153665   21.121051 O.co2      1 MOL1        -0.6830
       4    C2      20.771747   19.773955   21.314518 C.3        1 MOL1        -0.2050
       5    H1      20.001587   19.733948   20.535822 H          1 MOL1         0.0710
       6    H2      20.741805   20.779818   21.750304 H          1 MOL1         0.0710
       7    C3      20.496643   18.709491   22.408241 C.3        1 MOL1        -0.1947
       8    H3      20.486735   17.709740   21.952489 H          1 MOL1         0.0712
       9    H4      21.329591   18.716018   23.124888 H          1 MOL1         0.0712
      10    C4      19.176948   18.945386   23.178412 C.3        1 MOL1        -0.1921
      11    H5      19.191555   19.940549   23.644049 H          1 MOL1         0.0712
      12    H6      19.112873   18.218794   24.000158 H          1 MOL1         0.0712
      13    C5      17.921276   18.805635   22.291459 C.3        1 MOL1        -0.2936
      14    H7      17.885120   19.586749   21.521826 H          1 MOL1         0.0724
      15    H8      17.011023   18.895115   22.898453 H          1 MOL1         0.0724
      16    H9      17.899728   17.828122   21.792204 H          1 MOL1         0.0724
@<TRIPOS>BOND
    1     1     2    1
    2     1     3    2
    3     1     4    1
    4     4     5    1
    5     4     6    1
    6     4     7    1
    7     7     8    1
    8     7     9    1
    9     7    10    1
   10    10    11    1
   11    10    12    1
   12    10    13    1
   13    13    14    1
   14    13    15    1
   15    13    16    1
@<TRIPOS>SUBSTRUCTURE
       1 MOL1            1 RESIDUE      1      MOL     
@<SCITEGIC>MOL_PROPERTY
VConf Rank
SciTegic.value.IntegerValue
864

@<SCITEGIC>MOL_PROPERTY
Conf_Id
SciTegic.value.IntegerValue
17

@<SCITEGIC>MOL_PROPERTY
Delta U+W
SciTegic.value.DoubleValue
-0.432

@<SCITEGIC>MOL_PROPERTY
U+W
SciTegic.value.DoubleValue
-57.336

@<SCITEGIC>MOL_PROPERTY
Grad RMS
SciTegic.value.DoubleValue
0.000000

@<SCITEGIC>MOL_PROPERTY
U
SciTegic.value.DoubleValue
7.263

@<SCITEGIC>MOL_PROPERTY
W
SciTegic.value.DoubleValue
-64.599

@<SCITEGIC>MOL_PROPERTY
W(PB)
SciTegic.value.DoubleValue
-66.503

@<SCITEGIC>MOL_PROPERTY
W(SA)
SciTegic.value.DoubleValue
1.904

@<SCITEGIC>MOL_PROPERTY
Valence
SciTegic.value.DoubleValue
6.734

@<SCITEGIC>MOL_PROPERTY
Coulomb
SciTegic.value.DoubleValue
-0.068

@<SCITEGIC>MOL_PROPERTY
VdW
SciTegic.value.DoubleValue
0.598

@<SCITEGIC>MOL_PROPERTY
VdW6
SciTegic.value.DoubleValue
-4.819

@<SCITEGIC>MOL_PROPERTY
VdW12
SciTegic.value.DoubleValue
5.417

@<SCITEGIC>MOL_PROPERTY
Bond
SciTegic.value.DoubleValue
0.107

@<SCITEGIC>MOL_PROPERTY
Angle
SciTegic.value.DoubleValue
2.469

@<SCITEGIC>MOL_PROPERTY
Pdih
SciTegic.value.DoubleValue
4.157

@<SCITEGIC>MOL_PROPERTY
Idih
SciTegic.value.DoubleValue
0.001

@<SCITEGIC>MOL_PROPERTY
Tether
SciTegic.value.DoubleValue
0.000

@<TRIPOS>MOLECULE
guest-s18_confgen4.mol2 : confsearch ligand conformer 865
          16          15           1
SMALL
USER_CHARGES
 
@<TRIPOS>ATOM
       1    C1      21.249144   20.436582   23.726411 C.2        1 MOL1         0.6075
       2    O1      20.866674   21.588862   23.774482 O.co2      1 MOL1        -0.6830
       3    O2      21.368955   19.727843   24.706000 O.co2      1 MOL1        -0.6830
       4    C2      21.621404   19.857997   22.364004 C.3        1 MOL1        -0.2050
       5    H1      22.255830   18.976742   22.518850 H          1 MOL1         0.0710
       6    H2      22.236380   20.604418   21.847386 H          1 MOL1         0.0710
       7    C3      20.402204   19.490416   21.478865 C.3        1 MOL1        -0.1947
       8    H3      19.761445   20.374722   21.356170 H          1 MOL1         0.0712
       9    H4      20.758940   19.216943   20.476612 H          1 MOL1         0.0712
      10    C4      19.576261   18.322850   22.060922 C.3        1 MOL1        -0.1921
      11    H5      19.196595   18.593237   23.056144 H          1 MOL1         0.0712
      12    H6      20.221077   17.443244   22.194648 H          1 MOL1         0.0712
      13    C5      18.391358   17.955888   21.145669 C.3        1 MOL1        -0.2936
      14    H7      17.713331   18.810249   21.019979 H          1 MOL1         0.0724
      15    H8      17.814742   17.125701   21.573947 H          1 MOL1         0.0724
      16    H9      18.742761   17.647588   20.152250 H          1 MOL1         0.0724
@<TRIPOS>BOND
    1     1     2    1
    2     1     3    2
    3     1     4    1
    4     4     5    1
    5     4     6    1
    6     4     7    1
    7     7     8    1
    8     7     9    1
    9     7    10    1
   10    10    11    1
   11    10    12    1
   12    10    13    1
   13    13    14    1
   14    13    15    1
   15    13    16    1
@<TRIPOS>SUBSTRUCTURE
       1 MOL1            1 RESIDUE      1      MOL     
@<SCITEGIC>MOL_PROPERTY
VConf Rank
SciTegic.value.IntegerValue
865

@<SCITEGIC>MOL_PROPERTY
Conf_Id
SciTegic.value.IntegerValue
19

@<SCITEGIC>MOL_PROPERTY
Delta U+W
SciTegic.value.DoubleValue
0.048

@<SCITEGIC>MOL_PROPERTY
U+W
SciTegic.value.DoubleValue
-56.856

@<SCITEGIC>MOL_PROPERTY
Grad RMS
SciTegic.value.DoubleValue
0.000000

@<SCITEGIC>MOL_PROPERTY
U
SciTegic.value.DoubleValue
8.276

@<SCITEGIC>MOL_PROPERTY
W
SciTegic.value.DoubleValue
-65.132

@<SCITEGIC>MOL_PROPERTY
W(PB)
SciTegic.value.DoubleValue
-67.031

@<SCITEGIC>MOL_PROPERTY
W(SA)
SciTegic.value.DoubleValue
1.899

@<SCITEGIC>MOL_PROPERTY
Valence
SciTegic.value.DoubleValue
6.513

@<SCITEGIC>MOL_PROPERTY
Coulomb
SciTegic.value.DoubleValue
1.428

@<SCITEGIC>MOL_PROPERTY
VdW
SciTegic.value.DoubleValue
0.335

@<SCITEGIC>MOL_PROPERTY
VdW6
SciTegic.value.DoubleValue
-5.021

@<SCITEGIC>MOL_PROPERTY
VdW12
SciTegic.value.DoubleValue
5.356

@<SCITEGIC>MOL_PROPERTY
Bond
SciTegic.value.DoubleValue
0.092

@<SCITEGIC>MOL_PROPERTY
Angle
SciTegic.value.DoubleValue
2.417

@<SCITEGIC>MOL_PROPERTY
Pdih
SciTegic.value.DoubleValue
4.003

@<SCITEGIC>MOL_PROPERTY
Idih
SciTegic.value.DoubleValue
0.001

@<SCITEGIC>MOL_PROPERTY
Tether
SciTegic.value.DoubleValue
0.000

@<TRIPOS>MOLECULE
guest-s18_confgen4.mol2 : confsearch ligand conformer 866
          16          15           1
SMALL
USER_CHARGES
 
@<TRIPOS>ATOM
       1    C1      17.782003   18.483622   22.990025 C.2        1 MOL1         0.6075
       2    O1      17.542763   17.303579   22.826913 O.co2      1 MOL1        -0.6830
       3    O2      16.991967   19.370279   22.733227 O.co2      1 MOL1        -0.6830
       4    C2      19.139782   18.869213   23.570759 C.3        1 MOL1        -0.2050
       5    H1      19.334171   18.204018   24.420444 H          1 MOL1         0.0710
       6    H2      19.072389   19.887063   23.973901 H          1 MOL1         0.0710
       7    C3      20.310945   18.771166   22.558925 C.3        1 MOL1        -0.1947
       8    H3      21.257653   18.928947   23.093161 H          1 MOL1         0.0712
       9    H4      20.348307   17.754888   22.142505 H          1 MOL1         0.0712
      10    C4      20.194891   19.801264   21.414539 C.3        1 MOL1        -0.1921
      11    H5      20.145170   20.816064   21.832971 H          1 MOL1         0.0712
      12    H6      19.260145   19.639798   20.859650 H          1 MOL1         0.0712
      13    C5      21.387708   19.704935   20.442808 C.3        1 MOL1        -0.2936
      14    H7      22.335244   19.896380   20.963327 H          1 MOL1         0.0724
      15    H8      21.289330   20.442498   19.635689 H          1 MOL1         0.0724
      16    H9      21.442330   18.707963   19.986176 H          1 MOL1         0.0724
@<TRIPOS>BOND
    1     1     2    1
    2     1     3    2
    3     1     4    1
    4     4     5    1
    5     4     6    1
    6     4     7    1
    7     7     8    1
    8     7     9    1
    9     7    10    1
   10    10    11    1
   11    10    12    1
   12    10    13    1
   13    13    14    1
   14    13    15    1
   15    13    16    1
@<TRIPOS>SUBSTRUCTURE
       1 MOL1            1 RESIDUE      1      MOL     
@<SCITEGIC>MOL_PROPERTY
VConf Rank
SciTegic.value.IntegerValue
866

@<SCITEGIC>MOL_PROPERTY
Conf_Id
SciTegic.value.IntegerValue
20

@<SCITEGIC>MOL_PROPERTY
Delta U+W
SciTegic.value.DoubleValue
-0.010

@<SCITEGIC>MOL_PROPERTY
U+W
SciTegic.value.DoubleValue
-56.914

@<SCITEGIC>MOL_PROPERTY
Grad RMS
SciTegic.value.DoubleValue
0.000000

@<SCITEGIC>MOL_PROPERTY
U
SciTegic.value.DoubleValue
8.277

@<SCITEGIC>MOL_PROPERTY
W
SciTegic.value.DoubleValue
-65.191

@<SCITEGIC>MOL_PROPERTY
W(PB)
SciTegic.value.DoubleValue
-67.081

@<SCITEGIC>MOL_PROPERTY
W(SA)
SciTegic.value.DoubleValue
1.890

@<SCITEGIC>MOL_PROPERTY
Valence
SciTegic.value.DoubleValue
6.513

@<SCITEGIC>MOL_PROPERTY
Coulomb
SciTegic.value.DoubleValue
1.429

@<SCITEGIC>MOL_PROPERTY
VdW
SciTegic.value.DoubleValue
0.335

@<SCITEGIC>MOL_PROPERTY
VdW6
SciTegic.value.DoubleValue
-5.021

@<SCITEGIC>MOL_PROPERTY
VdW12
SciTegic.value.DoubleValue
5.356

@<SCITEGIC>MOL_PROPERTY
Bond
SciTegic.value.DoubleValue
0.092

@<SCITEGIC>MOL_PROPERTY
Angle
SciTegic.value.DoubleValue
2.417

@<SCITEGIC>MOL_PROPERTY
Pdih
SciTegic.value.DoubleValue
4.002

@<SCITEGIC>MOL_PROPERTY
Idih
SciTegic.value.DoubleValue
0.001

@<SCITEGIC>MOL_PROPERTY
Tether
SciTegic.value.DoubleValue
0.000

@<TRIPOS>MOLECULE
guest-s18_confgen4.mol2 : confsearch ligand conformer 867
          16          15           1
SMALL
USER_CHARGES
 
@<TRIPOS>ATOM
       1    C1      21.380916   17.640357   22.150931 C.2        1 MOL1         0.6075
       2    O1      21.445634   16.753901   22.979661 O.co2      1 MOL1        -0.6830
       3    O2      22.341227   18.290715   21.788803 O.co2      1 MOL1        -0.6830
       4    C2      20.026666   17.926768   21.507721 C.3        1 MOL1        -0.2050
       5    H1      19.622319   16.968862   21.160159 H          1 MOL1         0.0710
       6    H2      20.184633   18.539553   20.612853 H          1 MOL1         0.0710
       7    C3      19.000668   18.601262   22.459070 C.3        1 MOL1        -0.1947
       8    H3      18.036905   18.695614   21.940775 H          1 MOL1         0.0712
       9    H4      18.825383   17.937206   23.316775 H          1 MOL1         0.0712
      10    C4      19.434728   19.990763   22.983348 C.3        1 MOL1        -0.1921
      11    H5      20.381444   19.904048   23.534535 H          1 MOL1         0.0712
      12    H6      18.687058   20.343767   23.706885 H          1 MOL1         0.0712
      13    C5      19.581836   21.044515   21.865130 C.3        1 MOL1        -0.2936
      14    H7      20.405909   20.791606   21.185845 H          1 MOL1         0.0724
      15    H8      19.797021   22.031640   22.294246 H          1 MOL1         0.0724
      16    H9      18.659252   21.125173   21.275724 H          1 MOL1         0.0724
@<TRIPOS>BOND
    1     1     2    1
    2     1     3    2
    3     1     4    1
    4     4     5    1
    5     4     6    1
    6     4     7    1
    7     7     8    1
    8     7     9    1
    9     7    10    1
   10    10    11    1
   11    10    12    1
   12    10    13    1
   13    13    14    1
   14    13    15    1
   15    13    16    1
@<TRIPOS>SUBSTRUCTURE
       1 MOL1            1 RESIDUE      1      MOL     
@<SCITEGIC>MOL_PROPERTY
VConf Rank
SciTegic.value.IntegerValue
867

@<SCITEGIC>MOL_PROPERTY
Conf_Id
SciTegic.value.IntegerValue
37

@<SCITEGIC>MOL_PROPERTY
Delta U+W
SciTegic.value.DoubleValue
1.063

@<SCITEGIC>MOL_PROPERTY
U+W
SciTegic.value.DoubleValue
-55.841

@<SCITEGIC>MOL_PROPERTY
Grad RMS
SciTegic.value.DoubleValue
0.000000

@<SCITEGIC>MOL_PROPERTY
U
SciTegic.value.DoubleValue
9.719

@<SCITEGIC>MOL_PROPERTY
W
SciTegic.value.DoubleValue
-65.560

@<SCITEGIC>MOL_PROPERTY
W(PB)
SciTegic.value.DoubleValue
-67.414

@<SCITEGIC>MOL_PROPERTY
W(SA)
SciTegic.value.DoubleValue
1.854

@<SCITEGIC>MOL_PROPERTY
Valence
SciTegic.value.DoubleValue
7.002

@<SCITEGIC>MOL_PROPERTY
Coulomb
SciTegic.value.DoubleValue
2.402

@<SCITEGIC>MOL_PROPERTY
VdW
SciTegic.value.DoubleValue
0.314

@<SCITEGIC>MOL_PROPERTY
VdW6
SciTegic.value.DoubleValue
-5.861

@<SCITEGIC>MOL_PROPERTY
VdW12
SciTegic.value.DoubleValue
6.175

@<SCITEGIC>MOL_PROPERTY
Bond
SciTegic.value.DoubleValue
0.134

@<SCITEGIC>MOL_PROPERTY
Angle
SciTegic.value.DoubleValue
2.733

@<SCITEGIC>MOL_PROPERTY
Pdih
SciTegic.value.DoubleValue
4.133

@<SCITEGIC>MOL_PROPERTY
Idih
SciTegic.value.DoubleValue
0.002

@<SCITEGIC>MOL_PROPERTY
Tether
SciTegic.value.DoubleValue
0.000

@<TRIPOS>MOLECULE
guest-s18_confgen4.mol2 : confsearch ligand conformer 868
          16          15           1
SMALL
USER_CHARGES
 
@<TRIPOS>ATOM
       1    C1      20.473950   17.014794   22.246168 C.2        1 MOL1         0.6075
       2    O1      19.984682   16.236194   21.451697 O.co2      1 MOL1        -0.6830
       3    O2      21.642147   16.987052   22.579103 O.co2      1 MOL1        -0.6830
       4    C2      19.562548   18.059841   22.884109 C.3        1 MOL1        -0.2050
       5    H1      20.073250   18.488135   23.754165 H          1 MOL1         0.0710
       6    H2      18.682424   17.532161   23.269877 H          1 MOL1         0.0710
       7    C3      19.102841   19.181005   21.912338 C.3        1 MOL1        -0.1947
       8    H3      18.548919   18.722468   21.081514 H          1 MOL1         0.0712
       9    H4      18.391683   19.837936   22.431055 H          1 MOL1         0.0712
      10    C4      20.255579   20.035298   21.333226 C.3        1 MOL1        -0.1921
      11    H5      19.838516   20.739442   20.600172 H          1 MOL1         0.0712
      12    H6      20.956527   19.393629   20.781384 H          1 MOL1         0.0712
      13    C5      21.022179   20.832947   22.409573 C.3        1 MOL1        -0.2936
      14    H7      20.338220   21.456674   22.999683 H          1 MOL1         0.0724
      15    H8      21.764240   21.492918   21.941979 H          1 MOL1         0.0724
      16    H9      21.558596   20.163654   23.094256 H          1 MOL1         0.0724
@<TRIPOS>BOND
    1     1     2    1
    2     1     3    2
    3     1     4    1
    4     4     5    1
    5     4     6    1
    6     4     7    1
    7     7     8    1
    8     7     9    1
    9     7    10    1
   10    10    11    1
   11    10    12    1
   12    10    13    1
   13    13    14    1
   14    13    15    1
   15    13    16    1
@<TRIPOS>SUBSTRUCTURE
       1 MOL1            1 RESIDUE      1      MOL     
@<SCITEGIC>MOL_PROPERTY
VConf Rank
SciTegic.value.IntegerValue
868

@<SCITEGIC>MOL_PROPERTY
Conf_Id
SciTegic.value.IntegerValue
39

@<SCITEGIC>MOL_PROPERTY
Delta U+W
SciTegic.value.DoubleValue
1.129

@<SCITEGIC>MOL_PROPERTY
U+W
SciTegic.value.DoubleValue
-55.775

@<SCITEGIC>MOL_PROPERTY
Grad RMS
SciTegic.value.DoubleValue
0.000000

@<SCITEGIC>MOL_PROPERTY
U
SciTegic.value.DoubleValue
9.718

@<SCITEGIC>MOL_PROPERTY
W
SciTegic.value.DoubleValue
-65.493

@<SCITEGIC>MOL_PROPERTY
W(PB)
SciTegic.value.DoubleValue
-67.361

@<SCITEGIC>MOL_PROPERTY
W(SA)
SciTegic.value.DoubleValue
1.869

@<SCITEGIC>MOL_PROPERTY
Valence
SciTegic.value.DoubleValue
7.002

@<SCITEGIC>MOL_PROPERTY
Coulomb
SciTegic.value.DoubleValue
2.402

@<SCITEGIC>MOL_PROPERTY
VdW
SciTegic.value.DoubleValue
0.314

@<SCITEGIC>MOL_PROPERTY
VdW6
SciTegic.value.DoubleValue
-5.861

@<SCITEGIC>MOL_PROPERTY
VdW12
SciTegic.value.DoubleValue
6.175

@<SCITEGIC>MOL_PROPERTY
Bond
SciTegic.value.DoubleValue
0.134

@<SCITEGIC>MOL_PROPERTY
Angle
SciTegic.value.DoubleValue
2.734

@<SCITEGIC>MOL_PROPERTY
Pdih
SciTegic.value.DoubleValue
4.133

@<SCITEGIC>MOL_PROPERTY
Idih
SciTegic.value.DoubleValue
0.002

@<SCITEGIC>MOL_PROPERTY
Tether
SciTegic.value.DoubleValue
0.000

@<TRIPOS>MOLECULE
guest-s18_confgen4.mol2 : confsearch ligand conformer 869
          16          15           1
SMALL
USER_CHARGES
 
@<TRIPOS>ATOM
       1    C1      20.366183   18.226291   20.527601 C.2        1 MOL1         0.6075
       2    O1      19.920330   17.097974   20.457344 O.co2      1 MOL1        -0.6830
       3    O2      21.515572   18.509388   20.252066 O.co2      1 MOL1        -0.6830
       4    C2      19.408324   19.358467   20.894122 C.3        1 MOL1        -0.2050
       5    H1      18.402288   18.944047   21.032422 H          1 MOL1         0.0710
       6    H2      19.358410   20.016317   20.018627 H          1 MOL1         0.0710
       7    C3      19.818514   20.200246   22.135144 C.3        1 MOL1        -0.1947
       8    H3      20.889721   20.440577   22.087209 H          1 MOL1         0.0712
       9    H4      19.290001   21.161669   22.082316 H          1 MOL1         0.0712
      10    C4      19.480290   19.550177   23.498441 C.3        1 MOL1        -0.1921
      11    H5      18.409058   19.309695   23.541578 H          1 MOL1         0.0712
      12    H6      19.662484   20.289610   24.290487 H          1 MOL1         0.0712
      13    C5      20.308847   18.286486   23.809678 C.3        1 MOL1        -0.2936
      14    H7      20.039823   17.458197   23.142923 H          1 MOL1         0.0724
      15    H8      20.127985   17.952855   24.839604 H          1 MOL1         0.0724
      16    H9      21.383459   18.482825   23.700179 H          1 MOL1         0.0724
@<TRIPOS>BOND
    1     1     2    1
    2     1     3    2
    3     1     4    1
    4     4     5    1
    5     4     6    1
    6     4     7    1
    7     7     8    1
    8     7     9    1
    9     7    10    1
   10    10    11    1
   11    10    12    1
   12    10    13    1
   13    13    14    1
   14    13    15    1
   15    13    16    1
@<TRIPOS>SUBSTRUCTURE
       1 MOL1            1 RESIDUE      1      MOL     
@<SCITEGIC>MOL_PROPERTY
VConf Rank
SciTegic.value.IntegerValue
869

@<SCITEGIC>MOL_PROPERTY
Conf_Id
SciTegic.value.IntegerValue
47

@<SCITEGIC>MOL_PROPERTY
Delta U+W
SciTegic.value.DoubleValue
2.301

@<SCITEGIC>MOL_PROPERTY
U+W
SciTegic.value.DoubleValue
-54.603

@<SCITEGIC>MOL_PROPERTY
Grad RMS
SciTegic.value.DoubleValue
0.000000

@<SCITEGIC>MOL_PROPERTY
U
SciTegic.value.DoubleValue
11.258

@<SCITEGIC>MOL_PROPERTY
W
SciTegic.value.DoubleValue
-65.861

@<SCITEGIC>MOL_PROPERTY
W(PB)
SciTegic.value.DoubleValue
-67.702

@<SCITEGIC>MOL_PROPERTY
W(SA)
SciTegic.value.DoubleValue
1.841

@<SCITEGIC>MOL_PROPERTY
Valence
SciTegic.value.DoubleValue
8.169

@<SCITEGIC>MOL_PROPERTY
Coulomb
SciTegic.value.DoubleValue
2.735

@<SCITEGIC>MOL_PROPERTY
VdW
SciTegic.value.DoubleValue
0.355

@<SCITEGIC>MOL_PROPERTY
VdW6
SciTegic.value.DoubleValue
-6.245

@<SCITEGIC>MOL_PROPERTY
VdW12
SciTegic.value.DoubleValue
6.600

@<SCITEGIC>MOL_PROPERTY
Bond
SciTegic.value.DoubleValue
0.149

@<SCITEGIC>MOL_PROPERTY
Angle
SciTegic.value.DoubleValue
3.168

@<SCITEGIC>MOL_PROPERTY
Pdih
SciTegic.value.DoubleValue
4.840

@<SCITEGIC>MOL_PROPERTY
Idih
SciTegic.value.DoubleValue
0.011

@<SCITEGIC>MOL_PROPERTY
Tether
SciTegic.value.DoubleValue
0.000

@<TRIPOS>MOLECULE
guest-s18_confgen4.mol2 : confsearch ligand conformer 870
          16          15           1
SMALL
USER_CHARGES
 
@<TRIPOS>ATOM
       1    C1      19.236758   19.193004   20.376899 C.2        1 MOL1         0.6075
       2    O1      19.635456   18.206410   19.789676 O.co2      1 MOL1        -0.6830
       3    O2      19.326659   20.319263   19.929376 O.co2      1 MOL1        -0.6830
       4    C2      18.504584   19.000641   21.703768 C.3        1 MOL1        -0.2050
       5    H1      17.615739   18.398708   21.481550 H          1 MOL1         0.0710
       6    H2      18.143433   19.974367   22.056483 H          1 MOL1         0.0710
       7    C3      19.325744   18.295219   22.819592 C.3        1 MOL1        -0.1947
       8    H3      18.618920   17.894591   23.558748 H          1 MOL1         0.0712
       9    H4      19.853638   17.425967   22.403336 H          1 MOL1         0.0712
      10    C4      20.321774   19.213198   23.568457 C.3        1 MOL1        -0.1921
      11    H5      20.724287   18.660378   24.428496 H          1 MOL1         0.0712
      12    H6      19.790508   20.081780   23.981438 H          1 MOL1         0.0712
      13    C5      21.502987   19.692394   22.699323 C.3        1 MOL1        -0.2936
      14    H7      22.243539   20.219250   23.314769 H          1 MOL1         0.0724
      15    H8      21.168804   20.387032   21.919067 H          1 MOL1         0.0724
      16    H9      22.005325   18.844816   22.214970 H          1 MOL1         0.0724
@<TRIPOS>BOND
    1     1     2    1
    2     1     3    2
    3     1     4    1
    4     4     5    1
    5     4     6    1
    6     4     7    1
    7     7     8    1
    8     7     9    1
    9     7    10    1
   10    10    11    1
   11    10    12    1
   12    10    13    1
   13    13    14    1
   14    13    15    1
   15    13    16    1
@<TRIPOS>SUBSTRUCTURE
       1 MOL1            1 RESIDUE      1      MOL     
@<SCITEGIC>MOL_PROPERTY
VConf Rank
SciTegic.value.IntegerValue
870

@<SCITEGIC>MOL_PROPERTY
Conf_Id
SciTegic.value.IntegerValue
45

@<SCITEGIC>MOL_PROPERTY
Delta U+W
SciTegic.value.DoubleValue
2.303

@<SCITEGIC>MOL_PROPERTY
U+W
SciTegic.value.DoubleValue
-54.601

@<SCITEGIC>MOL_PROPERTY
Grad RMS
SciTegic.value.DoubleValue
0.000000

@<SCITEGIC>MOL_PROPERTY
U
SciTegic.value.DoubleValue
11.258

@<SCITEGIC>MOL_PROPERTY
W
SciTegic.value.DoubleValue
-65.860

@<SCITEGIC>MOL_PROPERTY
W(PB)
SciTegic.value.DoubleValue
-67.709

@<SCITEGIC>MOL_PROPERTY
W(SA)
SciTegic.value.DoubleValue
1.849

@<SCITEGIC>MOL_PROPERTY
Valence
SciTegic.value.DoubleValue
8.169

@<SCITEGIC>MOL_PROPERTY
Coulomb
SciTegic.value.DoubleValue
2.735

@<SCITEGIC>MOL_PROPERTY
VdW
SciTegic.value.DoubleValue
0.355

@<SCITEGIC>MOL_PROPERTY
VdW6
SciTegic.value.DoubleValue
-6.245

@<SCITEGIC>MOL_PROPERTY
VdW12
SciTegic.value.DoubleValue
6.600

@<SCITEGIC>MOL_PROPERTY
Bond
SciTegic.value.DoubleValue
0.149

@<SCITEGIC>MOL_PROPERTY
Angle
SciTegic.value.DoubleValue
3.168

@<SCITEGIC>MOL_PROPERTY
Pdih
SciTegic.value.DoubleValue
4.840

@<SCITEGIC>MOL_PROPERTY
Idih
SciTegic.value.DoubleValue
0.011

@<SCITEGIC>MOL_PROPERTY
Tether
SciTegic.value.DoubleValue
0.000

@<TRIPOS>MOLECULE
guest-s18_confgen4.mol2 : confsearch ligand conformer 871
          16          15           1
SMALL
USER_CHARGES
 
@<TRIPOS>ATOM
       1    C1      19.778079   19.327122   19.185747 C.2        1 MOL1         0.6075
       2    O1      19.293452   18.221133   19.045384 O.co2      1 MOL1        -0.6830
       3    O2      19.993066   20.078758   18.256158 O.co2      1 MOL1        -0.6830
       4    C2      20.145347   19.824191   20.585008 C.3        1 MOL1        -0.2050
       5    H1      19.598007   20.759023   20.754331 H          1 MOL1         0.0710
       6    H2      21.212632   20.075057   20.573519 H          1 MOL1         0.0710
       7    C3      19.853604   18.830036   21.740382 C.3        1 MOL1        -0.1947
       8    H3      18.783997   18.578242   21.743449 H          1 MOL1         0.0712
       9    H4      20.400296   17.893585   21.562457 H          1 MOL1         0.0712
      10    C4      20.253729   19.411938   23.112443 C.3        1 MOL1        -0.1921
      11    H5      19.706362   20.347622   23.292402 H          1 MOL1         0.0712
      12    H6      21.323630   19.662560   23.111313 H          1 MOL1         0.0712
      13    C5      19.961603   18.420096   24.255707 C.3        1 MOL1        -0.2936
      14    H7      18.892103   18.175803   24.299990 H          1 MOL1         0.0724
      15    H8      20.251718   18.849129   25.223645 H          1 MOL1         0.0724
      16    H9      20.521301   17.485684   24.117571 H          1 MOL1         0.0724
@<TRIPOS>BOND
    1     1     2    1
    2     1     3    2
    3     1     4    1
    4     4     5    1
    5     4     6    1
    6     4     7    1
    7     7     8    1
    8     7     9    1
    9     7    10    1
   10    10    11    1
   11    10    12    1
   12    10    13    1
   13    13    14    1
   14    13    15    1
   15    13    16    1
@<TRIPOS>SUBSTRUCTURE
       1 MOL1            1 RESIDUE      1      MOL     
@<SCITEGIC>MOL_PROPERTY
VConf Rank
SciTegic.value.IntegerValue
871

@<SCITEGIC>MOL_PROPERTY
Conf_Id
SciTegic.value.IntegerValue
0

@<SCITEGIC>MOL_PROPERTY
Delta U+W
SciTegic.value.DoubleValue
0.000

@<SCITEGIC>MOL_PROPERTY
U+W
SciTegic.value.DoubleValue
-56.904

@<SCITEGIC>MOL_PROPERTY
Grad RMS
SciTegic.value.DoubleValue
0.000000

@<SCITEGIC>MOL_PROPERTY
U
SciTegic.value.DoubleValue
7.329

@<SCITEGIC>MOL_PROPERTY
W
SciTegic.value.DoubleValue
-64.233

@<SCITEGIC>MOL_PROPERTY
W(PB)
SciTegic.value.DoubleValue
-66.148

@<SCITEGIC>MOL_PROPERTY
W(SA)
SciTegic.value.DoubleValue
1.915

@<SCITEGIC>MOL_PROPERTY
Valence
SciTegic.value.DoubleValue
6.755

@<SCITEGIC>MOL_PROPERTY
Coulomb
SciTegic.value.DoubleValue
-0.421

@<SCITEGIC>MOL_PROPERTY
VdW
SciTegic.value.DoubleValue
0.995

@<SCITEGIC>MOL_PROPERTY
VdW6
SciTegic.value.DoubleValue
-4.495

@<SCITEGIC>MOL_PROPERTY
VdW12
SciTegic.value.DoubleValue
5.490

@<SCITEGIC>MOL_PROPERTY
Bond
SciTegic.value.DoubleValue
0.106

@<SCITEGIC>MOL_PROPERTY
Angle
SciTegic.value.DoubleValue
2.715

@<SCITEGIC>MOL_PROPERTY
Pdih
SciTegic.value.DoubleValue
3.934

@<SCITEGIC>MOL_PROPERTY
Idih
SciTegic.value.DoubleValue
0.000

@<SCITEGIC>MOL_PROPERTY
Tether
SciTegic.value.DoubleValue
0.000

@<TRIPOS>MOLECULE
guest-s18_confgen4.mol2 : confsearch ligand conformer 872
          16          15           1
SMALL
USER_CHARGES
 
@<TRIPOS>ATOM
       1    C1      18.210231   20.461882   23.470155 C.2        1 MOL1         0.6075
       2    O1      17.052779   20.154446   23.266115 O.co2      1 MOL1        -0.6830
       3    O2      18.625803   20.837053   24.548297 O.co2      1 MOL1        -0.6830
       4    C2      19.199036   20.353641   22.314677 C.3        1 MOL1        -0.2050
       5    H1      19.958234   21.134970   22.441145 H          1 MOL1         0.0710
       6    H2      18.661356   20.572072   21.384064 H          1 MOL1         0.0710
       7    C3      19.874009   18.962657   22.227292 C.3        1 MOL1        -0.1947
       8    H3      20.397564   18.753289   23.170482 H          1 MOL1         0.0712
       9    H4      19.100623   18.190350   22.113421 H          1 MOL1         0.0712
      10    C4      20.868780   18.880028   21.050787 C.3        1 MOL1        -0.1921
      11    H5      21.642734   19.651757   21.164658 H          1 MOL1         0.0712
      12    H6      20.345463   19.088712   20.107321 H          1 MOL1         0.0712
      13    C5      21.536607   17.493097   20.969972 C.3        1 MOL1        -0.2936
      14    H7      20.787077   16.704114   20.824430 H          1 MOL1         0.0724
      15    H8      22.093911   17.271309   21.889588 H          1 MOL1         0.0724
      16    H9      22.240538   17.451218   20.128618 H          1 MOL1         0.0724
@<TRIPOS>BOND
    1     1     2    1
    2     1     3    2
    3     1     4    1
    4     4     5    1
    5     4     6    1
    6     4     7    1
    7     7     8    1
    8     7     9    1
    9     7    10    1
   10    10    11    1
   11    10    12    1
   12    10    13    1
   13    13    14    1
   14    13    15    1
   15    13    16    1
@<TRIPOS>SUBSTRUCTURE
       1 MOL1            1 RESIDUE      1      MOL     
@<SCITEGIC>MOL_PROPERTY
VConf Rank
SciTegic.value.IntegerValue
872

@<SCITEGIC>MOL_PROPERTY
Conf_Id
SciTegic.value.IntegerValue
22

@<SCITEGIC>MOL_PROPERTY
Delta U+W
SciTegic.value.DoubleValue
-1.185

@<SCITEGIC>MOL_PROPERTY
U+W
SciTegic.value.DoubleValue
-58.089

@<SCITEGIC>MOL_PROPERTY
Grad RMS
SciTegic.value.DoubleValue
0.000000

@<SCITEGIC>MOL_PROPERTY
U
SciTegic.value.DoubleValue
6.298

@<SCITEGIC>MOL_PROPERTY
W
SciTegic.value.DoubleValue
-64.387

@<SCITEGIC>MOL_PROPERTY
W(PB)
SciTegic.value.DoubleValue
-66.329

@<SCITEGIC>MOL_PROPERTY
W(SA)
SciTegic.value.DoubleValue
1.942

@<SCITEGIC>MOL_PROPERTY
Valence
SciTegic.value.DoubleValue
6.246

@<SCITEGIC>MOL_PROPERTY
Coulomb
SciTegic.value.DoubleValue
-0.408

@<SCITEGIC>MOL_PROPERTY
VdW
SciTegic.value.DoubleValue
0.460

@<SCITEGIC>MOL_PROPERTY
VdW6
SciTegic.value.DoubleValue
-4.207

@<SCITEGIC>MOL_PROPERTY
VdW12
SciTegic.value.DoubleValue
4.667

@<SCITEGIC>MOL_PROPERTY
Bond
SciTegic.value.DoubleValue
0.072

@<SCITEGIC>MOL_PROPERTY
Angle
SciTegic.value.DoubleValue
2.246

@<SCITEGIC>MOL_PROPERTY
Pdih
SciTegic.value.DoubleValue
3.928

@<SCITEGIC>MOL_PROPERTY
Idih
SciTegic.value.DoubleValue
0.001

@<SCITEGIC>MOL_PROPERTY
Tether
SciTegic.value.DoubleValue
0.000

@<TRIPOS>MOLECULE
guest-s18_confgen4.mol2 : confsearch ligand conformer 873
          16          15           1
SMALL
USER_CHARGES
 
@<TRIPOS>ATOM
       1    C1      19.508321   18.794922   24.512444 C.2        1 MOL1         0.6075
       2    O1      20.355576   18.372486   25.273825 O.co2      1 MOL1        -0.6830
       3    O2      18.316073   18.746519   24.740827 O.co2      1 MOL1        -0.6830
       4    C2      19.965519   19.400296   23.189922 C.3        1 MOL1        -0.2050
       5    H1      20.939338   19.877590   23.352503 H          1 MOL1         0.0710
       6    H2      19.256380   20.191607   22.921468 H          1 MOL1         0.0710
       7    C3      20.067953   18.351406   22.052236 C.3        1 MOL1        -0.1947
       8    H3      20.716682   17.529944   22.386570 H          1 MOL1         0.0712
       9    H4      19.078055   17.910903   21.869570 H          1 MOL1         0.0712
      10    C4      20.634769   18.926847   20.733905 C.3        1 MOL1        -0.1921
      11    H5      20.776837   18.102802   20.021111 H          1 MOL1         0.0712
      12    H6      21.629756   19.356926   20.913942 H          1 MOL1         0.0712
      13    C5      19.718670   19.989458   20.090045 C.3        1 MOL1        -0.2936
      14    H7      19.638542   20.884340   20.719766 H          1 MOL1         0.0724
      15    H8      18.708851   19.590810   19.926966 H          1 MOL1         0.0724
      16    H9      20.119395   20.302718   19.117268 H          1 MOL1         0.0724
@<TRIPOS>BOND
    1     1     2    1
    2     1     3    2
    3     1     4    1
    4     4     5    1
    5     4     6    1
    6     4     7    1
    7     7     8    1
    8     7     9    1
    9     7    10    1
   10    10    11    1
   11    10    12    1
   12    10    13    1
   13    13    14    1
   14    13    15    1
   15    13    16    1
@<TRIPOS>SUBSTRUCTURE
       1 MOL1            1 RESIDUE      1      MOL     
@<SCITEGIC>MOL_PROPERTY
VConf Rank
SciTegic.value.IntegerValue
873

@<SCITEGIC>MOL_PROPERTY
Conf_Id
SciTegic.value.IntegerValue
36

@<SCITEGIC>MOL_PROPERTY
Delta U+W
SciTegic.value.DoubleValue
-0.427

@<SCITEGIC>MOL_PROPERTY
U+W
SciTegic.value.DoubleValue
-57.331

@<SCITEGIC>MOL_PROPERTY
Grad RMS
SciTegic.value.DoubleValue
0.000000

@<SCITEGIC>MOL_PROPERTY
U
SciTegic.value.DoubleValue
7.263

@<SCITEGIC>MOL_PROPERTY
W
SciTegic.value.DoubleValue
-64.594

@<SCITEGIC>MOL_PROPERTY
W(PB)
SciTegic.value.DoubleValue
-66.513

@<SCITEGIC>MOL_PROPERTY
W(SA)
SciTegic.value.DoubleValue
1.920

@<SCITEGIC>MOL_PROPERTY
Valence
SciTegic.value.DoubleValue
6.734

@<SCITEGIC>MOL_PROPERTY
Coulomb
SciTegic.value.DoubleValue
-0.068

@<SCITEGIC>MOL_PROPERTY
VdW
SciTegic.value.DoubleValue
0.598

@<SCITEGIC>MOL_PROPERTY
VdW6
SciTegic.value.DoubleValue
-4.819

@<SCITEGIC>MOL_PROPERTY
VdW12
SciTegic.value.DoubleValue
5.417

@<SCITEGIC>MOL_PROPERTY
Bond
SciTegic.value.DoubleValue
0.107

@<SCITEGIC>MOL_PROPERTY
Angle
SciTegic.value.DoubleValue
2.469

@<SCITEGIC>MOL_PROPERTY
Pdih
SciTegic.value.DoubleValue
4.157

@<SCITEGIC>MOL_PROPERTY
Idih
SciTegic.value.DoubleValue
0.001

@<SCITEGIC>MOL_PROPERTY
Tether
SciTegic.value.DoubleValue
0.000

@<TRIPOS>MOLECULE
guest-s18_confgen4.mol2 : confsearch ligand conformer 874
          16          15           1
SMALL
USER_CHARGES
 
@<TRIPOS>ATOM
       1    C1      18.420062   17.761721   23.542011 C.2        1 MOL1         0.6075
       2    O1      17.662034   18.482017   24.160498 O.co2      1 MOL1        -0.6830
       3    O2      18.678273   16.620393   23.868651 O.co2      1 MOL1        -0.6830
       4    C2      19.099855   18.326948   22.299847 C.3        1 MOL1        -0.2050
       5    H1      18.405903   19.034133   21.831405 H          1 MOL1         0.0710
       6    H2      19.253254   17.504055   21.591410 H          1 MOL1         0.0710
       7    C3      20.451436   19.018372   22.616321 C.3        1 MOL1        -0.1947
       8    H3      20.279511   19.866964   23.292815 H          1 MOL1         0.0712
       9    H4      21.090951   18.310703   23.161898 H          1 MOL1         0.0712
      10    C4      21.206263   19.499974   21.355884 C.3        1 MOL1        -0.1921
      11    H5      21.388648   18.649371   20.684624 H          1 MOL1         0.0712
      12    H6      22.194005   19.875072   21.657507 H          1 MOL1         0.0712
      13    C5      20.462845   20.615364   20.590269 C.3        1 MOL1        -0.2936
      14    H7      19.516552   20.251562   20.170793 H          1 MOL1         0.0724
      15    H8      21.075877   20.982936   19.757148 H          1 MOL1         0.0724
      16    H9      20.243819   21.465555   21.249400 H          1 MOL1         0.0724
@<TRIPOS>BOND
    1     1     2    1
    2     1     3    2
    3     1     4    1
    4     4     5    1
    5     4     6    1
    6     4     7    1
    7     7     8    1
    8     7     9    1
    9     7    10    1
   10    10    11    1
   11    10    12    1
   12    10    13    1
   13    13    14    1
   14    13    15    1
   15    13    16    1
@<TRIPOS>SUBSTRUCTURE
       1 MOL1            1 RESIDUE      1      MOL     
@<SCITEGIC>MOL_PROPERTY
VConf Rank
SciTegic.value.IntegerValue
874

@<SCITEGIC>MOL_PROPERTY
Conf_Id
SciTegic.value.IntegerValue
17

@<SCITEGIC>MOL_PROPERTY
Delta U+W
SciTegic.value.DoubleValue
-0.432

@<SCITEGIC>MOL_PROPERTY
U+W
SciTegic.value.DoubleValue
-57.336

@<SCITEGIC>MOL_PROPERTY
Grad RMS
SciTegic.value.DoubleValue
0.000000

@<SCITEGIC>MOL_PROPERTY
U
SciTegic.value.DoubleValue
7.263

@<SCITEGIC>MOL_PROPERTY
W
SciTegic.value.DoubleValue
-64.599

@<SCITEGIC>MOL_PROPERTY
W(PB)
SciTegic.value.DoubleValue
-66.503

@<SCITEGIC>MOL_PROPERTY
W(SA)
SciTegic.value.DoubleValue
1.904

@<SCITEGIC>MOL_PROPERTY
Valence
SciTegic.value.DoubleValue
6.734

@<SCITEGIC>MOL_PROPERTY
Coulomb
SciTegic.value.DoubleValue
-0.068

@<SCITEGIC>MOL_PROPERTY
VdW
SciTegic.value.DoubleValue
0.598

@<SCITEGIC>MOL_PROPERTY
VdW6
SciTegic.value.DoubleValue
-4.819

@<SCITEGIC>MOL_PROPERTY
VdW12
SciTegic.value.DoubleValue
5.417

@<SCITEGIC>MOL_PROPERTY
Bond
SciTegic.value.DoubleValue
0.107

@<SCITEGIC>MOL_PROPERTY
Angle
SciTegic.value.DoubleValue
2.469

@<SCITEGIC>MOL_PROPERTY
Pdih
SciTegic.value.DoubleValue
4.157

@<SCITEGIC>MOL_PROPERTY
Idih
SciTegic.value.DoubleValue
0.001

@<SCITEGIC>MOL_PROPERTY
Tether
SciTegic.value.DoubleValue
0.000

@<TRIPOS>MOLECULE
guest-s18_confgen4.mol2 : confsearch ligand conformer 875
          16          15           1
SMALL
USER_CHARGES
 
@<TRIPOS>ATOM
       1    C1      18.170313   18.890337   20.793949 C.2        1 MOL1         0.6075
       2    O1      17.281952   19.657847   21.107133 O.co2      1 MOL1        -0.6830
       3    O2      18.534185   18.716812   19.647760 O.co2      1 MOL1        -0.6830
       4    C2      18.847808   18.084201   21.898774 C.3        1 MOL1        -0.2050
       5    H1      19.349854   17.220846   21.445286 H          1 MOL1         0.0710
       6    H2      18.057611   17.686935   22.546849 H          1 MOL1         0.0710
       7    C3      19.853622   18.900870   22.751079 C.3        1 MOL1        -0.1947
       8    H3      19.344082   19.777249   23.175287 H          1 MOL1         0.0712
       9    H4      20.183822   18.285871   23.599196 H          1 MOL1         0.0712
      10    C4      21.087345   19.354570   21.940976 C.3        1 MOL1        -0.1921
      11    H5      20.770479   19.988123   21.100779 H          1 MOL1         0.0712
      12    H6      21.588613   18.478252   21.507187 H          1 MOL1         0.0712
      13    C5      22.085954   20.134307   22.819118 C.3        1 MOL1        -0.2936
      14    H7      21.618410   21.033620   23.241125 H          1 MOL1         0.0724
      15    H8      22.955744   20.449900   22.228371 H          1 MOL1         0.0724
      16    H9      22.447307   19.513540   23.649472 H          1 MOL1         0.0724
@<TRIPOS>BOND
    1     1     2    1
    2     1     3    2
    3     1     4    1
    4     4     5    1
    5     4     6    1
    6     4     7    1
    7     7     8    1
    8     7     9    1
    9     7    10    1
   10    10    11    1
   11    10    12    1
   12    10    13    1
   13    13    14    1
   14    13    15    1
   15    13    16    1
@<TRIPOS>SUBSTRUCTURE
       1 MOL1            1 RESIDUE      1      MOL     
@<SCITEGIC>MOL_PROPERTY
VConf Rank
SciTegic.value.IntegerValue
875

@<SCITEGIC>MOL_PROPERTY
Conf_Id
SciTegic.value.IntegerValue
19

@<SCITEGIC>MOL_PROPERTY
Delta U+W
SciTegic.value.DoubleValue
0.048

@<SCITEGIC>MOL_PROPERTY
U+W
SciTegic.value.DoubleValue
-56.856

@<SCITEGIC>MOL_PROPERTY
Grad RMS
SciTegic.value.DoubleValue
0.000000

@<SCITEGIC>MOL_PROPERTY
U
SciTegic.value.DoubleValue
8.276

@<SCITEGIC>MOL_PROPERTY
W
SciTegic.value.DoubleValue
-65.132

@<SCITEGIC>MOL_PROPERTY
W(PB)
SciTegic.value.DoubleValue
-67.031

@<SCITEGIC>MOL_PROPERTY
W(SA)
SciTegic.value.DoubleValue
1.899

@<SCITEGIC>MOL_PROPERTY
Valence
SciTegic.value.DoubleValue
6.513

@<SCITEGIC>MOL_PROPERTY
Coulomb
SciTegic.value.DoubleValue
1.428

@<SCITEGIC>MOL_PROPERTY
VdW
SciTegic.value.DoubleValue
0.335

@<SCITEGIC>MOL_PROPERTY
VdW6
SciTegic.value.DoubleValue
-5.021

@<SCITEGIC>MOL_PROPERTY
VdW12
SciTegic.value.DoubleValue
5.356

@<SCITEGIC>MOL_PROPERTY
Bond
SciTegic.value.DoubleValue
0.092

@<SCITEGIC>MOL_PROPERTY
Angle
SciTegic.value.DoubleValue
2.417

@<SCITEGIC>MOL_PROPERTY
Pdih
SciTegic.value.DoubleValue
4.003

@<SCITEGIC>MOL_PROPERTY
Idih
SciTegic.value.DoubleValue
0.001

@<SCITEGIC>MOL_PROPERTY
Tether
SciTegic.value.DoubleValue
0.000

@<TRIPOS>MOLECULE
guest-s18_confgen4.mol2 : confsearch ligand conformer 876
          16          15           1
SMALL
USER_CHARGES
 
@<TRIPOS>ATOM
       1    C1      18.633727   17.489854   23.229250 C.2        1 MOL1         0.6075
       2    O1      17.454596   17.470090   22.936673 O.co2      1 MOL1        -0.6830
       3    O2      19.041368   17.482904   24.373821 O.co2      1 MOL1        -0.6830
       4    C2      19.656378   17.500297   22.096301 C.3        1 MOL1        -0.2050
       5    H1      19.342079   16.747613   21.363554 H          1 MOL1         0.0710
       6    H2      20.623884   17.170706   22.494281 H          1 MOL1         0.0710
       7    C3      19.807240   18.874517   21.393589 C.3        1 MOL1        -0.1947
       8    H3      20.451824   18.755260   20.512199 H          1 MOL1         0.0712
       9    H4      18.825961   19.204948   21.025445 H          1 MOL1         0.0712
      10    C4      20.408092   19.952991   22.320983 C.3        1 MOL1        -0.1921
      11    H5      21.383550   19.615874   22.698093 H          1 MOL1         0.0712
      12    H6      19.760286   20.095613   23.197185 H          1 MOL1         0.0712
      13    C5      20.578471   21.298665   21.588532 C.3        1 MOL1        -0.2936
      14    H7      21.250029   21.194602   20.726212 H          1 MOL1         0.0724
      15    H8      21.005373   22.053703   22.261429 H          1 MOL1         0.0724
      16    H9      19.611941   21.674040   21.227473 H          1 MOL1         0.0724
@<TRIPOS>BOND
    1     1     2    1
    2     1     3    2
    3     1     4    1
    4     4     5    1
    5     4     6    1
    6     4     7    1
    7     7     8    1
    8     7     9    1
    9     7    10    1
   10    10    11    1
   11    10    12    1
   12    10    13    1
   13    13    14    1
   14    13    15    1
   15    13    16    1
@<TRIPOS>SUBSTRUCTURE
       1 MOL1            1 RESIDUE      1      MOL     
@<SCITEGIC>MOL_PROPERTY
VConf Rank
SciTegic.value.IntegerValue
876

@<SCITEGIC>MOL_PROPERTY
Conf_Id
SciTegic.value.IntegerValue
20

@<SCITEGIC>MOL_PROPERTY
Delta U+W
SciTegic.value.DoubleValue
-0.010

@<SCITEGIC>MOL_PROPERTY
U+W
SciTegic.value.DoubleValue
-56.914

@<SCITEGIC>MOL_PROPERTY
Grad RMS
SciTegic.value.DoubleValue
0.000000

@<SCITEGIC>MOL_PROPERTY
U
SciTegic.value.DoubleValue
8.277

@<SCITEGIC>MOL_PROPERTY
W
SciTegic.value.DoubleValue
-65.191

@<SCITEGIC>MOL_PROPERTY
W(PB)
SciTegic.value.DoubleValue
-67.081

@<SCITEGIC>MOL_PROPERTY
W(SA)
SciTegic.value.DoubleValue
1.890

@<SCITEGIC>MOL_PROPERTY
Valence
SciTegic.value.DoubleValue
6.513

@<SCITEGIC>MOL_PROPERTY
Coulomb
SciTegic.value.DoubleValue
1.429

@<SCITEGIC>MOL_PROPERTY
VdW
SciTegic.value.DoubleValue
0.335

@<SCITEGIC>MOL_PROPERTY
VdW6
SciTegic.value.DoubleValue
-5.021

@<SCITEGIC>MOL_PROPERTY
VdW12
SciTegic.value.DoubleValue
5.356

@<SCITEGIC>MOL_PROPERTY
Bond
SciTegic.value.DoubleValue
0.092

@<SCITEGIC>MOL_PROPERTY
Angle
SciTegic.value.DoubleValue
2.417

@<SCITEGIC>MOL_PROPERTY
Pdih
SciTegic.value.DoubleValue
4.002

@<SCITEGIC>MOL_PROPERTY
Idih
SciTegic.value.DoubleValue
0.001

@<SCITEGIC>MOL_PROPERTY
Tether
SciTegic.value.DoubleValue
0.000

@<TRIPOS>MOLECULE
guest-s18_confgen4.mol2 : confsearch ligand conformer 877
          16          15           1
SMALL
USER_CHARGES
 
@<TRIPOS>ATOM
       1    C1      19.037529   17.181312   22.051340 C.2        1 MOL1         0.6075
       2    O1      19.537017   16.218047   22.598532 O.co2      1 MOL1        -0.6830
       3    O2      18.651842   17.172359   20.899183 O.co2      1 MOL1        -0.6830
       4    C2      18.855121   18.458232   22.867397 C.3        1 MOL1        -0.2050
       5    H1      18.359227   18.177837   23.804065 H          1 MOL1         0.0710
       6    H2      18.161768   19.119768   22.335533 H          1 MOL1         0.0710
       7    C3      20.180434   19.200683   23.191417 C.3        1 MOL1        -0.1947
       8    H3      19.963319   20.056618   23.844571 H          1 MOL1         0.0712
       9    H4      20.828986   18.528441   23.770057 H          1 MOL1         0.0712
      10    C4      20.955782   19.694145   21.946700 C.3        1 MOL1        -0.1921
      11    H5      21.209732   18.841662   21.301426 H          1 MOL1         0.0712
      12    H6      21.910146   20.128218   22.275178 H          1 MOL1         0.0712
      13    C5      20.183776   20.750667   21.128035 C.3        1 MOL1        -0.2936
      14    H7      19.280209   20.321791   20.676239 H          1 MOL1         0.0724
      15    H8      20.809944   21.137560   20.313734 H          1 MOL1         0.0724
      16    H9      19.886767   21.598409   21.759053 H          1 MOL1         0.0724
@<TRIPOS>BOND
    1     1     2    1
    2     1     3    2
    3     1     4    1
    4     4     5    1
    5     4     6    1
    6     4     7    1
    7     7     8    1
    8     7     9    1
    9     7    10    1
   10    10    11    1
   11    10    12    1
   12    10    13    1
   13    13    14    1
   14    13    15    1
   15    13    16    1
@<TRIPOS>SUBSTRUCTURE
       1 MOL1            1 RESIDUE      1      MOL     
@<SCITEGIC>MOL_PROPERTY
VConf Rank
SciTegic.value.IntegerValue
877

@<SCITEGIC>MOL_PROPERTY
Conf_Id
SciTegic.value.IntegerValue
37

@<SCITEGIC>MOL_PROPERTY
Delta U+W
SciTegic.value.DoubleValue
1.063

@<SCITEGIC>MOL_PROPERTY
U+W
SciTegic.value.DoubleValue
-55.841

@<SCITEGIC>MOL_PROPERTY
Grad RMS
SciTegic.value.DoubleValue
0.000000

@<SCITEGIC>MOL_PROPERTY
U
SciTegic.value.DoubleValue
9.719

@<SCITEGIC>MOL_PROPERTY
W
SciTegic.value.DoubleValue
-65.560

@<SCITEGIC>MOL_PROPERTY
W(PB)
SciTegic.value.DoubleValue
-67.414

@<SCITEGIC>MOL_PROPERTY
W(SA)
SciTegic.value.DoubleValue
1.854

@<SCITEGIC>MOL_PROPERTY
Valence
SciTegic.value.DoubleValue
7.002

@<SCITEGIC>MOL_PROPERTY
Coulomb
SciTegic.value.DoubleValue
2.402

@<SCITEGIC>MOL_PROPERTY
VdW
SciTegic.value.DoubleValue
0.314

@<SCITEGIC>MOL_PROPERTY
VdW6
SciTegic.value.DoubleValue
-5.861

@<SCITEGIC>MOL_PROPERTY
VdW12
SciTegic.value.DoubleValue
6.175

@<SCITEGIC>MOL_PROPERTY
Bond
SciTegic.value.DoubleValue
0.134

@<SCITEGIC>MOL_PROPERTY
Angle
SciTegic.value.DoubleValue
2.733

@<SCITEGIC>MOL_PROPERTY
Pdih
SciTegic.value.DoubleValue
4.133

@<SCITEGIC>MOL_PROPERTY
Idih
SciTegic.value.DoubleValue
0.002

@<SCITEGIC>MOL_PROPERTY
Tether
SciTegic.value.DoubleValue
0.000

@<TRIPOS>MOLECULE
guest-s18_confgen4.mol2 : confsearch ligand conformer 878
          16          15           1
SMALL
USER_CHARGES
 
@<TRIPOS>ATOM
       1    C1      19.739306   17.028024   22.300672 C.2        1 MOL1         0.6075
       2    O1      19.362527   16.364138   21.355114 O.co2      1 MOL1        -0.6830
       3    O2      20.627968   16.679690   23.052498 O.co2      1 MOL1        -0.6830
       4    C2      19.033602   18.353030   22.576510 C.3        1 MOL1        -0.2050
       5    H1      19.291207   18.684908   23.588807 H          1 MOL1         0.0710
       6    H2      17.955707   18.153010   22.580668 H          1 MOL1         0.0710
       7    C3      19.344186   19.466946   21.539491 C.3        1 MOL1        -0.1947
       8    H3      19.024760   19.122990   20.546005 H          1 MOL1         0.0712
       9    H4      18.736056   20.352320   21.768974 H          1 MOL1         0.0712
      10    C4      20.834537   19.877023   21.471051 C.3        1 MOL1        -0.1921
      11    H5      20.962998   20.604121   20.657445 H          1 MOL1         0.0712
      12    H6      21.450829   19.006188   21.207561 H          1 MOL1         0.0712
      13    C5      21.355016   20.501072   22.783342 C.3        1 MOL1        -0.2936
      14    H7      20.733737   21.353251   23.088087 H          1 MOL1         0.0724
      15    H8      22.384108   20.860815   22.655228 H          1 MOL1         0.0724
      16    H9      21.359754   19.766623   23.598847 H          1 MOL1         0.0724
@<TRIPOS>BOND
    1     1     2    1
    2     1     3    2
    3     1     4    1
    4     4     5    1
    5     4     6    1
    6     4     7    1
    7     7     8    1
    8     7     9    1
    9     7    10    1
   10    10    11    1
   11    10    12    1
   12    10    13    1
   13    13    14    1
   14    13    15    1
   15    13    16    1
@<TRIPOS>SUBSTRUCTURE
       1 MOL1            1 RESIDUE      1      MOL     
@<SCITEGIC>MOL_PROPERTY
VConf Rank
SciTegic.value.IntegerValue
878

@<SCITEGIC>MOL_PROPERTY
Conf_Id
SciTegic.value.IntegerValue
39

@<SCITEGIC>MOL_PROPERTY
Delta U+W
SciTegic.value.DoubleValue
1.129

@<SCITEGIC>MOL_PROPERTY
U+W
SciTegic.value.DoubleValue
-55.775

@<SCITEGIC>MOL_PROPERTY
Grad RMS
SciTegic.value.DoubleValue
0.000000

@<SCITEGIC>MOL_PROPERTY
U
SciTegic.value.DoubleValue
9.718

@<SCITEGIC>MOL_PROPERTY
W
SciTegic.value.DoubleValue
-65.493

@<SCITEGIC>MOL_PROPERTY
W(PB)
SciTegic.value.DoubleValue
-67.361

@<SCITEGIC>MOL_PROPERTY
W(SA)
SciTegic.value.DoubleValue
1.869

@<SCITEGIC>MOL_PROPERTY
Valence
SciTegic.value.DoubleValue
7.002

@<SCITEGIC>MOL_PROPERTY
Coulomb
SciTegic.value.DoubleValue
2.402

@<SCITEGIC>MOL_PROPERTY
VdW
SciTegic.value.DoubleValue
0.314

@<SCITEGIC>MOL_PROPERTY
VdW6
SciTegic.value.DoubleValue
-5.861

@<SCITEGIC>MOL_PROPERTY
VdW12
SciTegic.value.DoubleValue
6.175

@<SCITEGIC>MOL_PROPERTY
Bond
SciTegic.value.DoubleValue
0.134

@<SCITEGIC>MOL_PROPERTY
Angle
SciTegic.value.DoubleValue
2.734

@<SCITEGIC>MOL_PROPERTY
Pdih
SciTegic.value.DoubleValue
4.133

@<SCITEGIC>MOL_PROPERTY
Idih
SciTegic.value.DoubleValue
0.002

@<SCITEGIC>MOL_PROPERTY
Tether
SciTegic.value.DoubleValue
0.000

@<TRIPOS>MOLECULE
guest-s18_confgen4.mol2 : confsearch ligand conformer 879
          16          15           1
SMALL
USER_CHARGES
 
@<TRIPOS>ATOM
       1    C1      19.988740   18.057669   23.980385 C.2        1 MOL1         0.6075
       2    O1      19.834121   16.867424   23.790039 O.co2      1 MOL1        -0.6830
       3    O2      19.393004   18.680691   24.837182 O.co2      1 MOL1        -0.6830
       4    C2      21.051652   18.786811   23.160491 C.3        1 MOL1        -0.2050
       5    H1      21.545338   18.067422   22.495862 H          1 MOL1         0.0710
       6    H2      21.811710   19.127328   23.873308 H          1 MOL1         0.0710
       7    C3      20.540352   20.008370   22.346028 C.3        1 MOL1        -0.1947
       8    H3      19.874344   20.621533   22.968928 H          1 MOL1         0.0712
       9    H4      21.404414   20.644151   22.110163 H          1 MOL1         0.0712
      10    C4      19.840337   19.650025   21.012938 C.3        1 MOL1        -0.1921
      11    H5      20.508591   19.035493   20.394054 H          1 MOL1         0.0712
      12    H6      19.666854   20.578340   20.451307 H          1 MOL1         0.0712
      13    C5      18.488941   18.927671   21.192440 C.3        1 MOL1        -0.2936
      14    H7      18.626273   17.919149   21.601124 H          1 MOL1         0.0724
      15    H8      17.977091   18.825348   20.226879 H          1 MOL1         0.0724
      16    H9      17.829525   19.487396   21.868612 H          1 MOL1         0.0724
@<TRIPOS>BOND
    1     1     2    1
    2     1     3    2
    3     1     4    1
    4     4     5    1
    5     4     6    1
    6     4     7    1
    7     7     8    1
    8     7     9    1
    9     7    10    1
   10    10    11    1
   11    10    12    1
   12    10    13    1
   13    13    14    1
   14    13    15    1
   15    13    16    1
@<TRIPOS>SUBSTRUCTURE
       1 MOL1            1 RESIDUE      1      MOL     
@<SCITEGIC>MOL_PROPERTY
VConf Rank
SciTegic.value.IntegerValue
879

@<SCITEGIC>MOL_PROPERTY
Conf_Id
SciTegic.value.IntegerValue
47

@<SCITEGIC>MOL_PROPERTY
Delta U+W
SciTegic.value.DoubleValue
2.301

@<SCITEGIC>MOL_PROPERTY
U+W
SciTegic.value.DoubleValue
-54.603

@<SCITEGIC>MOL_PROPERTY
Grad RMS
SciTegic.value.DoubleValue
0.000000

@<SCITEGIC>MOL_PROPERTY
U
SciTegic.value.DoubleValue
11.258

@<SCITEGIC>MOL_PROPERTY
W
SciTegic.value.DoubleValue
-65.861

@<SCITEGIC>MOL_PROPERTY
W(PB)
SciTegic.value.DoubleValue
-67.702

@<SCITEGIC>MOL_PROPERTY
W(SA)
SciTegic.value.DoubleValue
1.841

@<SCITEGIC>MOL_PROPERTY
Valence
SciTegic.value.DoubleValue
8.169

@<SCITEGIC>MOL_PROPERTY
Coulomb
SciTegic.value.DoubleValue
2.735

@<SCITEGIC>MOL_PROPERTY
VdW
SciTegic.value.DoubleValue
0.355

@<SCITEGIC>MOL_PROPERTY
VdW6
SciTegic.value.DoubleValue
-6.245

@<SCITEGIC>MOL_PROPERTY
VdW12
SciTegic.value.DoubleValue
6.600

@<SCITEGIC>MOL_PROPERTY
Bond
SciTegic.value.DoubleValue
0.149

@<SCITEGIC>MOL_PROPERTY
Angle
SciTegic.value.DoubleValue
3.168

@<SCITEGIC>MOL_PROPERTY
Pdih
SciTegic.value.DoubleValue
4.840

@<SCITEGIC>MOL_PROPERTY
Idih
SciTegic.value.DoubleValue
0.011

@<SCITEGIC>MOL_PROPERTY
Tether
SciTegic.value.DoubleValue
0.000

@<TRIPOS>MOLECULE
guest-s18_confgen4.mol2 : confsearch ligand conformer 880
          16          15           1
SMALL
USER_CHARGES
 
@<TRIPOS>ATOM
       1    C1      18.369369   20.289313   21.693233 C.2        1 MOL1         0.6075
       2    O1      18.824109   21.361337   21.345189 O.co2      1 MOL1        -0.6830
       3    O2      17.416458   20.177752   22.439111 O.co2      1 MOL1        -0.6830
       4    C2      18.967721   19.018458   21.092759 C.3        1 MOL1        -0.2050
       5    H1      18.804225   19.081600   20.010618 H          1 MOL1         0.0710
       6    H2      18.394628   18.152668   21.446245 H          1 MOL1         0.0710
       7    C3      20.484026   18.806229   21.362513 C.3        1 MOL1        -0.1947
       8    H3      20.866412   18.101294   20.611979 H          1 MOL1         0.0712
       9    H4      21.028584   19.746704   21.199720 H          1 MOL1         0.0712
      10    C4      20.818512   18.233810   22.761090 C.3        1 MOL1        -0.1921
      11    H5      21.886305   17.975804   22.784428 H          1 MOL1         0.0712
      12    H6      20.270809   17.294768   22.920627 H          1 MOL1         0.0712
      13    C5      20.525884   19.208732   23.920479 C.3        1 MOL1        -0.2936
      14    H7      20.910079   18.806378   24.866668 H          1 MOL1         0.0724
      15    H8      19.448089   19.369985   24.044399 H          1 MOL1         0.0724
      16    H9      21.002944   20.182184   23.746889 H          1 MOL1         0.0724
@<TRIPOS>BOND
    1     1     2    1
    2     1     3    2
    3     1     4    1
    4     4     5    1
    5     4     6    1
    6     4     7    1
    7     7     8    1
    8     7     9    1
    9     7    10    1
   10    10    11    1
   11    10    12    1
   12    10    13    1
   13    13    14    1
   14    13    15    1
   15    13    16    1
@<TRIPOS>SUBSTRUCTURE
       1 MOL1            1 RESIDUE      1      MOL     
@<SCITEGIC>MOL_PROPERTY
VConf Rank
SciTegic.value.IntegerValue
880

@<SCITEGIC>MOL_PROPERTY
Conf_Id
SciTegic.value.IntegerValue
45

@<SCITEGIC>MOL_PROPERTY
Delta U+W
SciTegic.value.DoubleValue
2.303

@<SCITEGIC>MOL_PROPERTY
U+W
SciTegic.value.DoubleValue
-54.601

@<SCITEGIC>MOL_PROPERTY
Grad RMS
SciTegic.value.DoubleValue
0.000000

@<SCITEGIC>MOL_PROPERTY
U
SciTegic.value.DoubleValue
11.258

@<SCITEGIC>MOL_PROPERTY
W
SciTegic.value.DoubleValue
-65.860

@<SCITEGIC>MOL_PROPERTY
W(PB)
SciTegic.value.DoubleValue
-67.709

@<SCITEGIC>MOL_PROPERTY
W(SA)
SciTegic.value.DoubleValue
1.849

@<SCITEGIC>MOL_PROPERTY
Valence
SciTegic.value.DoubleValue
8.169

@<SCITEGIC>MOL_PROPERTY
Coulomb
SciTegic.value.DoubleValue
2.735

@<SCITEGIC>MOL_PROPERTY
VdW
SciTegic.value.DoubleValue
0.355

@<SCITEGIC>MOL_PROPERTY
VdW6
SciTegic.value.DoubleValue
-6.245

@<SCITEGIC>MOL_PROPERTY
VdW12
SciTegic.value.DoubleValue
6.600

@<SCITEGIC>MOL_PROPERTY
Bond
SciTegic.value.DoubleValue
0.149

@<SCITEGIC>MOL_PROPERTY
Angle
SciTegic.value.DoubleValue
3.168

@<SCITEGIC>MOL_PROPERTY
Pdih
SciTegic.value.DoubleValue
4.840

@<SCITEGIC>MOL_PROPERTY
Idih
SciTegic.value.DoubleValue
0.011

@<SCITEGIC>MOL_PROPERTY
Tether
SciTegic.value.DoubleValue
0.000

@<TRIPOS>MOLECULE
guest-s18_confgen4.mol2 : confsearch ligand conformer 881
          16          15           1
SMALL
USER_CHARGES
 
@<TRIPOS>ATOM
       1    C1      17.799613   20.591341   21.141105 C.2        1 MOL1         0.6075
       2    O1      18.169658   20.706977   19.988946 O.co2      1 MOL1        -0.6830
       3    O2      16.760030   21.065193   21.553471 O.co2      1 MOL1        -0.6830
       4    C2      18.660805   19.819465   22.142329 C.3        1 MOL1        -0.2050
       5    H1      18.042869   19.010935   22.550489 H          1 MOL1         0.0710
       6    H2      18.887527   20.499757   22.971764 H          1 MOL1         0.0710
       7    C3      19.979115   19.233315   21.570635 C.3        1 MOL1        -0.1947
       8    H3      19.745964   18.556894   20.736630 H          1 MOL1         0.0712
       9    H4      20.591493   20.047250   21.158357 H          1 MOL1         0.0712
      10    C4      20.782703   18.472977   22.646456 C.3        1 MOL1        -0.1921
      11    H5      20.172014   17.657564   23.058354 H          1 MOL1         0.0712
      12    H6      21.018055   19.148805   23.480342 H          1 MOL1         0.0712
      13    C5      22.090697   17.893262   22.072677 C.3        1 MOL1        -0.2936
      14    H7      21.883254   17.188907   21.256392 H          1 MOL1         0.0724
      15    H8      22.649590   17.356192   22.850068 H          1 MOL1         0.0724
      16    H9      22.735541   18.691146   21.681492 H          1 MOL1         0.0724
@<TRIPOS>BOND
    1     1     2    1
    2     1     3    2
    3     1     4    1
    4     4     5    1
    5     4     6    1
    6     4     7    1
    7     7     8    1
    8     7     9    1
    9     7    10    1
   10    10    11    1
   11    10    12    1
   12    10    13    1
   13    13    14    1
   14    13    15    1
   15    13    16    1
@<TRIPOS>SUBSTRUCTURE
       1 MOL1            1 RESIDUE      1      MOL     
@<SCITEGIC>MOL_PROPERTY
VConf Rank
SciTegic.value.IntegerValue
881

@<SCITEGIC>MOL_PROPERTY
Conf_Id
SciTegic.value.IntegerValue
0

@<SCITEGIC>MOL_PROPERTY
Delta U+W
SciTegic.value.DoubleValue
0.000

@<SCITEGIC>MOL_PROPERTY
U+W
SciTegic.value.DoubleValue
-56.904

@<SCITEGIC>MOL_PROPERTY
Grad RMS
SciTegic.value.DoubleValue
0.000000

@<SCITEGIC>MOL_PROPERTY
U
SciTegic.value.DoubleValue
7.329

@<SCITEGIC>MOL_PROPERTY
W
SciTegic.value.DoubleValue
-64.233

@<SCITEGIC>MOL_PROPERTY
W(PB)
SciTegic.value.DoubleValue
-66.148

@<SCITEGIC>MOL_PROPERTY
W(SA)
SciTegic.value.DoubleValue
1.915

@<SCITEGIC>MOL_PROPERTY
Valence
SciTegic.value.DoubleValue
6.755

@<SCITEGIC>MOL_PROPERTY
Coulomb
SciTegic.value.DoubleValue
-0.421

@<SCITEGIC>MOL_PROPERTY
VdW
SciTegic.value.DoubleValue
0.995

@<SCITEGIC>MOL_PROPERTY
VdW6
SciTegic.value.DoubleValue
-4.495

@<SCITEGIC>MOL_PROPERTY
VdW12
SciTegic.value.DoubleValue
5.490

@<SCITEGIC>MOL_PROPERTY
Bond
SciTegic.value.DoubleValue
0.106

@<SCITEGIC>MOL_PROPERTY
Angle
SciTegic.value.DoubleValue
2.715

@<SCITEGIC>MOL_PROPERTY
Pdih
SciTegic.value.DoubleValue
3.934

@<SCITEGIC>MOL_PROPERTY
Idih
SciTegic.value.DoubleValue
0.000

@<SCITEGIC>MOL_PROPERTY
Tether
SciTegic.value.DoubleValue
0.000

@<TRIPOS>MOLECULE
guest-s18_confgen4.mol2 : confsearch ligand conformer 882
          16          15           1
SMALL
USER_CHARGES
 
@<TRIPOS>ATOM
       1    C1      20.138374   18.088818   19.414453 C.2        1 MOL1         0.6075
       2    O1      21.252467   18.026907   18.934028 O.co2      1 MOL1        -0.6830
       3    O2      19.247382   17.307104   19.148184 O.co2      1 MOL1        -0.6830
       4    C2      19.847886   19.197249   20.420226 C.3        1 MOL1        -0.2050
       5    H1      18.793066   19.480515   20.320404 H          1 MOL1         0.0710
       6    H2      20.446221   20.073894   20.143929 H          1 MOL1         0.0710
       7    C3      20.153029   18.781370   21.880361 C.3        1 MOL1        -0.1947
       8    H3      19.555946   17.895515   22.137857 H          1 MOL1         0.0712
       9    H4      21.209165   18.488853   21.961365 H          1 MOL1         0.0712
      10    C4      19.850773   19.919933   22.876792 C.3        1 MOL1        -0.1921
      11    H5      18.794534   20.212274   22.796572 H          1 MOL1         0.0712
      12    H6      20.448157   20.805784   22.620010 H          1 MOL1         0.0712
      13    C5      20.156779   19.498990   24.327747 C.3        1 MOL1        -0.2936
      14    H7      21.215120   19.230932   24.444066 H          1 MOL1         0.0724
      15    H8      19.549300   18.633022   24.621924 H          1 MOL1         0.0724
      16    H9      19.936546   20.319431   25.023105 H          1 MOL1         0.0724
@<TRIPOS>BOND
    1     1     2    1
    2     1     3    2
    3     1     4    1
    4     4     5    1
    5     4     6    1
    6     4     7    1
    7     7     8    1
    8     7     9    1
    9     7    10    1
   10    10    11    1
   11    10    12    1
   12    10    13    1
   13    13    14    1
   14    13    15    1
   15    13    16    1
@<TRIPOS>SUBSTRUCTURE
       1 MOL1            1 RESIDUE      1      MOL     
@<SCITEGIC>MOL_PROPERTY
VConf Rank
SciTegic.value.IntegerValue
882

@<SCITEGIC>MOL_PROPERTY
Conf_Id
SciTegic.value.IntegerValue
22

@<SCITEGIC>MOL_PROPERTY
Delta U+W
SciTegic.value.DoubleValue
-1.185

@<SCITEGIC>MOL_PROPERTY
U+W
SciTegic.value.DoubleValue
-58.089

@<SCITEGIC>MOL_PROPERTY
Grad RMS
SciTegic.value.DoubleValue
0.000000

@<SCITEGIC>MOL_PROPERTY
U
SciTegic.value.DoubleValue
6.298

@<SCITEGIC>MOL_PROPERTY
W
SciTegic.value.DoubleValue
-64.387

@<SCITEGIC>MOL_PROPERTY
W(PB)
SciTegic.value.DoubleValue
-66.329

@<SCITEGIC>MOL_PROPERTY
W(SA)
SciTegic.value.DoubleValue
1.942

@<SCITEGIC>MOL_PROPERTY
Valence
SciTegic.value.DoubleValue
6.246

@<SCITEGIC>MOL_PROPERTY
Coulomb
SciTegic.value.DoubleValue
-0.408

@<SCITEGIC>MOL_PROPERTY
VdW
SciTegic.value.DoubleValue
0.460

@<SCITEGIC>MOL_PROPERTY
VdW6
SciTegic.value.DoubleValue
-4.207

@<SCITEGIC>MOL_PROPERTY
VdW12
SciTegic.value.DoubleValue
4.667

@<SCITEGIC>MOL_PROPERTY
Bond
SciTegic.value.DoubleValue
0.072

@<SCITEGIC>MOL_PROPERTY
Angle
SciTegic.value.DoubleValue
2.246

@<SCITEGIC>MOL_PROPERTY
Pdih
SciTegic.value.DoubleValue
3.928

@<SCITEGIC>MOL_PROPERTY
Idih
SciTegic.value.DoubleValue
0.001

@<SCITEGIC>MOL_PROPERTY
Tether
SciTegic.value.DoubleValue
0.000

@<TRIPOS>MOLECULE
guest-s18_confgen4.mol2 : confsearch ligand conformer 883
          16          15           1
SMALL
USER_CHARGES
 
@<TRIPOS>ATOM
       1    C1      18.182965   20.820874   22.836926 C.2        1 MOL1         0.6075
       2    O1      18.298917   22.021649   22.693086 O.co2      1 MOL1        -0.6830
       3    O2      17.462756   20.311055   23.671995 O.co2      1 MOL1        -0.6830
       4    C2      19.001082   19.904715   21.933650 C.3        1 MOL1        -0.2050
       5    H1      19.116660   20.399432   20.961815 H          1 MOL1         0.0710
       6    H2      18.417770   18.992059   21.766549 H          1 MOL1         0.0710
       7    C3      20.392090   19.561387   22.527127 C.3        1 MOL1        -0.1947
       8    H3      20.916080   20.497838   22.763606 H          1 MOL1         0.0712
       9    H4      20.262973   19.028608   23.479379 H          1 MOL1         0.0712
      10    C4      21.277233   18.723538   21.575844 C.3        1 MOL1        -0.1921
      11    H5      22.275488   18.618870   22.022881 H          1 MOL1         0.0712
      12    H6      21.416192   19.261467   20.627844 H          1 MOL1         0.0712
      13    C5      20.707387   17.316523   21.295632 C.3        1 MOL1        -0.2936
      14    H7      19.759546   17.370096   20.745623 H          1 MOL1         0.0724
      15    H8      20.532771   16.769815   22.231511 H          1 MOL1         0.0724
      16    H9      21.410809   16.731646   20.688900 H          1 MOL1         0.0724
@<TRIPOS>BOND
    1     1     2    1
    2     1     3    2
    3     1     4    1
    4     4     5    1
    5     4     6    1
    6     4     7    1
    7     7     8    1
    8     7     9    1
    9     7    10    1
   10    10    11    1
   11    10    12    1
   12    10    13    1
   13    13    14    1
   14    13    15    1
   15    13    16    1
@<TRIPOS>SUBSTRUCTURE
       1 MOL1            1 RESIDUE      1      MOL     
@<SCITEGIC>MOL_PROPERTY
VConf Rank
SciTegic.value.IntegerValue
883

@<SCITEGIC>MOL_PROPERTY
Conf_Id
SciTegic.value.IntegerValue
36

@<SCITEGIC>MOL_PROPERTY
Delta U+W
SciTegic.value.DoubleValue
-0.427

@<SCITEGIC>MOL_PROPERTY
U+W
SciTegic.value.DoubleValue
-57.331

@<SCITEGIC>MOL_PROPERTY
Grad RMS
SciTegic.value.DoubleValue
0.000000

@<SCITEGIC>MOL_PROPERTY
U
SciTegic.value.DoubleValue
7.263

@<SCITEGIC>MOL_PROPERTY
W
SciTegic.value.DoubleValue
-64.594

@<SCITEGIC>MOL_PROPERTY
W(PB)
SciTegic.value.DoubleValue
-66.513

@<SCITEGIC>MOL_PROPERTY
W(SA)
SciTegic.value.DoubleValue
1.920

@<SCITEGIC>MOL_PROPERTY
Valence
SciTegic.value.DoubleValue
6.734

@<SCITEGIC>MOL_PROPERTY
Coulomb
SciTegic.value.DoubleValue
-0.068

@<SCITEGIC>MOL_PROPERTY
VdW
SciTegic.value.DoubleValue
0.598

@<SCITEGIC>MOL_PROPERTY
VdW6
SciTegic.value.DoubleValue
-4.819

@<SCITEGIC>MOL_PROPERTY
VdW12
SciTegic.value.DoubleValue
5.417

@<SCITEGIC>MOL_PROPERTY
Bond
SciTegic.value.DoubleValue
0.107

@<SCITEGIC>MOL_PROPERTY
Angle
SciTegic.value.DoubleValue
2.469

@<SCITEGIC>MOL_PROPERTY
Pdih
SciTegic.value.DoubleValue
4.157

@<SCITEGIC>MOL_PROPERTY
Idih
SciTegic.value.DoubleValue
0.001

@<SCITEGIC>MOL_PROPERTY
Tether
SciTegic.value.DoubleValue
0.000

@<TRIPOS>MOLECULE
guest-s18_confgen4.mol2 : confsearch ligand conformer 884
          16          15           1
SMALL
USER_CHARGES
 
@<TRIPOS>ATOM
       1    C1      18.515230   21.285993   22.019461 C.2        1 MOL1         0.6075
       2    O1      18.305406   21.658461   23.156650 O.co2      1 MOL1        -0.6830
       3    O2      17.848747   21.633937   21.065139 O.co2      1 MOL1        -0.6830
       4    C2      19.664644   20.313483   21.779369 C.3        1 MOL1        -0.2050
       5    H1      20.452894   20.541493   22.505861 H          1 MOL1         0.0710
       6    H2      20.074816   20.510749   20.781666 H          1 MOL1         0.0710
       7    C3      19.230229   18.829224   21.894494 C.3        1 MOL1        -0.1947
       8    H3      18.861074   18.633093   22.910647 H          1 MOL1         0.0712
       9    H4      18.382592   18.655753   21.217111 H          1 MOL1         0.0712
      10    C4      20.357002   17.829475   21.546223 C.3        1 MOL1        -0.1921
      11    H5      20.718257   18.017878   20.525743 H          1 MOL1         0.0712
      12    H6      19.939532   16.813096   21.545317 H          1 MOL1         0.0712
      13    C5      21.542164   17.879836   22.534042 C.3        1 MOL1        -0.2936
      14    H7      22.063024   18.844316   22.486453 H          1 MOL1         0.0724
      15    H8      22.272854   17.095749   22.296751 H          1 MOL1         0.0724
      16    H9      21.200822   17.722604   23.565553 H          1 MOL1         0.0724
@<TRIPOS>BOND
    1     1     2    1
    2     1     3    2
    3     1     4    1
    4     4     5    1
    5     4     6    1
    6     4     7    1
    7     7     8    1
    8     7     9    1
    9     7    10    1
   10    10    11    1
   11    10    12    1
   12    10    13    1
   13    13    14    1
   14    13    15    1
   15    13    16    1
@<TRIPOS>SUBSTRUCTURE
       1 MOL1            1 RESIDUE      1      MOL     
@<SCITEGIC>MOL_PROPERTY
VConf Rank
SciTegic.value.IntegerValue
884

@<SCITEGIC>MOL_PROPERTY
Conf_Id
SciTegic.value.IntegerValue
17

@<SCITEGIC>MOL_PROPERTY
Delta U+W
SciTegic.value.DoubleValue
-0.432

@<SCITEGIC>MOL_PROPERTY
U+W
SciTegic.value.DoubleValue
-57.336

@<SCITEGIC>MOL_PROPERTY
Grad RMS
SciTegic.value.DoubleValue
0.000000

@<SCITEGIC>MOL_PROPERTY
U
SciTegic.value.DoubleValue
7.263

@<SCITEGIC>MOL_PROPERTY
W
SciTegic.value.DoubleValue
-64.599

@<SCITEGIC>MOL_PROPERTY
W(PB)
SciTegic.value.DoubleValue
-66.503

@<SCITEGIC>MOL_PROPERTY
W(SA)
SciTegic.value.DoubleValue
1.904

@<SCITEGIC>MOL_PROPERTY
Valence
SciTegic.value.DoubleValue
6.734

@<SCITEGIC>MOL_PROPERTY
Coulomb
SciTegic.value.DoubleValue
-0.068

@<SCITEGIC>MOL_PROPERTY
VdW
SciTegic.value.DoubleValue
0.598

@<SCITEGIC>MOL_PROPERTY
VdW6
SciTegic.value.DoubleValue
-4.819

@<SCITEGIC>MOL_PROPERTY
VdW12
SciTegic.value.DoubleValue
5.417

@<SCITEGIC>MOL_PROPERTY
Bond
SciTegic.value.DoubleValue
0.107

@<SCITEGIC>MOL_PROPERTY
Angle
SciTegic.value.DoubleValue
2.469

@<SCITEGIC>MOL_PROPERTY
Pdih
SciTegic.value.DoubleValue
4.157

@<SCITEGIC>MOL_PROPERTY
Idih
SciTegic.value.DoubleValue
0.001

@<SCITEGIC>MOL_PROPERTY
Tether
SciTegic.value.DoubleValue
0.000

@<TRIPOS>MOLECULE
guest-s18_confgen4.mol2 : confsearch ligand conformer 885
          16          15           1
SMALL
USER_CHARGES
 
@<TRIPOS>ATOM
       1    C1      19.360626   19.250679   24.324984 C.2        1 MOL1         0.6075
       2    O1      20.221714   19.021812   25.151113 O.co2      1 MOL1        -0.6830
       3    O2      18.614373   20.207880   24.380981 O.co2      1 MOL1        -0.6830
       4    C2      19.193382   18.268664   23.168625 C.3        1 MOL1        -0.2050
       5    H1      18.196842   18.407671   22.731969 H          1 MOL1         0.0710
       6    H2      19.215964   17.257150   23.591192 H          1 MOL1         0.0710
       7    C3      20.280888   18.394485   22.070201 C.3        1 MOL1        -0.1947
       8    H3      21.274187   18.281651   22.526545 H          1 MOL1         0.0712
       9    H4      20.164687   17.567048   21.357176 H          1 MOL1         0.0712
      10    C4      20.204210   19.735996   21.309509 C.3        1 MOL1        -0.1921
      11    H5      20.339777   20.571455   22.010475 H          1 MOL1         0.0712
      12    H6      19.206504   19.853063   20.864251 H          1 MOL1         0.0712
      13    C5      21.273311   19.821004   20.202196 C.3        1 MOL1        -0.2936
      14    H7      22.283286   19.737598   20.624623 H          1 MOL1         0.0724
      15    H8      21.205651   20.780067   19.672349 H          1 MOL1         0.0724
      16    H9      21.141698   19.017058   19.466150 H          1 MOL1         0.0724
@<TRIPOS>BOND
    1     1     2    1
    2     1     3    2
    3     1     4    1
    4     4     5    1
    5     4     6    1
    6     4     7    1
    7     7     8    1
    8     7     9    1
    9     7    10    1
   10    10    11    1
   11    10    12    1
   12    10    13    1
   13    13    14    1
   14    13    15    1
   15    13    16    1
@<TRIPOS>SUBSTRUCTURE
       1 MOL1            1 RESIDUE      1      MOL     
@<SCITEGIC>MOL_PROPERTY
VConf Rank
SciTegic.value.IntegerValue
885

@<SCITEGIC>MOL_PROPERTY
Conf_Id
SciTegic.value.IntegerValue
19

@<SCITEGIC>MOL_PROPERTY
Delta U+W
SciTegic.value.DoubleValue
0.048

@<SCITEGIC>MOL_PROPERTY
U+W
SciTegic.value.DoubleValue
-56.856

@<SCITEGIC>MOL_PROPERTY
Grad RMS
SciTegic.value.DoubleValue
0.000000

@<SCITEGIC>MOL_PROPERTY
U
SciTegic.value.DoubleValue
8.276

@<SCITEGIC>MOL_PROPERTY
W
SciTegic.value.DoubleValue
-65.132

@<SCITEGIC>MOL_PROPERTY
W(PB)
SciTegic.value.DoubleValue
-67.031

@<SCITEGIC>MOL_PROPERTY
W(SA)
SciTegic.value.DoubleValue
1.899

@<SCITEGIC>MOL_PROPERTY
Valence
SciTegic.value.DoubleValue
6.513

@<SCITEGIC>MOL_PROPERTY
Coulomb
SciTegic.value.DoubleValue
1.428

@<SCITEGIC>MOL_PROPERTY
VdW
SciTegic.value.DoubleValue
0.335

@<SCITEGIC>MOL_PROPERTY
VdW6
SciTegic.value.DoubleValue
-5.021

@<SCITEGIC>MOL_PROPERTY
VdW12
SciTegic.value.DoubleValue
5.356

@<SCITEGIC>MOL_PROPERTY
Bond
SciTegic.value.DoubleValue
0.092

@<SCITEGIC>MOL_PROPERTY
Angle
SciTegic.value.DoubleValue
2.417

@<SCITEGIC>MOL_PROPERTY
Pdih
SciTegic.value.DoubleValue
4.003

@<SCITEGIC>MOL_PROPERTY
Idih
SciTegic.value.DoubleValue
0.001

@<SCITEGIC>MOL_PROPERTY
Tether
SciTegic.value.DoubleValue
0.000

@<TRIPOS>MOLECULE
guest-s18_confgen4.mol2 : confsearch ligand conformer 886
          16          15           1
SMALL
USER_CHARGES
 
@<TRIPOS>ATOM
       1    C1      18.174019   17.685434   21.335552 C.2        1 MOL1         0.6075
       2    O1      17.792616   16.906932   22.186908 O.co2      1 MOL1        -0.6830
       3    O2      18.488440   17.349146   20.211136 O.co2      1 MOL1        -0.6830
       4    C2      18.238496   19.167908   21.692779 C.3        1 MOL1        -0.2050
       5    H1      17.306323   19.421328   22.211498 H          1 MOL1         0.0710
       6    H2      18.253592   19.751894   20.764438 H          1 MOL1         0.0710
       7    C3      19.447444   19.551026   22.585364 C.3        1 MOL1        -0.1947
       8    H3      19.337560   20.596225   22.904808 H          1 MOL1         0.0712
       9    H4      19.435140   18.938490   23.497653 H          1 MOL1         0.0712
      10    C4      20.799422   19.380543   21.859224 C.3        1 MOL1        -0.1921
      11    H5      20.805557   19.983886   20.940901 H          1 MOL1         0.0712
      12    H6      20.929618   18.333260   21.552677 H          1 MOL1         0.0712
      13    C5      21.980860   19.799755   22.756340 C.3        1 MOL1        -0.2936
      14    H7      21.895980   20.853984   23.050978 H          1 MOL1         0.0724
      15    H8      22.933438   19.671692   22.225952 H          1 MOL1         0.0724
      16    H9      22.016294   19.190175   23.668813 H          1 MOL1         0.0724
@<TRIPOS>BOND
    1     1     2    1
    2     1     3    2
    3     1     4    1
    4     4     5    1
    5     4     6    1
    6     4     7    1
    7     7     8    1
    8     7     9    1
    9     7    10    1
   10    10    11    1
   11    10    12    1
   12    10    13    1
   13    13    14    1
   14    13    15    1
   15    13    16    1
@<TRIPOS>SUBSTRUCTURE
       1 MOL1            1 RESIDUE      1      MOL     
@<SCITEGIC>MOL_PROPERTY
VConf Rank
SciTegic.value.IntegerValue
886

@<SCITEGIC>MOL_PROPERTY
Conf_Id
SciTegic.value.IntegerValue
20

@<SCITEGIC>MOL_PROPERTY
Delta U+W
SciTegic.value.DoubleValue
-0.010

@<SCITEGIC>MOL_PROPERTY
U+W
SciTegic.value.DoubleValue
-56.914

@<SCITEGIC>MOL_PROPERTY
Grad RMS
SciTegic.value.DoubleValue
0.000000

@<SCITEGIC>MOL_PROPERTY
U
SciTegic.value.DoubleValue
8.277

@<SCITEGIC>MOL_PROPERTY
W
SciTegic.value.DoubleValue
-65.191

@<SCITEGIC>MOL_PROPERTY
W(PB)
SciTegic.value.DoubleValue
-67.081

@<SCITEGIC>MOL_PROPERTY
W(SA)
SciTegic.value.DoubleValue
1.890

@<SCITEGIC>MOL_PROPERTY
Valence
SciTegic.value.DoubleValue
6.513

@<SCITEGIC>MOL_PROPERTY
Coulomb
SciTegic.value.DoubleValue
1.429

@<SCITEGIC>MOL_PROPERTY
VdW
SciTegic.value.DoubleValue
0.335

@<SCITEGIC>MOL_PROPERTY
VdW6
SciTegic.value.DoubleValue
-5.021

@<SCITEGIC>MOL_PROPERTY
VdW12
SciTegic.value.DoubleValue
5.356

@<SCITEGIC>MOL_PROPERTY
Bond
SciTegic.value.DoubleValue
0.092

@<SCITEGIC>MOL_PROPERTY
Angle
SciTegic.value.DoubleValue
2.417

@<SCITEGIC>MOL_PROPERTY
Pdih
SciTegic.value.DoubleValue
4.002

@<SCITEGIC>MOL_PROPERTY
Idih
SciTegic.value.DoubleValue
0.001

@<SCITEGIC>MOL_PROPERTY
Tether
SciTegic.value.DoubleValue
0.000

@<TRIPOS>MOLECULE
guest-s18_confgen4.mol2 : confsearch ligand conformer 887
          16          15           1
SMALL
USER_CHARGES
 
@<TRIPOS>ATOM
       1    C1      19.292885   21.225228   21.987569 C.2        1 MOL1         0.6075
       2    O1      20.062095   22.098859   21.638466 O.co2      1 MOL1        -0.6830
       3    O2      18.541854   21.333417   22.936541 O.co2      1 MOL1        -0.6830
       4    C2      19.245622   19.938325   21.168184 C.3        1 MOL1        -0.2050
       5    H1      19.136539   20.226235   20.116001 H          1 MOL1         0.0710
       6    H2      18.337585   19.385063   21.433921 H          1 MOL1         0.0710
       7    C3      20.501305   19.037680   21.325587 C.3        1 MOL1        -0.1947
       8    H3      20.417367   18.180455   20.644051 H          1 MOL1         0.0712
       9    H4      21.384815   19.604284   21.000435 H          1 MOL1         0.0712
      10    C4      20.740055   18.522146   22.764758 C.3        1 MOL1        -0.1921
      11    H5      20.860599   19.371451   23.451598 H          1 MOL1         0.0712
      12    H6      21.688924   17.968762   22.788015 H          1 MOL1         0.0712
      13    C5      19.612952   17.599622   23.275669 C.3        1 MOL1        -0.2936
      14    H7      18.668791   18.148201   23.385715 H          1 MOL1         0.0724
      15    H8      19.872230   17.185495   24.258590 H          1 MOL1         0.0724
      16    H9      19.447984   16.760525   22.587362 H          1 MOL1         0.0724
@<TRIPOS>BOND
    1     1     2    1
    2     1     3    2
    3     1     4    1
    4     4     5    1
    5     4     6    1
    6     4     7    1
    7     7     8    1
    8     7     9    1
    9     7    10    1
   10    10    11    1
   11    10    12    1
   12    10    13    1
   13    13    14    1
   14    13    15    1
   15    13    16    1
@<TRIPOS>SUBSTRUCTURE
       1 MOL1            1 RESIDUE      1      MOL     
@<SCITEGIC>MOL_PROPERTY
VConf Rank
SciTegic.value.IntegerValue
887

@<SCITEGIC>MOL_PROPERTY
Conf_Id
SciTegic.value.IntegerValue
37

@<SCITEGIC>MOL_PROPERTY
Delta U+W
SciTegic.value.DoubleValue
1.063

@<SCITEGIC>MOL_PROPERTY
U+W
SciTegic.value.DoubleValue
-55.841

@<SCITEGIC>MOL_PROPERTY
Grad RMS
SciTegic.value.DoubleValue
0.000000

@<SCITEGIC>MOL_PROPERTY
U
SciTegic.value.DoubleValue
9.719

@<SCITEGIC>MOL_PROPERTY
W
SciTegic.value.DoubleValue
-65.560

@<SCITEGIC>MOL_PROPERTY
W(PB)
SciTegic.value.DoubleValue
-67.414

@<SCITEGIC>MOL_PROPERTY
W(SA)
SciTegic.value.DoubleValue
1.854

@<SCITEGIC>MOL_PROPERTY
Valence
SciTegic.value.DoubleValue
7.002

@<SCITEGIC>MOL_PROPERTY
Coulomb
SciTegic.value.DoubleValue
2.402

@<SCITEGIC>MOL_PROPERTY
VdW
SciTegic.value.DoubleValue
0.314

@<SCITEGIC>MOL_PROPERTY
VdW6
SciTegic.value.DoubleValue
-5.861

@<SCITEGIC>MOL_PROPERTY
VdW12
SciTegic.value.DoubleValue
6.175

@<SCITEGIC>MOL_PROPERTY
Bond
SciTegic.value.DoubleValue
0.134

@<SCITEGIC>MOL_PROPERTY
Angle
SciTegic.value.DoubleValue
2.733

@<SCITEGIC>MOL_PROPERTY
Pdih
SciTegic.value.DoubleValue
4.133

@<SCITEGIC>MOL_PROPERTY
Idih
SciTegic.value.DoubleValue
0.002

@<SCITEGIC>MOL_PROPERTY
Tether
SciTegic.value.DoubleValue
0.000

@<TRIPOS>MOLECULE
guest-s18_confgen4.mol2 : confsearch ligand conformer 888
          16          15           1
SMALL
USER_CHARGES
 
@<TRIPOS>ATOM
       1    C1      20.463638   17.575813   20.731834 C.2        1 MOL1         0.6075
       2    O1      20.987090   16.514422   21.007935 O.co2      1 MOL1        -0.6830
       3    O2      19.449804   17.670736   20.068940 O.co2      1 MOL1        -0.6830
       4    C2      21.136729   18.857551   21.215409 C.3        1 MOL1        -0.2050
       5    H1      20.712088   19.706415   20.667361 H          1 MOL1         0.0710
       6    H2      22.192827   18.799338   20.927052 H          1 MOL1         0.0710
       7    C3      21.035916   19.089639   22.747940 C.3        1 MOL1        -0.1947
       8    H3      21.517853   18.248125   23.264607 H          1 MOL1         0.0712
       9    H4      21.612165   19.985690   23.015150 H          1 MOL1         0.0712
      10    C4      19.589435   19.238391   23.276672 C.3        1 MOL1        -0.1921
      11    H5      19.620748   19.314415   24.372285 H          1 MOL1         0.0712
      12    H6      19.011424   18.332681   23.046041 H          1 MOL1         0.0712
      13    C5      18.859305   20.475682   22.712346 C.3        1 MOL1        -0.2936
      14    H7      19.434596   21.391853   22.898726 H          1 MOL1         0.0724
      15    H8      17.876270   20.590545   23.187012 H          1 MOL1         0.0724
      16    H9      18.696410   20.382851   21.630989 H          1 MOL1         0.0724
@<TRIPOS>BOND
    1     1     2    1
    2     1     3    2
    3     1     4    1
    4     4     5    1
    5     4     6    1
    6     4     7    1
    7     7     8    1
    8     7     9    1
    9     7    10    1
   10    10    11    1
   11    10    12    1
   12    10    13    1
   13    13    14    1
   14    13    15    1
   15    13    16    1
@<TRIPOS>SUBSTRUCTURE
       1 MOL1            1 RESIDUE      1      MOL     
@<SCITEGIC>MOL_PROPERTY
VConf Rank
SciTegic.value.IntegerValue
888

@<SCITEGIC>MOL_PROPERTY
Conf_Id
SciTegic.value.IntegerValue
39

@<SCITEGIC>MOL_PROPERTY
Delta U+W
SciTegic.value.DoubleValue
1.129

@<SCITEGIC>MOL_PROPERTY
U+W
SciTegic.value.DoubleValue
-55.775

@<SCITEGIC>MOL_PROPERTY
Grad RMS
SciTegic.value.DoubleValue
0.000000

@<SCITEGIC>MOL_PROPERTY
U
SciTegic.value.DoubleValue
9.718

@<SCITEGIC>MOL_PROPERTY
W
SciTegic.value.DoubleValue
-65.493

@<SCITEGIC>MOL_PROPERTY
W(PB)
SciTegic.value.DoubleValue
-67.361

@<SCITEGIC>MOL_PROPERTY
W(SA)
SciTegic.value.DoubleValue
1.869

@<SCITEGIC>MOL_PROPERTY
Valence
SciTegic.value.DoubleValue
7.002

@<SCITEGIC>MOL_PROPERTY
Coulomb
SciTegic.value.DoubleValue
2.402

@<SCITEGIC>MOL_PROPERTY
VdW
SciTegic.value.DoubleValue
0.314

@<SCITEGIC>MOL_PROPERTY
VdW6
SciTegic.value.DoubleValue
-5.861

@<SCITEGIC>MOL_PROPERTY
VdW12
SciTegic.value.DoubleValue
6.175

@<SCITEGIC>MOL_PROPERTY
Bond
SciTegic.value.DoubleValue
0.134

@<SCITEGIC>MOL_PROPERTY
Angle
SciTegic.value.DoubleValue
2.734

@<SCITEGIC>MOL_PROPERTY
Pdih
SciTegic.value.DoubleValue
4.133

@<SCITEGIC>MOL_PROPERTY
Idih
SciTegic.value.DoubleValue
0.002

@<SCITEGIC>MOL_PROPERTY
Tether
SciTegic.value.DoubleValue
0.000

@<TRIPOS>MOLECULE
guest-s18_confgen4.mol2 : confsearch ligand conformer 889
          16          15           1
SMALL
USER_CHARGES
 
@<TRIPOS>ATOM
       1    C1      18.154953   19.082822   21.299637 C.2        1 MOL1         0.6075
       2    O1      17.224852   18.930908   22.066875 O.co2      1 MOL1        -0.6830
       3    O2      18.282202   18.450320   20.269634 O.co2      1 MOL1        -0.6830
       4    C2      19.165747   20.187649   21.601813 C.3        1 MOL1        -0.2050
       5    H1      18.861854   20.708519   22.517958 H          1 MOL1         0.0710
       6    H2      19.081745   20.914690   20.785660 H          1 MOL1         0.0710
       7    C3      20.645029   19.722537   21.713066 C.3        1 MOL1        -0.1947
       8    H3      20.882846   19.030950   20.892889 H          1 MOL1         0.0712
       9    H4      21.288398   20.600359   21.564890 H          1 MOL1         0.0712
      10    C4      21.022378   19.084971   23.071993 C.3        1 MOL1        -0.1921
      11    H5      20.781301   19.778601   23.889299 H          1 MOL1         0.0712
      12    H6      22.111687   18.943604   23.098711 H          1 MOL1         0.0712
      13    C5      20.346298   17.722590   23.331070 C.3        1 MOL1        -0.2936
      14    H7      19.265190   17.834704   23.478161 H          1 MOL1         0.0724
      15    H8      20.755787   17.256844   24.236701 H          1 MOL1         0.0724
      16    H9      20.511023   17.034752   22.491383 H          1 MOL1         0.0724
@<TRIPOS>BOND
    1     1     2    1
    2     1     3    2
    3     1     4    1
    4     4     5    1
    5     4     6    1
    6     4     7    1
    7     7     8    1
    8     7     9    1
    9     7    10    1
   10    10    11    1
   11    10    12    1
   12    10    13    1
   13    13    14    1
   14    13    15    1
   15    13    16    1
@<TRIPOS>SUBSTRUCTURE
       1 MOL1            1 RESIDUE      1      MOL     
@<SCITEGIC>MOL_PROPERTY
VConf Rank
SciTegic.value.IntegerValue
889

@<SCITEGIC>MOL_PROPERTY
Conf_Id
SciTegic.value.IntegerValue
47

@<SCITEGIC>MOL_PROPERTY
Delta U+W
SciTegic.value.DoubleValue
2.301

@<SCITEGIC>MOL_PROPERTY
U+W
SciTegic.value.DoubleValue
-54.603

@<SCITEGIC>MOL_PROPERTY
Grad RMS
SciTegic.value.DoubleValue
0.000000

@<SCITEGIC>MOL_PROPERTY
U
SciTegic.value.DoubleValue
11.258

@<SCITEGIC>MOL_PROPERTY
W
SciTegic.value.DoubleValue
-65.861

@<SCITEGIC>MOL_PROPERTY
W(PB)
SciTegic.value.DoubleValue
-67.702

@<SCITEGIC>MOL_PROPERTY
W(SA)
SciTegic.value.DoubleValue
1.841

@<SCITEGIC>MOL_PROPERTY
Valence
SciTegic.value.DoubleValue
8.169

@<SCITEGIC>MOL_PROPERTY
Coulomb
SciTegic.value.DoubleValue
2.735

@<SCITEGIC>MOL_PROPERTY
VdW
SciTegic.value.DoubleValue
0.355

@<SCITEGIC>MOL_PROPERTY
VdW6
SciTegic.value.DoubleValue
-6.245

@<SCITEGIC>MOL_PROPERTY
VdW12
SciTegic.value.DoubleValue
6.600

@<SCITEGIC>MOL_PROPERTY
Bond
SciTegic.value.DoubleValue
0.149

@<SCITEGIC>MOL_PROPERTY
Angle
SciTegic.value.DoubleValue
3.168

@<SCITEGIC>MOL_PROPERTY
Pdih
SciTegic.value.DoubleValue
4.840

@<SCITEGIC>MOL_PROPERTY
Idih
SciTegic.value.DoubleValue
0.011

@<SCITEGIC>MOL_PROPERTY
Tether
SciTegic.value.DoubleValue
0.000

@<TRIPOS>MOLECULE
guest-s18_confgen4.mol2 : confsearch ligand conformer 890
          16          15           1
SMALL
USER_CHARGES
 
@<TRIPOS>ATOM
       1    C1      19.173466   20.396257   23.622167 C.2        1 MOL1         0.6075
       2    O1      18.014344   20.646846   23.356085 O.co2      1 MOL1        -0.6830
       3    O2      19.997328   21.248634   23.889606 O.co2      1 MOL1        -0.6830
       4    C2      19.596021   18.931082   23.713690 C.3        1 MOL1        -0.2050
       5    H1      18.996410   18.486342   24.516449 H          1 MOL1         0.0710
       6    H2      20.642129   18.881075   24.039475 H          1 MOL1         0.0710
       7    C3      19.396793   18.099750   22.415159 C.3        1 MOL1        -0.1947
       8    H3      19.380020   17.037029   22.692281 H          1 MOL1         0.0712
       9    H4      18.410781   18.314864   21.980362 H          1 MOL1         0.0712
      10    C4      20.501372   18.291735   21.348103 C.3        1 MOL1        -0.1921
      11    H5      20.349703   17.548072   20.553587 H          1 MOL1         0.0712
      12    H6      21.485532   18.077547   21.787173 H          1 MOL1         0.0712
      13    C5      20.513056   19.695392   20.707871 C.3        1 MOL1        -0.2936
      14    H7      21.218542   19.728255   19.867646 H          1 MOL1         0.0724
      15    H8      20.823857   20.460894   21.429265 H          1 MOL1         0.0724
      16    H9      19.518801   19.963242   20.327028 H          1 MOL1         0.0724
@<TRIPOS>BOND
    1     1     2    1
    2     1     3    2
    3     1     4    1
    4     4     5    1
    5     4     6    1
    6     4     7    1
    7     7     8    1
    8     7     9    1
    9     7    10    1
   10    10    11    1
   11    10    12    1
   12    10    13    1
   13    13    14    1
   14    13    15    1
   15    13    16    1
@<TRIPOS>SUBSTRUCTURE
       1 MOL1            1 RESIDUE      1      MOL     
@<SCITEGIC>MOL_PROPERTY
VConf Rank
SciTegic.value.IntegerValue
890

@<SCITEGIC>MOL_PROPERTY
Conf_Id
SciTegic.value.IntegerValue
45

@<SCITEGIC>MOL_PROPERTY
Delta U+W
SciTegic.value.DoubleValue
2.303

@<SCITEGIC>MOL_PROPERTY
U+W
SciTegic.value.DoubleValue
-54.601

@<SCITEGIC>MOL_PROPERTY
Grad RMS
SciTegic.value.DoubleValue
0.000000

@<SCITEGIC>MOL_PROPERTY
U
SciTegic.value.DoubleValue
11.258

@<SCITEGIC>MOL_PROPERTY
W
SciTegic.value.DoubleValue
-65.860

@<SCITEGIC>MOL_PROPERTY
W(PB)
SciTegic.value.DoubleValue
-67.709

@<SCITEGIC>MOL_PROPERTY
W(SA)
SciTegic.value.DoubleValue
1.849

@<SCITEGIC>MOL_PROPERTY
Valence
SciTegic.value.DoubleValue
8.169

@<SCITEGIC>MOL_PROPERTY
Coulomb
SciTegic.value.DoubleValue
2.735

@<SCITEGIC>MOL_PROPERTY
VdW
SciTegic.value.DoubleValue
0.355

@<SCITEGIC>MOL_PROPERTY
VdW6
SciTegic.value.DoubleValue
-6.245

@<SCITEGIC>MOL_PROPERTY
VdW12
SciTegic.value.DoubleValue
6.600

@<SCITEGIC>MOL_PROPERTY
Bond
SciTegic.value.DoubleValue
0.149

@<SCITEGIC>MOL_PROPERTY
Angle
SciTegic.value.DoubleValue
3.168

@<SCITEGIC>MOL_PROPERTY
Pdih
SciTegic.value.DoubleValue
4.840

@<SCITEGIC>MOL_PROPERTY
Idih
SciTegic.value.DoubleValue
0.011

@<SCITEGIC>MOL_PROPERTY
Tether
SciTegic.value.DoubleValue
0.000

@<TRIPOS>MOLECULE
guest-s18_confgen4.mol2 : confsearch ligand conformer 891
          16          15           1
SMALL
USER_CHARGES
 
@<TRIPOS>ATOM
       1    C1      20.465202   16.402737   21.850379 C.2        1 MOL1         0.6075
       2    O1      21.390995   16.442063   22.637231 O.co2      1 MOL1        -0.6830
       3    O2      20.072852   15.372534   21.340422 O.co2      1 MOL1        -0.6830
       4    C2      19.740493   17.693263   21.464072 C.3        1 MOL1        -0.2050
       5    H1      18.680548   17.559776   21.710770 H          1 MOL1         0.0710
       6    H2      19.806103   17.791722   20.374042 H          1 MOL1         0.0710
       7    C3      20.276812   18.983408   22.139523 C.3        1 MOL1        -0.1947
       8    H3      20.213623   18.876697   23.231351 H          1 MOL1         0.0712
       9    H4      21.340328   19.108886   21.893233 H          1 MOL1         0.0712
      10    C4      19.489842   20.233735   21.693855 C.3        1 MOL1        -0.1921
      11    H5      18.426317   20.110280   21.941187 H          1 MOL1         0.0712
      12    H6      19.553689   20.342619   20.602266 H          1 MOL1         0.0712
      13    C5      20.027088   21.511652   22.367974 C.3        1 MOL1        -0.2936
      14    H7      19.946200   21.442901   23.460768 H          1 MOL1         0.0724
      15    H8      19.456944   22.390750   22.040463 H          1 MOL1         0.0724
      16    H9      21.081889   21.676959   22.111971 H          1 MOL1         0.0724
@<TRIPOS>BOND
    1     1     2    1
    2     1     3    2
    3     1     4    1
    4     4     5    1
    5     4     6    1
    6     4     7    1
    7     7     8    1
    8     7     9    1
    9     7    10    1
   10    10    11    1
   11    10    12    1
   12    10    13    1
   13    13    14    1
   14    13    15    1
   15    13    16    1
@<TRIPOS>SUBSTRUCTURE
       1 MOL1            1 RESIDUE      1      MOL     
@<SCITEGIC>MOL_PROPERTY
VConf Rank
SciTegic.value.IntegerValue
891

@<SCITEGIC>MOL_PROPERTY
Conf_Id
SciTegic.value.IntegerValue
0

@<SCITEGIC>MOL_PROPERTY
Delta U+W
SciTegic.value.DoubleValue
0.000

@<SCITEGIC>MOL_PROPERTY
U+W
SciTegic.value.DoubleValue
-56.904

@<SCITEGIC>MOL_PROPERTY
Grad RMS
SciTegic.value.DoubleValue
0.000000

@<SCITEGIC>MOL_PROPERTY
U
SciTegic.value.DoubleValue
7.329

@<SCITEGIC>MOL_PROPERTY
W
SciTegic.value.DoubleValue
-64.233

@<SCITEGIC>MOL_PROPERTY
W(PB)
SciTegic.value.DoubleValue
-66.148

@<SCITEGIC>MOL_PROPERTY
W(SA)
SciTegic.value.DoubleValue
1.915

@<SCITEGIC>MOL_PROPERTY
Valence
SciTegic.value.DoubleValue
6.755

@<SCITEGIC>MOL_PROPERTY
Coulomb
SciTegic.value.DoubleValue
-0.421

@<SCITEGIC>MOL_PROPERTY
VdW
SciTegic.value.DoubleValue
0.995

@<SCITEGIC>MOL_PROPERTY
VdW6
SciTegic.value.DoubleValue
-4.495

@<SCITEGIC>MOL_PROPERTY
VdW12
SciTegic.value.DoubleValue
5.490

@<SCITEGIC>MOL_PROPERTY
Bond
SciTegic.value.DoubleValue
0.106

@<SCITEGIC>MOL_PROPERTY
Angle
SciTegic.value.DoubleValue
2.715

@<SCITEGIC>MOL_PROPERTY
Pdih
SciTegic.value.DoubleValue
3.934

@<SCITEGIC>MOL_PROPERTY
Idih
SciTegic.value.DoubleValue
0.000

@<SCITEGIC>MOL_PROPERTY
Tether
SciTegic.value.DoubleValue
0.000

@<TRIPOS>MOLECULE
guest-s18_confgen4.mol2 : confsearch ligand conformer 892
          16          15           1
SMALL
USER_CHARGES
 
@<TRIPOS>ATOM
       1    C1      21.612107   17.123885   22.937915 C.2        1 MOL1         0.6075
       2    O1      22.051058   17.328959   24.051966 O.co2      1 MOL1        -0.6830
       3    O2      21.360722   16.015738   22.508193 O.co2      1 MOL1        -0.6830
       4    C2      21.345065   18.324089   22.036371 C.3        1 MOL1        -0.2050
       5    H1      21.516658   18.015545   20.998004 H          1 MOL1         0.0710
       6    H2      22.085703   19.098255   22.270832 H          1 MOL1         0.0710
       7    C3      19.912500   18.890303   22.195187 C.3        1 MOL1        -0.1947
       8    H3      19.182790   18.100366   21.969195 H          1 MOL1         0.0712
       9    H4      19.751831   19.183065   23.242100 H          1 MOL1         0.0712
      10    C4      19.668800   20.102861   21.272758 C.3        1 MOL1        -0.1921
      11    H5      19.828710   19.810321   20.225673 H          1 MOL1         0.0712
      12    H6      20.397927   20.893290   21.498883 H          1 MOL1         0.0712
      13    C5      18.241283   20.661067   21.436163 C.3        1 MOL1        -0.2936
      14    H7      18.064217   20.990770   22.468352 H          1 MOL1         0.0724
      15    H8      17.490795   19.899792   21.185760 H          1 MOL1         0.0724
      16    H9      18.084578   21.522286   20.773671 H          1 MOL1         0.0724
@<TRIPOS>BOND
    1     1     2    1
    2     1     3    2
    3     1     4    1
    4     4     5    1
    5     4     6    1
    6     4     7    1
    7     7     8    1
    8     7     9    1
    9     7    10    1
   10    10    11    1
   11    10    12    1
   12    10    13    1
   13    13    14    1
   14    13    15    1
   15    13    16    1
@<TRIPOS>SUBSTRUCTURE
       1 MOL1            1 RESIDUE      1      MOL     
@<SCITEGIC>MOL_PROPERTY
VConf Rank
SciTegic.value.IntegerValue
892

@<SCITEGIC>MOL_PROPERTY
Conf_Id
SciTegic.value.IntegerValue
22

@<SCITEGIC>MOL_PROPERTY
Delta U+W
SciTegic.value.DoubleValue
-1.185

@<SCITEGIC>MOL_PROPERTY
U+W
SciTegic.value.DoubleValue
-58.089

@<SCITEGIC>MOL_PROPERTY
Grad RMS
SciTegic.value.DoubleValue
0.000000

@<SCITEGIC>MOL_PROPERTY
U
SciTegic.value.DoubleValue
6.298

@<SCITEGIC>MOL_PROPERTY
W
SciTegic.value.DoubleValue
-64.387

@<SCITEGIC>MOL_PROPERTY
W(PB)
SciTegic.value.DoubleValue
-66.329

@<SCITEGIC>MOL_PROPERTY
W(SA)
SciTegic.value.DoubleValue
1.942

@<SCITEGIC>MOL_PROPERTY
Valence
SciTegic.value.DoubleValue
6.246

@<SCITEGIC>MOL_PROPERTY
Coulomb
SciTegic.value.DoubleValue
-0.408

@<SCITEGIC>MOL_PROPERTY
VdW
SciTegic.value.DoubleValue
0.460

@<SCITEGIC>MOL_PROPERTY
VdW6
SciTegic.value.DoubleValue
-4.207

@<SCITEGIC>MOL_PROPERTY
VdW12
SciTegic.value.DoubleValue
4.667

@<SCITEGIC>MOL_PROPERTY
Bond
SciTegic.value.DoubleValue
0.072

@<SCITEGIC>MOL_PROPERTY
Angle
SciTegic.value.DoubleValue
2.246

@<SCITEGIC>MOL_PROPERTY
Pdih
SciTegic.value.DoubleValue
3.928

@<SCITEGIC>MOL_PROPERTY
Idih
SciTegic.value.DoubleValue
0.001

@<SCITEGIC>MOL_PROPERTY
Tether
SciTegic.value.DoubleValue
0.000

@<TRIPOS>MOLECULE
guest-s18_confgen4.mol2 : confsearch ligand conformer 893
          16          15           1
SMALL
USER_CHARGES
 
@<TRIPOS>ATOM
       1    C1      19.904585   21.591319   22.833974 C.2        1 MOL1         0.6075
       2    O1      20.628233   22.454500   22.378730 O.co2      1 MOL1        -0.6830
       3    O2      19.372885   21.666696   23.923731 O.co2      1 MOL1        -0.6830
       4    C2      19.667251   20.336766   22.000702 C.3        1 MOL1        -0.2050
       5    H1      19.694734   20.620996   20.941918 H          1 MOL1         0.0710
       6    H2      18.653577   19.979622   22.215251 H          1 MOL1         0.0710
       7    C3      20.708532   19.222475   22.281917 C.3        1 MOL1        -0.1947
       8    H3      21.716335   19.637341   22.141749 H          1 MOL1         0.0712
       9    H4      20.642324   18.916242   23.335077 H          1 MOL1         0.0712
      10    C4      20.548819   17.986017   21.367546 C.3        1 MOL1        -0.1921
      11    H5      21.384770   17.297953   21.554795 H          1 MOL1         0.0712
      12    H6      20.626759   18.290301   20.314590 H          1 MOL1         0.0712
      13    C5      19.221927   17.229936   21.592567 C.3        1 MOL1        -0.2936
      14    H7      18.357791   17.843372   21.308408 H          1 MOL1         0.0724
      15    H8      19.108304   16.940555   22.645467 H          1 MOL1         0.0724
      16    H9      19.193892   16.315479   20.985946 H          1 MOL1         0.0724
@<TRIPOS>BOND
    1     1     2    1
    2     1     3    2
    3     1     4    1
    4     4     5    1
    5     4     6    1
    6     4     7    1
    7     7     8    1
    8     7     9    1
    9     7    10    1
   10    10    11    1
   11    10    12    1
   12    10    13    1
   13    13    14    1
   14    13    15    1
   15    13    16    1
@<TRIPOS>SUBSTRUCTURE
       1 MOL1            1 RESIDUE      1      MOL     
@<SCITEGIC>MOL_PROPERTY
VConf Rank
SciTegic.value.IntegerValue
893

@<SCITEGIC>MOL_PROPERTY
Conf_Id
SciTegic.value.IntegerValue
36

@<SCITEGIC>MOL_PROPERTY
Delta U+W
SciTegic.value.DoubleValue
-0.427

@<SCITEGIC>MOL_PROPERTY
U+W
SciTegic.value.DoubleValue
-57.331

@<SCITEGIC>MOL_PROPERTY
Grad RMS
SciTegic.value.DoubleValue
0.000000

@<SCITEGIC>MOL_PROPERTY
U
SciTegic.value.DoubleValue
7.263

@<SCITEGIC>MOL_PROPERTY
W
SciTegic.value.DoubleValue
-64.594

@<SCITEGIC>MOL_PROPERTY
W(PB)
SciTegic.value.DoubleValue
-66.513

@<SCITEGIC>MOL_PROPERTY
W(SA)
SciTegic.value.DoubleValue
1.920

@<SCITEGIC>MOL_PROPERTY
Valence
SciTegic.value.DoubleValue
6.734

@<SCITEGIC>MOL_PROPERTY
Coulomb
SciTegic.value.DoubleValue
-0.068

@<SCITEGIC>MOL_PROPERTY
VdW
SciTegic.value.DoubleValue
0.598

@<SCITEGIC>MOL_PROPERTY
VdW6
SciTegic.value.DoubleValue
-4.819

@<SCITEGIC>MOL_PROPERTY
VdW12
SciTegic.value.DoubleValue
5.417

@<SCITEGIC>MOL_PROPERTY
Bond
SciTegic.value.DoubleValue
0.107

@<SCITEGIC>MOL_PROPERTY
Angle
SciTegic.value.DoubleValue
2.469

@<SCITEGIC>MOL_PROPERTY
Pdih
SciTegic.value.DoubleValue
4.157

@<SCITEGIC>MOL_PROPERTY
Idih
SciTegic.value.DoubleValue
0.001

@<SCITEGIC>MOL_PROPERTY
Tether
SciTegic.value.DoubleValue
0.000

@<TRIPOS>MOLECULE
guest-s18_confgen4.mol2 : confsearch ligand conformer 894
          16          15           1
SMALL
USER_CHARGES
 
@<TRIPOS>ATOM
       1    C1      18.093178   18.583823   20.290275 C.2        1 MOL1         0.6075
       2    O1      18.355352   19.022931   19.188274 O.co2      1 MOL1        -0.6830
       3    O2      16.973196   18.265781   20.637386 O.co2      1 MOL1        -0.6830
       4    C2      19.227455   18.442945   21.299304 C.3        1 MOL1        -0.2050
       5    H1      20.141045   18.201970   20.743964 H          1 MOL1         0.0710
       6    H2      19.003851   17.585603   21.945471 H          1 MOL1         0.0710
       7    C3      19.431420   19.719120   22.156492 C.3        1 MOL1        -0.1947
       8    H3      19.696697   20.561365   21.502610 H          1 MOL1         0.0712
       9    H4      18.475732   19.982724   22.630414 H          1 MOL1         0.0712
      10    C4      20.503702   19.555500   23.258239 C.3        1 MOL1        -0.1921
      11    H5      20.232538   18.720690   23.919255 H          1 MOL1         0.0712
      12    H6      20.507747   20.458639   23.884044 H          1 MOL1         0.0712
      13    C5      21.924263   19.332733   22.696712 C.3        1 MOL1        -0.2936
      14    H7      21.997170   18.380352   22.156863 H          1 MOL1         0.0724
      15    H8      22.659532   19.309745   23.511487 H          1 MOL1         0.0724
      16    H9      22.206409   20.141218   22.009692 H          1 MOL1         0.0724
@<TRIPOS>BOND
    1     1     2    1
    2     1     3    2
    3     1     4    1
    4     4     5    1
    5     4     6    1
    6     4     7    1
    7     7     8    1
    8     7     9    1
    9     7    10    1
   10    10    11    1
   11    10    12    1
   12    10    13    1
   13    13    14    1
   14    13    15    1
   15    13    16    1
@<TRIPOS>SUBSTRUCTURE
       1 MOL1            1 RESIDUE      1      MOL     
@<SCITEGIC>MOL_PROPERTY
VConf Rank
SciTegic.value.IntegerValue
894

@<SCITEGIC>MOL_PROPERTY
Conf_Id
SciTegic.value.IntegerValue
17

@<SCITEGIC>MOL_PROPERTY
Delta U+W
SciTegic.value.DoubleValue
-0.432

@<SCITEGIC>MOL_PROPERTY
U+W
SciTegic.value.DoubleValue
-57.336

@<SCITEGIC>MOL_PROPERTY
Grad RMS
SciTegic.value.DoubleValue
0.000000

@<SCITEGIC>MOL_PROPERTY
U
SciTegic.value.DoubleValue
7.263

@<SCITEGIC>MOL_PROPERTY
W
SciTegic.value.DoubleValue
-64.599

@<SCITEGIC>MOL_PROPERTY
W(PB)
SciTegic.value.DoubleValue
-66.503

@<SCITEGIC>MOL_PROPERTY
W(SA)
SciTegic.value.DoubleValue
1.904

@<SCITEGIC>MOL_PROPERTY
Valence
SciTegic.value.DoubleValue
6.734

@<SCITEGIC>MOL_PROPERTY
Coulomb
SciTegic.value.DoubleValue
-0.068

@<SCITEGIC>MOL_PROPERTY
VdW
SciTegic.value.DoubleValue
0.598

@<SCITEGIC>MOL_PROPERTY
VdW6
SciTegic.value.DoubleValue
-4.819

@<SCITEGIC>MOL_PROPERTY
VdW12
SciTegic.value.DoubleValue
5.417

@<SCITEGIC>MOL_PROPERTY
Bond
SciTegic.value.DoubleValue
0.107

@<SCITEGIC>MOL_PROPERTY
Angle
SciTegic.value.DoubleValue
2.469

@<SCITEGIC>MOL_PROPERTY
Pdih
SciTegic.value.DoubleValue
4.157

@<SCITEGIC>MOL_PROPERTY
Idih
SciTegic.value.DoubleValue
0.001

@<SCITEGIC>MOL_PROPERTY
Tether
SciTegic.value.DoubleValue
0.000

@<TRIPOS>MOLECULE
guest-s18_confgen4.mol2 : confsearch ligand conformer 895
          16          15           1
SMALL
USER_CHARGES
 
@<TRIPOS>ATOM
       1    C1      18.714995   17.286818   22.500544 C.2        1 MOL1         0.6075
       2    O1      18.683459   16.485805   21.587458 O.co2      1 MOL1        -0.6830
       3    O2      18.884573   16.973858   23.662250 O.co2      1 MOL1        -0.6830
       4    C2      18.506190   18.762405   22.171095 C.3        1 MOL1        -0.2050
       5    H1      18.217108   19.289020   23.088805 H          1 MOL1         0.0710
       6    H2      17.652809   18.828100   21.485779 H          1 MOL1         0.0710
       7    C3      19.739932   19.447113   21.527596 C.3        1 MOL1        -0.1947
       8    H3      20.035254   18.892506   20.626031 H          1 MOL1         0.0712
       9    H4      19.456617   20.456339   21.199335 H          1 MOL1         0.0712
      10    C4      20.937707   19.545090   22.497088 C.3        1 MOL1        -0.1921
      11    H5      21.243320   18.538965   22.816519 H          1 MOL1         0.0712
      12    H6      20.637431   20.089042   23.403359 H          1 MOL1         0.0712
      13    C5      22.137780   20.259147   21.844177 C.3        1 MOL1        -0.2936
      14    H7      22.478186   19.718023   20.951564 H          1 MOL1         0.0724
      15    H8      22.980029   20.319573   22.545664 H          1 MOL1         0.0724
      16    H9      21.871710   21.281477   21.545075 H          1 MOL1         0.0724
@<TRIPOS>BOND
    1     1     2    1
    2     1     3    2
    3     1     4    1
    4     4     5    1
    5     4     6    1
    6     4     7    1
    7     7     8    1
    8     7     9    1
    9     7    10    1
   10    10    11    1
   11    10    12    1
   12    10    13    1
   13    13    14    1
   14    13    15    1
   15    13    16    1
@<TRIPOS>SUBSTRUCTURE
       1 MOL1            1 RESIDUE      1      MOL     
@<SCITEGIC>MOL_PROPERTY
VConf Rank
SciTegic.value.IntegerValue
895

@<SCITEGIC>MOL_PROPERTY
Conf_Id
SciTegic.value.IntegerValue
19

@<SCITEGIC>MOL_PROPERTY
Delta U+W
SciTegic.value.DoubleValue
0.048

@<SCITEGIC>MOL_PROPERTY
U+W
SciTegic.value.DoubleValue
-56.856

@<SCITEGIC>MOL_PROPERTY
Grad RMS
SciTegic.value.DoubleValue
0.000000

@<SCITEGIC>MOL_PROPERTY
U
SciTegic.value.DoubleValue
8.276

@<SCITEGIC>MOL_PROPERTY
W
SciTegic.value.DoubleValue
-65.132

@<SCITEGIC>MOL_PROPERTY
W(PB)
SciTegic.value.DoubleValue
-67.031

@<SCITEGIC>MOL_PROPERTY
W(SA)
SciTegic.value.DoubleValue
1.899

@<SCITEGIC>MOL_PROPERTY
Valence
SciTegic.value.DoubleValue
6.513

@<SCITEGIC>MOL_PROPERTY
Coulomb
SciTegic.value.DoubleValue
1.428

@<SCITEGIC>MOL_PROPERTY
VdW
SciTegic.value.DoubleValue
0.335

@<SCITEGIC>MOL_PROPERTY
VdW6
SciTegic.value.DoubleValue
-5.021

@<SCITEGIC>MOL_PROPERTY
VdW12
SciTegic.value.DoubleValue
5.356

@<SCITEGIC>MOL_PROPERTY
Bond
SciTegic.value.DoubleValue
0.092

@<SCITEGIC>MOL_PROPERTY
Angle
SciTegic.value.DoubleValue
2.417

@<SCITEGIC>MOL_PROPERTY
Pdih
SciTegic.value.DoubleValue
4.003

@<SCITEGIC>MOL_PROPERTY
Idih
SciTegic.value.DoubleValue
0.001

@<SCITEGIC>MOL_PROPERTY
Tether
SciTegic.value.DoubleValue
0.000

@<TRIPOS>MOLECULE
guest-s18_confgen4.mol2 : confsearch ligand conformer 896
          16          15           1
SMALL
USER_CHARGES
 
@<TRIPOS>ATOM
       1    C1      18.111191   19.384266   23.665728 C.2        1 MOL1         0.6075
       2    O1      17.165255   18.653714   23.447006 O.co2      1 MOL1        -0.6830
       3    O2      18.002655   20.572878   23.893067 O.co2      1 MOL1        -0.6830
       4    C2      19.507948   18.769113   23.678214 C.3        1 MOL1        -0.2050
       5    H1      19.453578   17.843288   24.263131 H          1 MOL1         0.0710
       6    H2      20.183848   19.444878   24.216346 H          1 MOL1         0.0710
       7    C3      20.074019   18.457473   22.268432 C.3        1 MOL1        -0.1947
       8    H3      21.011439   17.895328   22.377039 H          1 MOL1         0.0712
       9    H4      19.373339   17.803293   21.731105 H          1 MOL1         0.0712
      10    C4      20.338937   19.732992   21.439541 C.3        1 MOL1        -0.1921
      11    H5      21.029956   20.391679   21.983601 H          1 MOL1         0.0712
      12    H6      19.403098   20.293644   21.306882 H          1 MOL1         0.0712
      13    C5      20.932170   19.396847   20.056996 C.3        1 MOL1        -0.2936
      14    H7      21.887552   18.865350   20.157849 H          1 MOL1         0.0724
      15    H8      21.113451   20.313549   19.480877 H          1 MOL1         0.0724
      16    H9      20.246364   18.763381   19.479206 H          1 MOL1         0.0724
@<TRIPOS>BOND
    1     1     2    1
    2     1     3    2
    3     1     4    1
    4     4     5    1
    5     4     6    1
    6     4     7    1
    7     7     8    1
    8     7     9    1
    9     7    10    1
   10    10    11    1
   11    10    12    1
   12    10    13    1
   13    13    14    1
   14    13    15    1
   15    13    16    1
@<TRIPOS>SUBSTRUCTURE
       1 MOL1            1 RESIDUE      1      MOL     
@<SCITEGIC>MOL_PROPERTY
VConf Rank
SciTegic.value.IntegerValue
896

@<SCITEGIC>MOL_PROPERTY
Conf_Id
SciTegic.value.IntegerValue
20

@<SCITEGIC>MOL_PROPERTY
Delta U+W
SciTegic.value.DoubleValue
-0.010

@<SCITEGIC>MOL_PROPERTY
U+W
SciTegic.value.DoubleValue
-56.914

@<SCITEGIC>MOL_PROPERTY
Grad RMS
SciTegic.value.DoubleValue
0.000000

@<SCITEGIC>MOL_PROPERTY
U
SciTegic.value.DoubleValue
8.277

@<SCITEGIC>MOL_PROPERTY
W
SciTegic.value.DoubleValue
-65.191

@<SCITEGIC>MOL_PROPERTY
W(PB)
SciTegic.value.DoubleValue
-67.081

@<SCITEGIC>MOL_PROPERTY
W(SA)
SciTegic.value.DoubleValue
1.890

@<SCITEGIC>MOL_PROPERTY
Valence
SciTegic.value.DoubleValue
6.513

@<SCITEGIC>MOL_PROPERTY
Coulomb
SciTegic.value.DoubleValue
1.429

@<SCITEGIC>MOL_PROPERTY
VdW
SciTegic.value.DoubleValue
0.335

@<SCITEGIC>MOL_PROPERTY
VdW6
SciTegic.value.DoubleValue
-5.021

@<SCITEGIC>MOL_PROPERTY
VdW12
SciTegic.value.DoubleValue
5.356

@<SCITEGIC>MOL_PROPERTY
Bond
SciTegic.value.DoubleValue
0.092

@<SCITEGIC>MOL_PROPERTY
Angle
SciTegic.value.DoubleValue
2.417

@<SCITEGIC>MOL_PROPERTY
Pdih
SciTegic.value.DoubleValue
4.002

@<SCITEGIC>MOL_PROPERTY
Idih
SciTegic.value.DoubleValue
0.001

@<SCITEGIC>MOL_PROPERTY
Tether
SciTegic.value.DoubleValue
0.000

@<TRIPOS>MOLECULE
guest-s18_confgen4.mol2 : confsearch ligand conformer 897
          16          15           1
SMALL
USER_CHARGES
 
@<TRIPOS>ATOM
       1    C1      19.823191   17.715335   20.583706 C.2        1 MOL1         0.6075
       2    O1      20.648521   16.830787   20.468859 O.co2      1 MOL1        -0.6830
       3    O2      19.454558   18.412198   19.659157 O.co2      1 MOL1        -0.6830
       4    C2      19.192985   17.937886   21.955951 C.3        1 MOL1        -0.2050
       5    H1      18.846034   16.962550   22.316819 H          1 MOL1         0.0710
       6    H2      18.298673   18.559993   21.835797 H          1 MOL1         0.0710
       7    C3      20.155560   18.559568   23.004588 C.3        1 MOL1        -0.1947
       8    H3      19.646179   18.608764   23.976433 H          1 MOL1         0.0712
       9    H4      21.012704   17.885515   23.139906 H          1 MOL1         0.0712
      10    C4      20.680309   19.966950   22.633231 C.3        1 MOL1        -0.1921
      11    H5      21.222757   19.924470   21.678484 H          1 MOL1         0.0712
      12    H6      21.411590   20.281548   23.390453 H          1 MOL1         0.0712
      13    C5      19.564140   21.029591   22.547189 C.3        1 MOL1        -0.2936
      14    H7      18.876742   20.818533   21.718077 H          1 MOL1         0.0724
      15    H8      19.994419   22.024774   22.375924 H          1 MOL1         0.0724
      16    H9      18.983241   21.067287   23.477888 H          1 MOL1         0.0724
@<TRIPOS>BOND
    1     1     2    1
    2     1     3    2
    3     1     4    1
    4     4     5    1
    5     4     6    1
    6     4     7    1
    7     7     8    1
    8     7     9    1
    9     7    10    1
   10    10    11    1
   11    10    12    1
   12    10    13    1
   13    13    14    1
   14    13    15    1
   15    13    16    1
@<TRIPOS>SUBSTRUCTURE
       1 MOL1            1 RESIDUE      1      MOL     
@<SCITEGIC>MOL_PROPERTY
VConf Rank
SciTegic.value.IntegerValue
897

@<SCITEGIC>MOL_PROPERTY
Conf_Id
SciTegic.value.IntegerValue
37

@<SCITEGIC>MOL_PROPERTY
Delta U+W
SciTegic.value.DoubleValue
1.063

@<SCITEGIC>MOL_PROPERTY
U+W
SciTegic.value.DoubleValue
-55.841

@<SCITEGIC>MOL_PROPERTY
Grad RMS
SciTegic.value.DoubleValue
0.000000

@<SCITEGIC>MOL_PROPERTY
U
SciTegic.value.DoubleValue
9.719

@<SCITEGIC>MOL_PROPERTY
W
SciTegic.value.DoubleValue
-65.560

@<SCITEGIC>MOL_PROPERTY
W(PB)
SciTegic.value.DoubleValue
-67.414

@<SCITEGIC>MOL_PROPERTY
W(SA)
SciTegic.value.DoubleValue
1.854

@<SCITEGIC>MOL_PROPERTY
Valence
SciTegic.value.DoubleValue
7.002

@<SCITEGIC>MOL_PROPERTY
Coulomb
SciTegic.value.DoubleValue
2.402

@<SCITEGIC>MOL_PROPERTY
VdW
SciTegic.value.DoubleValue
0.314

@<SCITEGIC>MOL_PROPERTY
VdW6
SciTegic.value.DoubleValue
-5.861

@<SCITEGIC>MOL_PROPERTY
VdW12
SciTegic.value.DoubleValue
6.175

@<SCITEGIC>MOL_PROPERTY
Bond
SciTegic.value.DoubleValue
0.134

@<SCITEGIC>MOL_PROPERTY
Angle
SciTegic.value.DoubleValue
2.733

@<SCITEGIC>MOL_PROPERTY
Pdih
SciTegic.value.DoubleValue
4.133

@<SCITEGIC>MOL_PROPERTY
Idih
SciTegic.value.DoubleValue
0.002

@<SCITEGIC>MOL_PROPERTY
Tether
SciTegic.value.DoubleValue
0.000

@<TRIPOS>MOLECULE
guest-s18_confgen4.mol2 : confsearch ligand conformer 898
          16          15           1
SMALL
USER_CHARGES
 
@<TRIPOS>ATOM
       1    C1      18.706144   19.678851   20.664906 C.2        1 MOL1         0.6075
       2    O1      17.940810   18.882989   20.157310 O.co2      1 MOL1        -0.6830
       3    O2      18.365372   20.773783   21.066524 O.co2      1 MOL1        -0.6830
       4    C2      20.179303   19.293665   20.770651 C.3        1 MOL1        -0.2050
       5    H1      20.764162   20.195126   20.986419 H          1 MOL1         0.0710
       6    H2      20.497131   18.947544   19.780163 H          1 MOL1         0.0710
       7    C3      20.473391   18.186189   21.819312 C.3        1 MOL1        -0.1947
       8    H3      19.914291   17.281481   21.543150 H          1 MOL1         0.0712
       9    H4      21.537252   17.917492   21.770615 H          1 MOL1         0.0712
      10    C4      20.112123   18.572555   23.273340 C.3        1 MOL1        -0.1921
      11    H5      20.277772   17.700777   23.921176 H          1 MOL1         0.0712
      12    H6      19.041466   18.810221   23.342661 H          1 MOL1         0.0712
      13    C5      20.941069   19.757925   23.812033 C.3        1 MOL1        -0.2936
      14    H7      22.017007   19.560031   23.721141 H          1 MOL1         0.0724
      15    H8      20.717092   19.932093   24.872392 H          1 MOL1         0.0724
      16    H9      20.711915   20.683428   23.268507 H          1 MOL1         0.0724
@<TRIPOS>BOND
    1     1     2    1
    2     1     3    2
    3     1     4    1
    4     4     5    1
    5     4     6    1
    6     4     7    1
    7     7     8    1
    8     7     9    1
    9     7    10    1
   10    10    11    1
   11    10    12    1
   12    10    13    1
   13    13    14    1
   14    13    15    1
   15    13    16    1
@<TRIPOS>SUBSTRUCTURE
       1 MOL1            1 RESIDUE      1      MOL     
@<SCITEGIC>MOL_PROPERTY
VConf Rank
SciTegic.value.IntegerValue
898

@<SCITEGIC>MOL_PROPERTY
Conf_Id
SciTegic.value.IntegerValue
39

@<SCITEGIC>MOL_PROPERTY
Delta U+W
SciTegic.value.DoubleValue
1.129

@<SCITEGIC>MOL_PROPERTY
U+W
SciTegic.value.DoubleValue
-55.775

@<SCITEGIC>MOL_PROPERTY
Grad RMS
SciTegic.value.DoubleValue
0.000000

@<SCITEGIC>MOL_PROPERTY
U
SciTegic.value.DoubleValue
9.718

@<SCITEGIC>MOL_PROPERTY
W
SciTegic.value.DoubleValue
-65.493

@<SCITEGIC>MOL_PROPERTY
W(PB)
SciTegic.value.DoubleValue
-67.361

@<SCITEGIC>MOL_PROPERTY
W(SA)
SciTegic.value.DoubleValue
1.869

@<SCITEGIC>MOL_PROPERTY
Valence
SciTegic.value.DoubleValue
7.002

@<SCITEGIC>MOL_PROPERTY
Coulomb
SciTegic.value.DoubleValue
2.402

@<SCITEGIC>MOL_PROPERTY
VdW
SciTegic.value.DoubleValue
0.314

@<SCITEGIC>MOL_PROPERTY
VdW6
SciTegic.value.DoubleValue
-5.861

@<SCITEGIC>MOL_PROPERTY
VdW12
SciTegic.value.DoubleValue
6.175

@<SCITEGIC>MOL_PROPERTY
Bond
SciTegic.value.DoubleValue
0.134

@<SCITEGIC>MOL_PROPERTY
Angle
SciTegic.value.DoubleValue
2.734

@<SCITEGIC>MOL_PROPERTY
Pdih
SciTegic.value.DoubleValue
4.133

@<SCITEGIC>MOL_PROPERTY
Idih
SciTegic.value.DoubleValue
0.002

@<SCITEGIC>MOL_PROPERTY
Tether
SciTegic.value.DoubleValue
0.000

@<TRIPOS>MOLECULE
guest-s18_confgen4.mol2 : confsearch ligand conformer 899
          16          15           1
SMALL
USER_CHARGES
 
@<TRIPOS>ATOM
       1    C1      21.044501   17.468507   22.002845 C.2        1 MOL1         0.6075
       2    O1      21.940780   17.691689   21.213102 O.co2      1 MOL1        -0.6830
       3    O2      20.328285   16.488467   21.941898 O.co2      1 MOL1        -0.6830
       4    C2      20.869301   18.422528   23.183016 C.3        1 MOL1        -0.2050
       5    H1      21.640276   19.200852   23.130203 H          1 MOL1         0.0710
       6    H2      21.076453   17.837318   24.086547 H          1 MOL1         0.0710
       7    C3      19.461020   19.068370   23.311913 C.3        1 MOL1        -0.1947
       8    H3      18.684150   18.306424   23.158772 H          1 MOL1         0.0712
       9    H4      19.341988   19.418303   24.346239 H          1 MOL1         0.0712
      10    C4      19.214180   20.274807   22.374288 C.3        1 MOL1        -0.1921
      11    H5      19.993929   21.033273   22.529055 H          1 MOL1         0.0712
      12    H6      18.263783   20.747071   22.658904 H          1 MOL1         0.0712
      13    C5      19.144868   19.899227   20.879489 C.3        1 MOL1        -0.2936
      14    H7      20.122863   19.575219   20.503267 H          1 MOL1         0.0724
      15    H8      18.831067   20.763850   20.280553 H          1 MOL1         0.0724
      16    H9      18.423844   19.088914   20.709651 H          1 MOL1         0.0724
@<TRIPOS>BOND
    1     1     2    1
    2     1     3    2
    3     1     4    1
    4     4     5    1
    5     4     6    1
    6     4     7    1
    7     7     8    1
    8     7     9    1
    9     7    10    1
   10    10    11    1
   11    10    12    1
   12    10    13    1
   13    13    14    1
   14    13    15    1
   15    13    16    1
@<TRIPOS>SUBSTRUCTURE
       1 MOL1            1 RESIDUE      1      MOL     
@<SCITEGIC>MOL_PROPERTY
VConf Rank
SciTegic.value.IntegerValue
899

@<SCITEGIC>MOL_PROPERTY
Conf_Id
SciTegic.value.IntegerValue
47

@<SCITEGIC>MOL_PROPERTY
Delta U+W
SciTegic.value.DoubleValue
2.301

@<SCITEGIC>MOL_PROPERTY
U+W
SciTegic.value.DoubleValue
-54.603

@<SCITEGIC>MOL_PROPERTY
Grad RMS
SciTegic.value.DoubleValue
0.000000

@<SCITEGIC>MOL_PROPERTY
U
SciTegic.value.DoubleValue
11.258

@<SCITEGIC>MOL_PROPERTY
W
SciTegic.value.DoubleValue
-65.861

@<SCITEGIC>MOL_PROPERTY
W(PB)
SciTegic.value.DoubleValue
-67.702

@<SCITEGIC>MOL_PROPERTY
W(SA)
SciTegic.value.DoubleValue
1.841

@<SCITEGIC>MOL_PROPERTY
Valence
SciTegic.value.DoubleValue
8.169

@<SCITEGIC>MOL_PROPERTY
Coulomb
SciTegic.value.DoubleValue
2.735

@<SCITEGIC>MOL_PROPERTY
VdW
SciTegic.value.DoubleValue
0.355

@<SCITEGIC>MOL_PROPERTY
VdW6
SciTegic.value.DoubleValue
-6.245

@<SCITEGIC>MOL_PROPERTY
VdW12
SciTegic.value.DoubleValue
6.600

@<SCITEGIC>MOL_PROPERTY
Bond
SciTegic.value.DoubleValue
0.149

@<SCITEGIC>MOL_PROPERTY
Angle
SciTegic.value.DoubleValue
3.168

@<SCITEGIC>MOL_PROPERTY
Pdih
SciTegic.value.DoubleValue
4.840

@<SCITEGIC>MOL_PROPERTY
Idih
SciTegic.value.DoubleValue
0.011

@<SCITEGIC>MOL_PROPERTY
Tether
SciTegic.value.DoubleValue
0.000

@<TRIPOS>MOLECULE
guest-s18_confgen4.mol2 : confsearch ligand conformer 900
          16          15           1
SMALL
USER_CHARGES
 
@<TRIPOS>ATOM
       1    C1      19.274290   20.608384   21.089374 C.2        1 MOL1         0.6075
       2    O1      18.335108   21.167028   21.621364 O.co2      1 MOL1        -0.6830
       3    O2      19.280580   20.278223   19.919856 O.co2      1 MOL1        -0.6830
       4    C2      20.546135   20.390376   21.907022 C.3        1 MOL1        -0.2050
       5    H1      20.905393   21.386469   22.190714 H          1 MOL1         0.0710
       6    H2      21.315705   19.952296   21.259854 H          1 MOL1         0.0710
       7    C3      20.371312   19.532203   23.191532 C.3        1 MOL1        -0.1947
       8    H3      21.217286   19.744905   23.859019 H          1 MOL1         0.0712
       9    H4      19.470127   19.849745   23.734279 H          1 MOL1         0.0712
      10    C4      20.334508   18.004053   22.948706 C.3        1 MOL1        -0.1921
      11    H5      20.370545   17.496696   23.922659 H          1 MOL1         0.0712
      12    H6      21.236111   17.690962   22.404356 H          1 MOL1         0.0712
      13    C5      19.078567   17.522535   22.193037 C.3        1 MOL1        -0.2936
      14    H7      19.039105   16.425796   22.173648 H          1 MOL1         0.0724
      15    H8      19.080208   17.870669   21.152940 H          1 MOL1         0.0724
      16    H9      18.163174   17.886674   22.677587 H          1 MOL1         0.0724
@<TRIPOS>BOND
    1     1     2    1
    2     1     3    2
    3     1     4    1
    4     4     5    1
    5     4     6    1
    6     4     7    1
    7     7     8    1
    8     7     9    1
    9     7    10    1
   10    10    11    1
   11    10    12    1
   12    10    13    1
   13    13    14    1
   14    13    15    1
   15    13    16    1
@<TRIPOS>SUBSTRUCTURE
       1 MOL1            1 RESIDUE      1      MOL     
@<SCITEGIC>MOL_PROPERTY
VConf Rank
SciTegic.value.IntegerValue
900

@<SCITEGIC>MOL_PROPERTY
Conf_Id
SciTegic.value.IntegerValue
45

@<SCITEGIC>MOL_PROPERTY
Delta U+W
SciTegic.value.DoubleValue
2.303

@<SCITEGIC>MOL_PROPERTY
U+W
SciTegic.value.DoubleValue
-54.601

@<SCITEGIC>MOL_PROPERTY
Grad RMS
SciTegic.value.DoubleValue
0.000000

@<SCITEGIC>MOL_PROPERTY
U
SciTegic.value.DoubleValue
11.258

@<SCITEGIC>MOL_PROPERTY
W
SciTegic.value.DoubleValue
-65.860

@<SCITEGIC>MOL_PROPERTY
W(PB)
SciTegic.value.DoubleValue
-67.709

@<SCITEGIC>MOL_PROPERTY
W(SA)
SciTegic.value.DoubleValue
1.849

@<SCITEGIC>MOL_PROPERTY
Valence
SciTegic.value.DoubleValue
8.169

@<SCITEGIC>MOL_PROPERTY
Coulomb
SciTegic.value.DoubleValue
2.735

@<SCITEGIC>MOL_PROPERTY
VdW
SciTegic.value.DoubleValue
0.355

@<SCITEGIC>MOL_PROPERTY
VdW6
SciTegic.value.DoubleValue
-6.245

@<SCITEGIC>MOL_PROPERTY
VdW12
SciTegic.value.DoubleValue
6.600

@<SCITEGIC>MOL_PROPERTY
Bond
SciTegic.value.DoubleValue
0.149

@<SCITEGIC>MOL_PROPERTY
Angle
SciTegic.value.DoubleValue
3.168

@<SCITEGIC>MOL_PROPERTY
Pdih
SciTegic.value.DoubleValue
4.840

@<SCITEGIC>MOL_PROPERTY
Idih
SciTegic.value.DoubleValue
0.011

@<SCITEGIC>MOL_PROPERTY
Tether
SciTegic.value.DoubleValue
0.000

@<TRIPOS>MOLECULE
guest-s18_confgen4.mol2 : confsearch ligand conformer 901
          16          15           1
SMALL
USER_CHARGES
 
@<TRIPOS>ATOM
       1    C1      21.860515   18.744200   23.929658 C.2        1 MOL1         0.6075
       2    O1      22.689476   18.242649   23.195460 O.co2      1 MOL1        -0.6830
       3    O2      22.043360   18.910641   25.118850 O.co2      1 MOL1        -0.6830
       4    C2      20.514942   19.196744   23.359982 C.3        1 MOL1        -0.2050
       5    H1      20.405701   20.263842   23.586983 H          1 MOL1         0.0710
       6    H2      19.730405   18.668879   23.914980 H          1 MOL1         0.0710
       7    C3      20.326507   18.963400   21.837356 C.3        1 MOL1        -0.1947
       8    H3      21.118432   19.490084   21.286965 H          1 MOL1         0.0712
       9    H4      20.442423   17.893481   21.615307 H          1 MOL1         0.0712
      10    C4      18.945043   19.448006   21.349532 C.3        1 MOL1        -0.1921
      11    H5      18.828527   20.518320   21.569421 H          1 MOL1         0.0712
      12    H6      18.152103   18.920768   21.897955 H          1 MOL1         0.0712
      13    C5      18.763913   19.213609   19.836789 C.3        1 MOL1        -0.2936
      14    H7      19.525909   19.755603   19.261398 H          1 MOL1         0.0724
      15    H8      17.777177   19.563489   19.506521 H          1 MOL1         0.0724
      16    H9      18.844494   18.146264   19.592350 H          1 MOL1         0.0724
@<TRIPOS>BOND
    1     1     2    1
    2     1     3    2
    3     1     4    1
    4     4     5    1
    5     4     6    1
    6     4     7    1
    7     7     8    1
    8     7     9    1
    9     7    10    1
   10    10    11    1
   11    10    12    1
   12    10    13    1
   13    13    14    1
   14    13    15    1
   15    13    16    1
@<TRIPOS>SUBSTRUCTURE
       1 MOL1            1 RESIDUE      1      MOL     
@<SCITEGIC>MOL_PROPERTY
VConf Rank
SciTegic.value.IntegerValue
901

@<SCITEGIC>MOL_PROPERTY
Conf_Id
SciTegic.value.IntegerValue
0

@<SCITEGIC>MOL_PROPERTY
Delta U+W
SciTegic.value.DoubleValue
0.000

@<SCITEGIC>MOL_PROPERTY
U+W
SciTegic.value.DoubleValue
-56.904

@<SCITEGIC>MOL_PROPERTY
Grad RMS
SciTegic.value.DoubleValue
0.000000

@<SCITEGIC>MOL_PROPERTY
U
SciTegic.value.DoubleValue
7.329

@<SCITEGIC>MOL_PROPERTY
W
SciTegic.value.DoubleValue
-64.233

@<SCITEGIC>MOL_PROPERTY
W(PB)
SciTegic.value.DoubleValue
-66.148

@<SCITEGIC>MOL_PROPERTY
W(SA)
SciTegic.value.DoubleValue
1.915

@<SCITEGIC>MOL_PROPERTY
Valence
SciTegic.value.DoubleValue
6.755

@<SCITEGIC>MOL_PROPERTY
Coulomb
SciTegic.value.DoubleValue
-0.421

@<SCITEGIC>MOL_PROPERTY
VdW
SciTegic.value.DoubleValue
0.995

@<SCITEGIC>MOL_PROPERTY
VdW6
SciTegic.value.DoubleValue
-4.495

@<SCITEGIC>MOL_PROPERTY
VdW12
SciTegic.value.DoubleValue
5.490

@<SCITEGIC>MOL_PROPERTY
Bond
SciTegic.value.DoubleValue
0.106

@<SCITEGIC>MOL_PROPERTY
Angle
SciTegic.value.DoubleValue
2.715

@<SCITEGIC>MOL_PROPERTY
Pdih
SciTegic.value.DoubleValue
3.934

@<SCITEGIC>MOL_PROPERTY
Idih
SciTegic.value.DoubleValue
0.000

@<SCITEGIC>MOL_PROPERTY
Tether
SciTegic.value.DoubleValue
0.000

@<TRIPOS>MOLECULE
guest-s18_confgen4.mol2 : confsearch ligand conformer 902
          16          15           1
SMALL
USER_CHARGES
 
@<TRIPOS>ATOM
       1    C1      18.419573   21.168829   22.756229 C.2        1 MOL1         0.6075
       2    O1      17.595634   20.863458   23.595107 O.co2      1 MOL1        -0.6830
       3    O2      18.916575   22.274277   22.673667 O.co2      1 MOL1        -0.6830
       4    C2      18.867772   20.101285   21.764236 C.3        1 MOL1        -0.2050
       5    H1      19.107677   20.596489   20.815517 H          1 MOL1         0.0710
       6    H2      18.018697   19.433288   21.575285 H          1 MOL1         0.0710
       7    C3      20.086392   19.287208   22.264539 C.3        1 MOL1        -0.1947
       8    H3      20.923881   19.971005   22.460970 H          1 MOL1         0.0712
       9    H4      19.834878   18.807801   23.220814 H          1 MOL1         0.0712
      10    C4      20.519072   18.214866   21.243054 C.3        1 MOL1        -0.1921
      11    H5      20.771331   18.693959   20.286825 H          1 MOL1         0.0712
      12    H6      19.682029   17.530472   21.046834 H          1 MOL1         0.0712
      13    C5      21.732173   17.408682   21.747587 C.3        1 MOL1        -0.2936
      14    H7      21.497431   16.892972   22.688018 H          1 MOL1         0.0724
      15    H8      22.594772   18.065058   21.922418 H          1 MOL1         0.0724
      16    H9      22.026858   16.650946   21.009924 H          1 MOL1         0.0724
@<TRIPOS>BOND
    1     1     2    1
    2     1     3    2
    3     1     4    1
    4     4     5    1
    5     4     6    1
    6     4     7    1
    7     7     8    1
    8     7     9    1
    9     7    10    1
   10    10    11    1
   11    10    12    1
   12    10    13    1
   13    13    14    1
   14    13    15    1
   15    13    16    1
@<TRIPOS>SUBSTRUCTURE
       1 MOL1            1 RESIDUE      1      MOL     
@<SCITEGIC>MOL_PROPERTY
VConf Rank
SciTegic.value.IntegerValue
902

@<SCITEGIC>MOL_PROPERTY
Conf_Id
SciTegic.value.IntegerValue
22

@<SCITEGIC>MOL_PROPERTY
Delta U+W
SciTegic.value.DoubleValue
-1.185

@<SCITEGIC>MOL_PROPERTY
U+W
SciTegic.value.DoubleValue
-58.089

@<SCITEGIC>MOL_PROPERTY
Grad RMS
SciTegic.value.DoubleValue
0.000000

@<SCITEGIC>MOL_PROPERTY
U
SciTegic.value.DoubleValue
6.298

@<SCITEGIC>MOL_PROPERTY
W
SciTegic.value.DoubleValue
-64.387

@<SCITEGIC>MOL_PROPERTY
W(PB)
SciTegic.value.DoubleValue
-66.329

@<SCITEGIC>MOL_PROPERTY
W(SA)
SciTegic.value.DoubleValue
1.942

@<SCITEGIC>MOL_PROPERTY
Valence
SciTegic.value.DoubleValue
6.246

@<SCITEGIC>MOL_PROPERTY
Coulomb
SciTegic.value.DoubleValue
-0.408

@<SCITEGIC>MOL_PROPERTY
VdW
SciTegic.value.DoubleValue
0.460

@<SCITEGIC>MOL_PROPERTY
VdW6
SciTegic.value.DoubleValue
-4.207

@<SCITEGIC>MOL_PROPERTY
VdW12
SciTegic.value.DoubleValue
4.667

@<SCITEGIC>MOL_PROPERTY
Bond
SciTegic.value.DoubleValue
0.072

@<SCITEGIC>MOL_PROPERTY
Angle
SciTegic.value.DoubleValue
2.246

@<SCITEGIC>MOL_PROPERTY
Pdih
SciTegic.value.DoubleValue
3.928

@<SCITEGIC>MOL_PROPERTY
Idih
SciTegic.value.DoubleValue
0.001

@<SCITEGIC>MOL_PROPERTY
Tether
SciTegic.value.DoubleValue
0.000

@<TRIPOS>MOLECULE
guest-s18_confgen4.mol2 : confsearch ligand conformer 903
          16          15           1
SMALL
USER_CHARGES
 
@<TRIPOS>ATOM
       1    C1      21.728034   17.391496   22.704492 C.2        1 MOL1         0.6075
       2    O1      21.452325   16.443754   23.412846 O.co2      1 MOL1        -0.6830
       3    O2      22.856028   17.821143   22.566691 O.co2      1 MOL1        -0.6830
       4    C2      20.593884   18.091795   21.964319 C.3        1 MOL1        -0.2050
       5    H1      19.832906   17.341299   21.718890 H          1 MOL1         0.0710
       6    H2      20.995604   18.469288   21.017093 H          1 MOL1         0.0710
       7    C3      19.961466   19.244896   22.786146 C.3        1 MOL1        -0.1947
       8    H3      19.647873   18.851616   23.763089 H          1 MOL1         0.0712
       9    H4      20.722833   20.010624   22.989346 H          1 MOL1         0.0712
      10    C4      18.739326   19.893803   22.096433 C.3        1 MOL1        -0.1921
      11    H5      18.288136   20.619579   22.787074 H          1 MOL1         0.0712
      12    H6      17.972924   19.130331   21.903770 H          1 MOL1         0.0712
      13    C5      19.095866   20.615434   20.779216 C.3        1 MOL1        -0.2936
      14    H7      19.445830   19.908362   20.016749 H          1 MOL1         0.0724
      15    H8      19.881883   21.364415   20.941868 H          1 MOL1         0.0724
      16    H9      18.215798   21.131738   20.374347 H          1 MOL1         0.0724
@<TRIPOS>BOND
    1     1     2    1
    2     1     3    2
    3     1     4    1
    4     4     5    1
    5     4     6    1
    6     4     7    1
    7     7     8    1
    8     7     9    1
    9     7    10    1
   10    10    11    1
   11    10    12    1
   12    10    13    1
   13    13    14    1
   14    13    15    1
   15    13    16    1
@<TRIPOS>SUBSTRUCTURE
       1 MOL1            1 RESIDUE      1      MOL     
@<SCITEGIC>MOL_PROPERTY
VConf Rank
SciTegic.value.IntegerValue
903

@<SCITEGIC>MOL_PROPERTY
Conf_Id
SciTegic.value.IntegerValue
36

@<SCITEGIC>MOL_PROPERTY
Delta U+W
SciTegic.value.DoubleValue
-0.427

@<SCITEGIC>MOL_PROPERTY
U+W
SciTegic.value.DoubleValue
-57.331

@<SCITEGIC>MOL_PROPERTY
Grad RMS
SciTegic.value.DoubleValue
0.000000

@<SCITEGIC>MOL_PROPERTY
U
SciTegic.value.DoubleValue
7.263

@<SCITEGIC>MOL_PROPERTY
W
SciTegic.value.DoubleValue
-64.594

@<SCITEGIC>MOL_PROPERTY
W(PB)
SciTegic.value.DoubleValue
-66.513

@<SCITEGIC>MOL_PROPERTY
W(SA)
SciTegic.value.DoubleValue
1.920

@<SCITEGIC>MOL_PROPERTY
Valence
SciTegic.value.DoubleValue
6.734

@<SCITEGIC>MOL_PROPERTY
Coulomb
SciTegic.value.DoubleValue
-0.068

@<SCITEGIC>MOL_PROPERTY
VdW
SciTegic.value.DoubleValue
0.598

@<SCITEGIC>MOL_PROPERTY
VdW6
SciTegic.value.DoubleValue
-4.819

@<SCITEGIC>MOL_PROPERTY
VdW12
SciTegic.value.DoubleValue
5.417

@<SCITEGIC>MOL_PROPERTY
Bond
SciTegic.value.DoubleValue
0.107

@<SCITEGIC>MOL_PROPERTY
Angle
SciTegic.value.DoubleValue
2.469

@<SCITEGIC>MOL_PROPERTY
Pdih
SciTegic.value.DoubleValue
4.157

@<SCITEGIC>MOL_PROPERTY
Idih
SciTegic.value.DoubleValue
0.001

@<SCITEGIC>MOL_PROPERTY
Tether
SciTegic.value.DoubleValue
0.000

@<TRIPOS>MOLECULE
guest-s18_confgen4.mol2 : confsearch ligand conformer 904
          16          15           1
SMALL
USER_CHARGES
 
@<TRIPOS>ATOM
       1    C1      17.780894   17.768796   21.771621 C.2        1 MOL1         0.6075
       2    O1      16.835917   18.368642   22.244020 O.co2      1 MOL1        -0.6830
       3    O2      17.783334   16.570560   21.571072 O.co2      1 MOL1        -0.6830
       4    C2      19.039404   18.558960   21.430498 C.3        1 MOL1        -0.2050
       5    H1      18.729468   19.561882   21.115531 H          1 MOL1         0.0710
       6    H2      19.518435   18.080579   20.567800 H          1 MOL1         0.0710
       7    C3      20.035764   18.643653   22.615862 C.3        1 MOL1        -0.1947
       8    H3      19.559099   19.162488   23.459017 H          1 MOL1         0.0712
       9    H4      20.258469   17.625328   22.963492 H          1 MOL1         0.0712
      10    C4      21.364399   19.346602   22.253924 C.3        1 MOL1        -0.1921
      11    H5      21.847021   18.820905   21.418401 H          1 MOL1         0.0712
      12    H6      22.050261   19.267149   23.108669 H          1 MOL1         0.0712
      13    C5      21.186263   20.837525   21.895669 C.3        1 MOL1        -0.2936
      14    H7      20.598834   20.961769   20.977370 H          1 MOL1         0.0724
      15    H8      22.162545   21.312006   21.732120 H          1 MOL1         0.0724
      16    H9      20.679183   21.378296   22.705414 H          1 MOL1         0.0724
@<TRIPOS>BOND
    1     1     2    1
    2     1     3    2
    3     1     4    1
    4     4     5    1
    5     4     6    1
    6     4     7    1
    7     7     8    1
    8     7     9    1
    9     7    10    1
   10    10    11    1
   11    10    12    1
   12    10    13    1
   13    13    14    1
   14    13    15    1
   15    13    16    1
@<TRIPOS>SUBSTRUCTURE
       1 MOL1            1 RESIDUE      1      MOL     
@<SCITEGIC>MOL_PROPERTY
VConf Rank
SciTegic.value.IntegerValue
904

@<SCITEGIC>MOL_PROPERTY
Conf_Id
SciTegic.value.IntegerValue
17

@<SCITEGIC>MOL_PROPERTY
Delta U+W
SciTegic.value.DoubleValue
-0.432

@<SCITEGIC>MOL_PROPERTY
U+W
SciTegic.value.DoubleValue
-57.336

@<SCITEGIC>MOL_PROPERTY
Grad RMS
SciTegic.value.DoubleValue
0.000000

@<SCITEGIC>MOL_PROPERTY
U
SciTegic.value.DoubleValue
7.263

@<SCITEGIC>MOL_PROPERTY
W
SciTegic.value.DoubleValue
-64.599

@<SCITEGIC>MOL_PROPERTY
W(PB)
SciTegic.value.DoubleValue
-66.503

@<SCITEGIC>MOL_PROPERTY
W(SA)
SciTegic.value.DoubleValue
1.904

@<SCITEGIC>MOL_PROPERTY
Valence
SciTegic.value.DoubleValue
6.734

@<SCITEGIC>MOL_PROPERTY
Coulomb
SciTegic.value.DoubleValue
-0.068

@<SCITEGIC>MOL_PROPERTY
VdW
SciTegic.value.DoubleValue
0.598

@<SCITEGIC>MOL_PROPERTY
VdW6
SciTegic.value.DoubleValue
-4.819

@<SCITEGIC>MOL_PROPERTY
VdW12
SciTegic.value.DoubleValue
5.417

@<SCITEGIC>MOL_PROPERTY
Bond
SciTegic.value.DoubleValue
0.107

@<SCITEGIC>MOL_PROPERTY
Angle
SciTegic.value.DoubleValue
2.469

@<SCITEGIC>MOL_PROPERTY
Pdih
SciTegic.value.DoubleValue
4.157

@<SCITEGIC>MOL_PROPERTY
Idih
SciTegic.value.DoubleValue
0.001

@<SCITEGIC>MOL_PROPERTY
Tether
SciTegic.value.DoubleValue
0.000

@<TRIPOS>MOLECULE
guest-s18_confgen4.mol2 : confsearch ligand conformer 905
          16          15           1
SMALL
USER_CHARGES
 
@<TRIPOS>ATOM
       1    C1      22.450078   19.427868   22.498554 C.2        1 MOL1         0.6075
       2    O1      22.729250   20.517267   22.958569 O.co2      1 MOL1        -0.6830
       3    O2      22.851987   18.379906   22.963858 O.co2      1 MOL1        -0.6830
       4    C2      21.566497   19.376564   21.255113 C.3        1 MOL1        -0.2050
       5    H1      21.693813   18.398793   20.774657 H          1 MOL1         0.0710
       6    H2      21.945957   20.127165   20.551663 H          1 MOL1         0.0710
       7    C3      20.064714   19.643242   21.535407 C.3        1 MOL1        -0.1947
       8    H3      19.955283   20.612237   22.042060 H          1 MOL1         0.0712
       9    H4      19.532527   19.725172   20.578002 H          1 MOL1         0.0712
      10    C4      19.412881   18.531728   22.386190 C.3        1 MOL1        -0.1921
      11    H5      19.924625   18.454419   23.355657 H          1 MOL1         0.0712
      12    H6      19.533979   17.561746   21.884347 H          1 MOL1         0.0712
      13    C5      17.913910   18.804059   22.621278 C.3        1 MOL1        -0.2936
      14    H7      17.766015   19.754890   23.149954 H          1 MOL1         0.0724
      15    H8      17.466470   18.005866   23.227744 H          1 MOL1         0.0724
      16    H9      17.369115   18.852358   21.669289 H          1 MOL1         0.0724
@<TRIPOS>BOND
    1     1     2    1
    2     1     3    2
    3     1     4    1
    4     4     5    1
    5     4     6    1
    6     4     7    1
    7     7     8    1
    8     7     9    1
    9     7    10    1
   10    10    11    1
   11    10    12    1
   12    10    13    1
   13    13    14    1
   14    13    15    1
   15    13    16    1
@<TRIPOS>SUBSTRUCTURE
       1 MOL1            1 RESIDUE      1      MOL     
@<SCITEGIC>MOL_PROPERTY
VConf Rank
SciTegic.value.IntegerValue
905

@<SCITEGIC>MOL_PROPERTY
Conf_Id
SciTegic.value.IntegerValue
19

@<SCITEGIC>MOL_PROPERTY
Delta U+W
SciTegic.value.DoubleValue
0.048

@<SCITEGIC>MOL_PROPERTY
U+W
SciTegic.value.DoubleValue
-56.856

@<SCITEGIC>MOL_PROPERTY
Grad RMS
SciTegic.value.DoubleValue
0.000000

@<SCITEGIC>MOL_PROPERTY
U
SciTegic.value.DoubleValue
8.276

@<SCITEGIC>MOL_PROPERTY
W
SciTegic.value.DoubleValue
-65.132

@<SCITEGIC>MOL_PROPERTY
W(PB)
SciTegic.value.DoubleValue
-67.031

@<SCITEGIC>MOL_PROPERTY
W(SA)
SciTegic.value.DoubleValue
1.899

@<SCITEGIC>MOL_PROPERTY
Valence
SciTegic.value.DoubleValue
6.513

@<SCITEGIC>MOL_PROPERTY
Coulomb
SciTegic.value.DoubleValue
1.428

@<SCITEGIC>MOL_PROPERTY
VdW
SciTegic.value.DoubleValue
0.335

@<SCITEGIC>MOL_PROPERTY
VdW6
SciTegic.value.DoubleValue
-5.021

@<SCITEGIC>MOL_PROPERTY
VdW12
SciTegic.value.DoubleValue
5.356

@<SCITEGIC>MOL_PROPERTY
Bond
SciTegic.value.DoubleValue
0.092

@<SCITEGIC>MOL_PROPERTY
Angle
SciTegic.value.DoubleValue
2.417

@<SCITEGIC>MOL_PROPERTY
Pdih
SciTegic.value.DoubleValue
4.003

@<SCITEGIC>MOL_PROPERTY
Idih
SciTegic.value.DoubleValue
0.001

@<SCITEGIC>MOL_PROPERTY
Tether
SciTegic.value.DoubleValue
0.000

@<TRIPOS>MOLECULE
guest-s18_confgen4.mol2 : confsearch ligand conformer 906
          16          15           1
SMALL
USER_CHARGES
 
@<TRIPOS>ATOM
       1    C1      20.506453   20.839301   20.547931 C.2        1 MOL1         0.6075
       2    O1      21.179187   20.421168   19.626554 O.co2      1 MOL1        -0.6830
       3    O2      20.803725   21.815959   21.206742 O.co2      1 MOL1        -0.6830
       4    C2      19.206666   20.110843   20.878690 C.3        1 MOL1        -0.2050
       5    H1      18.685629   19.923242   19.932348 H          1 MOL1         0.0710
       6    H2      18.567618   20.782627   21.464701 H          1 MOL1         0.0710
       7    C3      19.407405   18.770689   21.632836 C.3        1 MOL1        -0.1947
       8    H3      18.440891   18.253669   21.704244 H          1 MOL1         0.0712
       9    H4      20.071933   18.119650   21.047880 H          1 MOL1         0.0712
      10    C4      19.984662   18.968114   23.051282 C.3        1 MOL1        -0.1921
      11    H5      19.325604   19.629198   23.630928 H          1 MOL1         0.0712
      12    H6      20.962153   19.466711   22.990979 H          1 MOL1         0.0712
      13    C5      20.142435   17.624607   23.790502 C.3        1 MOL1        -0.2936
      14    H7      19.174069   17.118229   23.896628 H          1 MOL1         0.0724
      15    H8      20.554312   17.782536   24.795754 H          1 MOL1         0.0724
      16    H9      20.822056   16.955134   23.247019 H          1 MOL1         0.0724
@<TRIPOS>BOND
    1     1     2    1
    2     1     3    2
    3     1     4    1
    4     4     5    1
    5     4     6    1
    6     4     7    1
    7     7     8    1
    8     7     9    1
    9     7    10    1
   10    10    11    1
   11    10    12    1
   12    10    13    1
   13    13    14    1
   14    13    15    1
   15    13    16    1
@<TRIPOS>SUBSTRUCTURE
       1 MOL1            1 RESIDUE      1      MOL     
@<SCITEGIC>MOL_PROPERTY
VConf Rank
SciTegic.value.IntegerValue
906

@<SCITEGIC>MOL_PROPERTY
Conf_Id
SciTegic.value.IntegerValue
20

@<SCITEGIC>MOL_PROPERTY
Delta U+W
SciTegic.value.DoubleValue
-0.010

@<SCITEGIC>MOL_PROPERTY
U+W
SciTegic.value.DoubleValue
-56.914

@<SCITEGIC>MOL_PROPERTY
Grad RMS
SciTegic.value.DoubleValue
0.000000

@<SCITEGIC>MOL_PROPERTY
U
SciTegic.value.DoubleValue
8.277

@<SCITEGIC>MOL_PROPERTY
W
SciTegic.value.DoubleValue
-65.191

@<SCITEGIC>MOL_PROPERTY
W(PB)
SciTegic.value.DoubleValue
-67.081

@<SCITEGIC>MOL_PROPERTY
W(SA)
SciTegic.value.DoubleValue
1.890

@<SCITEGIC>MOL_PROPERTY
Valence
SciTegic.value.DoubleValue
6.513

@<SCITEGIC>MOL_PROPERTY
Coulomb
SciTegic.value.DoubleValue
1.429

@<SCITEGIC>MOL_PROPERTY
VdW
SciTegic.value.DoubleValue
0.335

@<SCITEGIC>MOL_PROPERTY
VdW6
SciTegic.value.DoubleValue
-5.021

@<SCITEGIC>MOL_PROPERTY
VdW12
SciTegic.value.DoubleValue
5.356

@<SCITEGIC>MOL_PROPERTY
Bond
SciTegic.value.DoubleValue
0.092

@<SCITEGIC>MOL_PROPERTY
Angle
SciTegic.value.DoubleValue
2.417

@<SCITEGIC>MOL_PROPERTY
Pdih
SciTegic.value.DoubleValue
4.002

@<SCITEGIC>MOL_PROPERTY
Idih
SciTegic.value.DoubleValue
0.001

@<SCITEGIC>MOL_PROPERTY
Tether
SciTegic.value.DoubleValue
0.000

@<TRIPOS>MOLECULE
guest-s18_confgen4.mol2 : confsearch ligand conformer 907
          16          15           1
SMALL
USER_CHARGES
 
@<TRIPOS>ATOM
       1    C1      21.809779   18.816405   21.330139 C.2        1 MOL1         0.6075
       2    O1      21.981441   18.318864   20.234798 O.co2      1 MOL1        -0.6830
       3    O2      22.424297   18.479961   22.322849 O.co2      1 MOL1        -0.6830
       4    C2      20.792017   19.946970   21.455553 C.3        1 MOL1        -0.2050
       5    H1      21.019197   20.677957   20.670742 H          1 MOL1         0.0710
       6    H2      20.950832   20.459031   22.411491 H          1 MOL1         0.0710
       7    C3      19.313817   19.490124   21.318104 C.3        1 MOL1        -0.1947
       8    H3      18.660544   20.372800   21.340223 H          1 MOL1         0.0712
       9    H4      19.177126   19.030507   20.329457 H          1 MOL1         0.0712
      10    C4      18.852417   18.488194   22.403110 C.3        1 MOL1        -0.1921
      11    H5      19.476849   17.584607   22.368269 H          1 MOL1         0.0712
      12    H6      17.828096   18.165125   22.171762 H          1 MOL1         0.0712
      13    C5      18.877941   19.079985   23.828443 C.3        1 MOL1        -0.2936
      14    H7      19.903753   19.303231   24.148378 H          1 MOL1         0.0724
      15    H8      18.454219   18.366962   24.547412 H          1 MOL1         0.0724
      16    H9      18.289275   20.005025   23.881732 H          1 MOL1         0.0724
@<TRIPOS>BOND
    1     1     2    1
    2     1     3    2
    3     1     4    1
    4     4     5    1
    5     4     6    1
    6     4     7    1
    7     7     8    1
    8     7     9    1
    9     7    10    1
   10    10    11    1
   11    10    12    1
   12    10    13    1
   13    13    14    1
   14    13    15    1
   15    13    16    1
@<TRIPOS>SUBSTRUCTURE
       1 MOL1            1 RESIDUE      1      MOL     
@<SCITEGIC>MOL_PROPERTY
VConf Rank
SciTegic.value.IntegerValue
907

@<SCITEGIC>MOL_PROPERTY
Conf_Id
SciTegic.value.IntegerValue
37

@<SCITEGIC>MOL_PROPERTY
Delta U+W
SciTegic.value.DoubleValue
1.063

@<SCITEGIC>MOL_PROPERTY
U+W
SciTegic.value.DoubleValue
-55.841

@<SCITEGIC>MOL_PROPERTY
Grad RMS
SciTegic.value.DoubleValue
0.000000

@<SCITEGIC>MOL_PROPERTY
U
SciTegic.value.DoubleValue
9.719

@<SCITEGIC>MOL_PROPERTY
W
SciTegic.value.DoubleValue
-65.560

@<SCITEGIC>MOL_PROPERTY
W(PB)
SciTegic.value.DoubleValue
-67.414

@<SCITEGIC>MOL_PROPERTY
W(SA)
SciTegic.value.DoubleValue
1.854

@<SCITEGIC>MOL_PROPERTY
Valence
SciTegic.value.DoubleValue
7.002

@<SCITEGIC>MOL_PROPERTY
Coulomb
SciTegic.value.DoubleValue
2.402

@<SCITEGIC>MOL_PROPERTY
VdW
SciTegic.value.DoubleValue
0.314

@<SCITEGIC>MOL_PROPERTY
VdW6
SciTegic.value.DoubleValue
-5.861

@<SCITEGIC>MOL_PROPERTY
VdW12
SciTegic.value.DoubleValue
6.175

@<SCITEGIC>MOL_PROPERTY
Bond
SciTegic.value.DoubleValue
0.134

@<SCITEGIC>MOL_PROPERTY
Angle
SciTegic.value.DoubleValue
2.733

@<SCITEGIC>MOL_PROPERTY
Pdih
SciTegic.value.DoubleValue
4.133

@<SCITEGIC>MOL_PROPERTY
Idih
SciTegic.value.DoubleValue
0.002

@<SCITEGIC>MOL_PROPERTY
Tether
SciTegic.value.DoubleValue
0.000

@<TRIPOS>MOLECULE
guest-s18_confgen4.mol2 : confsearch ligand conformer 908
          16          15           1
SMALL
USER_CHARGES
 
@<TRIPOS>ATOM
       1    C1      22.086727   19.125594   23.077146 C.2        1 MOL1         0.6075
       2    O1      22.478751   18.232499   23.802048 O.co2      1 MOL1        -0.6830
       3    O2      22.751309   19.598189   22.176432 O.co2      1 MOL1        -0.6830
       4    C2      20.699059   19.706086   23.336289 C.3        1 MOL1        -0.2050
       5    H1      20.608761   20.656184   22.797394 H          1 MOL1         0.0710
       6    H2      20.641843   19.948514   24.403921 H          1 MOL1         0.0710
       7    C3      19.531009   18.752296   22.963969 C.3        1 MOL1        -0.1947
       8    H3      19.621693   17.833945   23.560428 H          1 MOL1         0.0712
       9    H4      18.579637   19.216703   23.256526 H          1 MOL1         0.0712
      10    C4      19.471723   18.371174   21.465562 C.3        1 MOL1        -0.1921
      11    H5      18.669380   17.634701   21.320710 H          1 MOL1         0.0712
      12    H6      20.405400   17.873585   21.168496 H          1 MOL1         0.0712
      13    C5      19.212082   19.578895   20.540123 C.3        1 MOL1        -0.2936
      14    H7      18.301986   20.115442   20.838297 H          1 MOL1         0.0724
      15    H8      19.084307   19.246092   19.501963 H          1 MOL1         0.0724
      16    H9      20.052634   20.284249   20.560994 H          1 MOL1         0.0724
@<TRIPOS>BOND
    1     1     2    1
    2     1     3    2
    3     1     4    1
    4     4     5    1
    5     4     6    1
    6     4     7    1
    7     7     8    1
    8     7     9    1
    9     7    10    1
   10    10    11    1
   11    10    12    1
   12    10    13    1
   13    13    14    1
   14    13    15    1
   15    13    16    1
@<TRIPOS>SUBSTRUCTURE
       1 MOL1            1 RESIDUE      1      MOL     
@<SCITEGIC>MOL_PROPERTY
VConf Rank
SciTegic.value.IntegerValue
908

@<SCITEGIC>MOL_PROPERTY
Conf_Id
SciTegic.value.IntegerValue
39

@<SCITEGIC>MOL_PROPERTY
Delta U+W
SciTegic.value.DoubleValue
1.129

@<SCITEGIC>MOL_PROPERTY
U+W
SciTegic.value.DoubleValue
-55.775

@<SCITEGIC>MOL_PROPERTY
Grad RMS
SciTegic.value.DoubleValue
0.000000

@<SCITEGIC>MOL_PROPERTY
U
SciTegic.value.DoubleValue
9.718

@<SCITEGIC>MOL_PROPERTY
W
SciTegic.value.DoubleValue
-65.493

@<SCITEGIC>MOL_PROPERTY
W(PB)
SciTegic.value.DoubleValue
-67.361

@<SCITEGIC>MOL_PROPERTY
W(SA)
SciTegic.value.DoubleValue
1.869

@<SCITEGIC>MOL_PROPERTY
Valence
SciTegic.value.DoubleValue
7.002

@<SCITEGIC>MOL_PROPERTY
Coulomb
SciTegic.value.DoubleValue
2.402

@<SCITEGIC>MOL_PROPERTY
VdW
SciTegic.value.DoubleValue
0.314

@<SCITEGIC>MOL_PROPERTY
VdW6
SciTegic.value.DoubleValue
-5.861

@<SCITEGIC>MOL_PROPERTY
VdW12
SciTegic.value.DoubleValue
6.175

@<SCITEGIC>MOL_PROPERTY
Bond
SciTegic.value.DoubleValue
0.134

@<SCITEGIC>MOL_PROPERTY
Angle
SciTegic.value.DoubleValue
2.734

@<SCITEGIC>MOL_PROPERTY
Pdih
SciTegic.value.DoubleValue
4.133

@<SCITEGIC>MOL_PROPERTY
Idih
SciTegic.value.DoubleValue
0.002

@<SCITEGIC>MOL_PROPERTY
Tether
SciTegic.value.DoubleValue
0.000

@<TRIPOS>MOLECULE
guest-s18_confgen4.mol2 : confsearch ligand conformer 909
          16          15           1
SMALL
USER_CHARGES
 
@<TRIPOS>ATOM
       1    C1      20.446871   17.252034   21.687495 C.2        1 MOL1         0.6075
       2    O1      19.480870   16.529984   21.538148 O.co2      1 MOL1        -0.6830
       3    O2      21.435614   16.924944   22.314038 O.co2      1 MOL1        -0.6830
       4    C2      20.453699   18.603573   20.975489 C.3        1 MOL1        -0.2050
       5    H1      19.528389   18.706101   20.395602 H          1 MOL1         0.0710
       6    H2      21.275152   18.566524   20.250511 H          1 MOL1         0.0710
       7    C3      20.650067   19.839518   21.897911 C.3        1 MOL1        -0.1947
       8    H3      21.456061   19.644422   22.618918 H          1 MOL1         0.0712
       9    H4      20.996700   20.675423   21.275368 H          1 MOL1         0.0712
      10    C4      19.373286   20.302039   22.640519 C.3        1 MOL1        -0.1921
      11    H5      18.569477   20.494120   21.916483 H          1 MOL1         0.0712
      12    H6      19.584611   21.263348   23.128905 H          1 MOL1         0.0712
      13    C5      18.879979   19.307588   23.711967 C.3        1 MOL1        -0.2936
      14    H7      18.499683   18.385338   23.256085 H          1 MOL1         0.0724
      15    H8      18.062190   19.747870   24.296897 H          1 MOL1         0.0724
      16    H9      19.688639   19.041994   24.405406 H          1 MOL1         0.0724
@<TRIPOS>BOND
    1     1     2    1
    2     1     3    2
    3     1     4    1
    4     4     5    1
    5     4     6    1
    6     4     7    1
    7     7     8    1
    8     7     9    1
    9     7    10    1
   10    10    11    1
   11    10    12    1
   12    10    13    1
   13    13    14    1
   14    13    15    1
   15    13    16    1
@<TRIPOS>SUBSTRUCTURE
       1 MOL1            1 RESIDUE      1      MOL     
@<SCITEGIC>MOL_PROPERTY
VConf Rank
SciTegic.value.IntegerValue
909

@<SCITEGIC>MOL_PROPERTY
Conf_Id
SciTegic.value.IntegerValue
47

@<SCITEGIC>MOL_PROPERTY
Delta U+W
SciTegic.value.DoubleValue
2.301

@<SCITEGIC>MOL_PROPERTY
U+W
SciTegic.value.DoubleValue
-54.603

@<SCITEGIC>MOL_PROPERTY
Grad RMS
SciTegic.value.DoubleValue
0.000000

@<SCITEGIC>MOL_PROPERTY
U
SciTegic.value.DoubleValue
11.258

@<SCITEGIC>MOL_PROPERTY
W
SciTegic.value.DoubleValue
-65.861

@<SCITEGIC>MOL_PROPERTY
W(PB)
SciTegic.value.DoubleValue
-67.702

@<SCITEGIC>MOL_PROPERTY
W(SA)
SciTegic.value.DoubleValue
1.841

@<SCITEGIC>MOL_PROPERTY
Valence
SciTegic.value.DoubleValue
8.169

@<SCITEGIC>MOL_PROPERTY
Coulomb
SciTegic.value.DoubleValue
2.735

@<SCITEGIC>MOL_PROPERTY
VdW
SciTegic.value.DoubleValue
0.355

@<SCITEGIC>MOL_PROPERTY
VdW6
SciTegic.value.DoubleValue
-6.245

@<SCITEGIC>MOL_PROPERTY
VdW12
SciTegic.value.DoubleValue
6.600

@<SCITEGIC>MOL_PROPERTY
Bond
SciTegic.value.DoubleValue
0.149

@<SCITEGIC>MOL_PROPERTY
Angle
SciTegic.value.DoubleValue
3.168

@<SCITEGIC>MOL_PROPERTY
Pdih
SciTegic.value.DoubleValue
4.840

@<SCITEGIC>MOL_PROPERTY
Idih
SciTegic.value.DoubleValue
0.011

@<SCITEGIC>MOL_PROPERTY
Tether
SciTegic.value.DoubleValue
0.000

@<TRIPOS>MOLECULE
guest-s18_confgen4.mol2 : confsearch ligand conformer 910
          16          15           1
SMALL
USER_CHARGES
 
@<TRIPOS>ATOM
       1    C1      19.022469   17.558499   23.179985 C.2        1 MOL1         0.6075
       2    O1      19.239873   17.642356   24.372822 O.co2      1 MOL1        -0.6830
       3    O2      19.175330   16.534981   22.542911 O.co2      1 MOL1        -0.6830
       4    C2      18.442024   18.775218   22.461412 C.3        1 MOL1        -0.2050
       5    H1      17.474112   18.980028   22.933587 H          1 MOL1         0.0710
       6    H2      18.231610   18.507170   21.418889 H          1 MOL1         0.0710
       7    C3      19.314478   20.060637   22.520647 C.3        1 MOL1        -0.1947
       8    H3      18.665122   20.921049   22.309738 H          1 MOL1         0.0712
       9    H4      19.692696   20.209815   23.541548 H          1 MOL1         0.0712
      10    C4      20.486000   20.094650   21.509736 C.3        1 MOL1        -0.1921
      11    H5      20.930117   21.099524   21.526534 H          1 MOL1         0.0712
      12    H6      20.103983   19.943334   20.490717 H          1 MOL1         0.0712
      13    C5      21.595891   19.064822   21.806183 C.3        1 MOL1        -0.2936
      14    H7      22.457665   19.228511   21.146396 H          1 MOL1         0.0724
      15    H8      21.243945   18.039338   21.640300 H          1 MOL1         0.0724
      16    H9      21.942841   19.147084   22.844541 H          1 MOL1         0.0724
@<TRIPOS>BOND
    1     1     2    1
    2     1     3    2
    3     1     4    1
    4     4     5    1
    5     4     6    1
    6     4     7    1
    7     7     8    1
    8     7     9    1
    9     7    10    1
   10    10    11    1
   11    10    12    1
   12    10    13    1
   13    13    14    1
   14    13    15    1
   15    13    16    1
@<TRIPOS>SUBSTRUCTURE
       1 MOL1            1 RESIDUE      1      MOL     
@<SCITEGIC>MOL_PROPERTY
VConf Rank
SciTegic.value.IntegerValue
910

@<SCITEGIC>MOL_PROPERTY
Conf_Id
SciTegic.value.IntegerValue
45

@<SCITEGIC>MOL_PROPERTY
Delta U+W
SciTegic.value.DoubleValue
2.303

@<SCITEGIC>MOL_PROPERTY
U+W
SciTegic.value.DoubleValue
-54.601

@<SCITEGIC>MOL_PROPERTY
Grad RMS
SciTegic.value.DoubleValue
0.000000

@<SCITEGIC>MOL_PROPERTY
U
SciTegic.value.DoubleValue
11.258

@<SCITEGIC>MOL_PROPERTY
W
SciTegic.value.DoubleValue
-65.860

@<SCITEGIC>MOL_PROPERTY
W(PB)
SciTegic.value.DoubleValue
-67.709

@<SCITEGIC>MOL_PROPERTY
W(SA)
SciTegic.value.DoubleValue
1.849

@<SCITEGIC>MOL_PROPERTY
Valence
SciTegic.value.DoubleValue
8.169

@<SCITEGIC>MOL_PROPERTY
Coulomb
SciTegic.value.DoubleValue
2.735

@<SCITEGIC>MOL_PROPERTY
VdW
SciTegic.value.DoubleValue
0.355

@<SCITEGIC>MOL_PROPERTY
VdW6
SciTegic.value.DoubleValue
-6.245

@<SCITEGIC>MOL_PROPERTY
VdW12
SciTegic.value.DoubleValue
6.600

@<SCITEGIC>MOL_PROPERTY
Bond
SciTegic.value.DoubleValue
0.149

@<SCITEGIC>MOL_PROPERTY
Angle
SciTegic.value.DoubleValue
3.168

@<SCITEGIC>MOL_PROPERTY
Pdih
SciTegic.value.DoubleValue
4.840

@<SCITEGIC>MOL_PROPERTY
Idih
SciTegic.value.DoubleValue
0.011

@<SCITEGIC>MOL_PROPERTY
Tether
SciTegic.value.DoubleValue
0.000

@<TRIPOS>MOLECULE
guest-s18_confgen4.mol2 : confsearch ligand conformer 911
          16          15           1
SMALL
USER_CHARGES
 
@<TRIPOS>ATOM
       1    C1      19.331859   20.144855   24.403204 C.2        1 MOL1         0.6075
       2    O1      20.471188   20.121043   24.826452 O.co2      1 MOL1        -0.6830
       3    O2      18.389251   20.537900   25.060714 O.co2      1 MOL1        -0.6830
       4    C2      19.039039   19.663960   22.980921 C.3        1 MOL1        -0.2050
       5    H1      18.559004   20.492932   22.447505 H          1 MOL1         0.0710
       6    H2      18.299052   18.858181   23.053745 H          1 MOL1         0.0710
       7    C3      20.273170   19.170601   22.179757 C.3        1 MOL1        -0.1947
       8    H3      21.013236   19.980264   22.114813 H          1 MOL1         0.0712
       9    H4      20.753002   18.343823   22.721669 H          1 MOL1         0.0712
      10    C4      19.886765   18.705559   20.760008 C.3        1 MOL1        -0.1921
      11    H5      19.408358   19.532033   20.216347 H          1 MOL1         0.0712
      12    H6      19.147966   17.894611   20.823554 H          1 MOL1         0.0712
      13    C5      21.116484   18.216822   19.969395 C.3        1 MOL1        -0.2936
      14    H7      21.859218   19.018437   19.863424 H          1 MOL1         0.0724
      15    H8      20.824428   17.890026   18.962891 H          1 MOL1         0.0724
      16    H9      21.596908   17.368932   20.475106 H          1 MOL1         0.0724
@<TRIPOS>BOND
    1     1     2    1
    2     1     3    2
    3     1     4    1
    4     4     5    1
    5     4     6    1
    6     4     7    1
    7     7     8    1
    8     7     9    1
    9     7    10    1
   10    10    11    1
   11    10    12    1
   12    10    13    1
   13    13    14    1
   14    13    15    1
   15    13    16    1
@<TRIPOS>SUBSTRUCTURE
       1 MOL1            1 RESIDUE      1      MOL     
@<SCITEGIC>MOL_PROPERTY
VConf Rank
SciTegic.value.IntegerValue
911

@<SCITEGIC>MOL_PROPERTY
Conf_Id
SciTegic.value.IntegerValue
0

@<SCITEGIC>MOL_PROPERTY
Delta U+W
SciTegic.value.DoubleValue
0.000

@<SCITEGIC>MOL_PROPERTY
U+W
SciTegic.value.DoubleValue
-56.904

@<SCITEGIC>MOL_PROPERTY
Grad RMS
SciTegic.value.DoubleValue
0.000000

@<SCITEGIC>MOL_PROPERTY
U
SciTegic.value.DoubleValue
7.329

@<SCITEGIC>MOL_PROPERTY
W
SciTegic.value.DoubleValue
-64.233

@<SCITEGIC>MOL_PROPERTY
W(PB)
SciTegic.value.DoubleValue
-66.148

@<SCITEGIC>MOL_PROPERTY
W(SA)
SciTegic.value.DoubleValue
1.915

@<SCITEGIC>MOL_PROPERTY
Valence
SciTegic.value.DoubleValue
6.755

@<SCITEGIC>MOL_PROPERTY
Coulomb
SciTegic.value.DoubleValue
-0.421

@<SCITEGIC>MOL_PROPERTY
VdW
SciTegic.value.DoubleValue
0.995

@<SCITEGIC>MOL_PROPERTY
VdW6
SciTegic.value.DoubleValue
-4.495

@<SCITEGIC>MOL_PROPERTY
VdW12
SciTegic.value.DoubleValue
5.490

@<SCITEGIC>MOL_PROPERTY
Bond
SciTegic.value.DoubleValue
0.106

@<SCITEGIC>MOL_PROPERTY
Angle
SciTegic.value.DoubleValue
2.715

@<SCITEGIC>MOL_PROPERTY
Pdih
SciTegic.value.DoubleValue
3.934

@<SCITEGIC>MOL_PROPERTY
Idih
SciTegic.value.DoubleValue
0.000

@<SCITEGIC>MOL_PROPERTY
Tether
SciTegic.value.DoubleValue
0.000

@<TRIPOS>MOLECULE
guest-s18_confgen4.mol2 : confsearch ligand conformer 912
          16          15           1
SMALL
USER_CHARGES
 
@<TRIPOS>ATOM
       1    C1      20.204815   16.417168   21.595708 C.2        1 MOL1         0.6075
       2    O1      20.529865   15.796157   22.587943 O.co2      1 MOL1        -0.6830
       3    O2      19.480047   15.968941   20.729887 O.co2      1 MOL1        -0.6830
       4    C2      20.719934   17.843401   21.437293 C.3        1 MOL1        -0.2050
       5    H1      20.847957   18.042815   20.366455 H          1 MOL1         0.0710
       6    H2      21.713397   17.900401   21.898413 H          1 MOL1         0.0710
       7    C3      19.777511   18.898124   22.067737 C.3        1 MOL1        -0.1947
       8    H3      18.784018   18.820244   21.604642 H          1 MOL1         0.0712
       9    H4      19.649438   18.677787   23.136662 H          1 MOL1         0.0712
      10    C4      20.321595   20.331383   21.893660 C.3        1 MOL1        -0.1921
      11    H5      20.449162   20.552348   20.824810 H          1 MOL1         0.0712
      12    H6      21.314830   20.409845   22.357196 H          1 MOL1         0.0712
      13    C5      19.378693   21.375619   22.523427 C.3        1 MOL1        -0.2936
      14    H7      19.257779   21.197007   23.599972 H          1 MOL1         0.0724
      15    H8      18.385709   21.340545   22.056282 H          1 MOL1         0.0724
      16    H9      19.779995   22.388808   22.390936 H          1 MOL1         0.0724
@<TRIPOS>BOND
    1     1     2    1
    2     1     3    2
    3     1     4    1
    4     4     5    1
    5     4     6    1
    6     4     7    1
    7     7     8    1
    8     7     9    1
    9     7    10    1
   10    10    11    1
   11    10    12    1
   12    10    13    1
   13    13    14    1
   14    13    15    1
   15    13    16    1
@<TRIPOS>SUBSTRUCTURE
       1 MOL1            1 RESIDUE      1      MOL     
@<SCITEGIC>MOL_PROPERTY
VConf Rank
SciTegic.value.IntegerValue
912

@<SCITEGIC>MOL_PROPERTY
Conf_Id
SciTegic.value.IntegerValue
22

@<SCITEGIC>MOL_PROPERTY
Delta U+W
SciTegic.value.DoubleValue
-1.185

@<SCITEGIC>MOL_PROPERTY
U+W
SciTegic.value.DoubleValue
-58.089

@<SCITEGIC>MOL_PROPERTY
Grad RMS
SciTegic.value.DoubleValue
0.000000

@<SCITEGIC>MOL_PROPERTY
U
SciTegic.value.DoubleValue
6.298

@<SCITEGIC>MOL_PROPERTY
W
SciTegic.value.DoubleValue
-64.387

@<SCITEGIC>MOL_PROPERTY
W(PB)
SciTegic.value.DoubleValue
-66.329

@<SCITEGIC>MOL_PROPERTY
W(SA)
SciTegic.value.DoubleValue
1.942

@<SCITEGIC>MOL_PROPERTY
Valence
SciTegic.value.DoubleValue
6.246

@<SCITEGIC>MOL_PROPERTY
Coulomb
SciTegic.value.DoubleValue
-0.408

@<SCITEGIC>MOL_PROPERTY
VdW
SciTegic.value.DoubleValue
0.460

@<SCITEGIC>MOL_PROPERTY
VdW6
SciTegic.value.DoubleValue
-4.207

@<SCITEGIC>MOL_PROPERTY
VdW12
SciTegic.value.DoubleValue
4.667

@<SCITEGIC>MOL_PROPERTY
Bond
SciTegic.value.DoubleValue
0.072

@<SCITEGIC>MOL_PROPERTY
Angle
SciTegic.value.DoubleValue
2.246

@<SCITEGIC>MOL_PROPERTY
Pdih
SciTegic.value.DoubleValue
3.928

@<SCITEGIC>MOL_PROPERTY
Idih
SciTegic.value.DoubleValue
0.001

@<SCITEGIC>MOL_PROPERTY
Tether
SciTegic.value.DoubleValue
0.000

@<TRIPOS>MOLECULE
guest-s18_confgen4.mol2 : confsearch ligand conformer 913
          16          15           1
SMALL
USER_CHARGES
 
@<TRIPOS>ATOM
       1    C1      21.089808   19.632610   24.268285 C.2        1 MOL1         0.6075
       2    O1      22.264112   19.929139   24.363541 O.co2      1 MOL1        -0.6830
       3    O2      20.434090   19.183081   25.186933 O.co2      1 MOL1        -0.6830
       4    C2      20.407747   19.815884   22.917072 C.3        1 MOL1        -0.2050
       5    H1      20.866958   20.677604   22.417943 H          1 MOL1         0.0710
       6    H2      19.358119   20.069764   23.104002 H          1 MOL1         0.0710
       7    C3      20.512013   18.558315   22.015606 C.3        1 MOL1        -0.1947
       8    H3      21.570537   18.279620   21.919251 H          1 MOL1         0.0712
       9    H4      20.011546   17.712531   22.507022 H          1 MOL1         0.0712
      10    C4      19.921916   18.764221   20.601464 C.3        1 MOL1        -0.1921
      11    H5      20.133218   17.871218   19.997141 H          1 MOL1         0.0712
      12    H6      20.430367   19.602528   20.105379 H          1 MOL1         0.0712
      13    C5      18.398224   19.011723   20.607868 C.3        1 MOL1        -0.2936
      14    H7      18.147721   19.957136   21.105085 H          1 MOL1         0.0724
      15    H8      17.870448   18.199636   21.124798 H          1 MOL1         0.0724
      16    H9      18.013894   19.064561   19.580977 H          1 MOL1         0.0724
@<TRIPOS>BOND
    1     1     2    1
    2     1     3    2
    3     1     4    1
    4     4     5    1
    5     4     6    1
    6     4     7    1
    7     7     8    1
    8     7     9    1
    9     7    10    1
   10    10    11    1
   11    10    12    1
   12    10    13    1
   13    13    14    1
   14    13    15    1
   15    13    16    1
@<TRIPOS>SUBSTRUCTURE
       1 MOL1            1 RESIDUE      1      MOL     
@<SCITEGIC>MOL_PROPERTY
VConf Rank
SciTegic.value.IntegerValue
913

@<SCITEGIC>MOL_PROPERTY
Conf_Id
SciTegic.value.IntegerValue
36

@<SCITEGIC>MOL_PROPERTY
Delta U+W
SciTegic.value.DoubleValue
-0.427

@<SCITEGIC>MOL_PROPERTY
U+W
SciTegic.value.DoubleValue
-57.331

@<SCITEGIC>MOL_PROPERTY
Grad RMS
SciTegic.value.DoubleValue
0.000000

@<SCITEGIC>MOL_PROPERTY
U
SciTegic.value.DoubleValue
7.263

@<SCITEGIC>MOL_PROPERTY
W
SciTegic.value.DoubleValue
-64.594

@<SCITEGIC>MOL_PROPERTY
W(PB)
SciTegic.value.DoubleValue
-66.513

@<SCITEGIC>MOL_PROPERTY
W(SA)
SciTegic.value.DoubleValue
1.920

@<SCITEGIC>MOL_PROPERTY
Valence
SciTegic.value.DoubleValue
6.734

@<SCITEGIC>MOL_PROPERTY
Coulomb
SciTegic.value.DoubleValue
-0.068

@<SCITEGIC>MOL_PROPERTY
VdW
SciTegic.value.DoubleValue
0.598

@<SCITEGIC>MOL_PROPERTY
VdW6
SciTegic.value.DoubleValue
-4.819

@<SCITEGIC>MOL_PROPERTY
VdW12
SciTegic.value.DoubleValue
5.417

@<SCITEGIC>MOL_PROPERTY
Bond
SciTegic.value.DoubleValue
0.107

@<SCITEGIC>MOL_PROPERTY
Angle
SciTegic.value.DoubleValue
2.469

@<SCITEGIC>MOL_PROPERTY
Pdih
SciTegic.value.DoubleValue
4.157

@<SCITEGIC>MOL_PROPERTY
Idih
SciTegic.value.DoubleValue
0.001

@<SCITEGIC>MOL_PROPERTY
Tether
SciTegic.value.DoubleValue
0.000

@<TRIPOS>MOLECULE
guest-s18_confgen4.mol2 : confsearch ligand conformer 914
          16          15           1
SMALL
USER_CHARGES
 
@<TRIPOS>ATOM
       1    C1      19.612776   21.116476   23.625101 C.2        1 MOL1         0.6075
       2    O1      19.564382   22.175305   23.031386 O.co2      1 MOL1        -0.6830
       3    O2      19.839492   21.023596   24.815046 O.co2      1 MOL1        -0.6830
       4    C2      19.397269   19.833281   22.830406 C.3        1 MOL1        -0.2050
       5    H1      18.686891   20.053738   22.025497 H          1 MOL1         0.0710
       6    H2      18.921914   19.098959   23.491750 H          1 MOL1         0.0710
       7    C3      20.715142   19.256386   22.251270 C.3        1 MOL1        -0.1947
       8    H3      21.159941   19.983347   21.557736 H          1 MOL1         0.0712
       9    H4      21.435212   19.128599   23.071392 H          1 MOL1         0.0712
      10    C4      20.530463   17.898029   21.536310 C.3        1 MOL1        -0.1921
      11    H5      20.096528   17.167612   22.233140 H          1 MOL1         0.0712
      12    H6      21.519083   17.509696   21.254998 H          1 MOL1         0.0712
      13    C5      19.653462   17.991327   20.269387 C.3        1 MOL1        -0.2936
      14    H7      18.620679   18.267448   20.516164 H          1 MOL1         0.0724
      15    H8      19.623840   17.024000   19.751306 H          1 MOL1         0.0724
      16    H9      20.052214   18.737340   19.569592 H          1 MOL1         0.0724
@<TRIPOS>BOND
    1     1     2    1
    2     1     3    2
    3     1     4    1
    4     4     5    1
    5     4     6    1
    6     4     7    1
    7     7     8    1
    8     7     9    1
    9     7    10    1
   10    10    11    1
   11    10    12    1
   12    10    13    1
   13    13    14    1
   14    13    15    1
   15    13    16    1
@<TRIPOS>SUBSTRUCTURE
       1 MOL1            1 RESIDUE      1      MOL     
@<SCITEGIC>MOL_PROPERTY
VConf Rank
SciTegic.value.IntegerValue
914

@<SCITEGIC>MOL_PROPERTY
Conf_Id
SciTegic.value.IntegerValue
17

@<SCITEGIC>MOL_PROPERTY
Delta U+W
SciTegic.value.DoubleValue
-0.432

@<SCITEGIC>MOL_PROPERTY
U+W
SciTegic.value.DoubleValue
-57.336

@<SCITEGIC>MOL_PROPERTY
Grad RMS
SciTegic.value.DoubleValue
0.000000

@<SCITEGIC>MOL_PROPERTY
U
SciTegic.value.DoubleValue
7.263

@<SCITEGIC>MOL_PROPERTY
W
SciTegic.value.DoubleValue
-64.599

@<SCITEGIC>MOL_PROPERTY
W(PB)
SciTegic.value.DoubleValue
-66.503

@<SCITEGIC>MOL_PROPERTY
W(SA)
SciTegic.value.DoubleValue
1.904

@<SCITEGIC>MOL_PROPERTY
Valence
SciTegic.value.DoubleValue
6.734

@<SCITEGIC>MOL_PROPERTY
Coulomb
SciTegic.value.DoubleValue
-0.068

@<SCITEGIC>MOL_PROPERTY
VdW
SciTegic.value.DoubleValue
0.598

@<SCITEGIC>MOL_PROPERTY
VdW6
SciTegic.value.DoubleValue
-4.819

@<SCITEGIC>MOL_PROPERTY
VdW12
SciTegic.value.DoubleValue
5.417

@<SCITEGIC>MOL_PROPERTY
Bond
SciTegic.value.DoubleValue
0.107

@<SCITEGIC>MOL_PROPERTY
Angle
SciTegic.value.DoubleValue
2.469

@<SCITEGIC>MOL_PROPERTY
Pdih
SciTegic.value.DoubleValue
4.157

@<SCITEGIC>MOL_PROPERTY
Idih
SciTegic.value.DoubleValue
0.001

@<SCITEGIC>MOL_PROPERTY
Tether
SciTegic.value.DoubleValue
0.000

@<TRIPOS>MOLECULE
guest-s18_confgen4.mol2 : confsearch ligand conformer 915
          16          15           1
SMALL
USER_CHARGES
 
@<TRIPOS>ATOM
       1    C1      21.845951   20.502840   21.188665 C.2        1 MOL1         0.6075
       2    O1      22.100584   21.476311   21.869736 O.co2      1 MOL1        -0.6830
       3    O2      22.693101   19.749735   20.751139 O.co2      1 MOL1        -0.6830
       4    C2      20.384602   20.226740   20.845560 C.3        1 MOL1        -0.2050
       5    H1      20.348719   19.560447   19.975014 H          1 MOL1         0.0710
       6    H2      19.934943   21.177542   20.535698 H          1 MOL1         0.0710
       7    C3      19.563852   19.623486   22.014957 C.3        1 MOL1        -0.1947
       8    H3      19.632407   20.286967   22.888293 H          1 MOL1         0.0712
       9    H4      18.504555   19.589098   21.726398 H          1 MOL1         0.0712
      10    C4      20.032770   18.203348   22.399023 C.3        1 MOL1        -0.1921
      11    H5      21.086678   18.228873   22.709426 H          1 MOL1         0.0712
      12    H6      19.975434   17.544206   21.521743 H          1 MOL1         0.0712
      13    C5      19.179470   17.614404   23.539798 C.3        1 MOL1        -0.2936
      14    H7      19.243805   18.238845   24.440567 H          1 MOL1         0.0724
      15    H8      19.526151   16.606063   23.800906 H          1 MOL1         0.0724
      16    H9      18.124079   17.544376   23.245416 H          1 MOL1         0.0724
@<TRIPOS>BOND
    1     1     2    1
    2     1     3    2
    3     1     4    1
    4     4     5    1
    5     4     6    1
    6     4     7    1
    7     7     8    1
    8     7     9    1
    9     7    10    1
   10    10    11    1
   11    10    12    1
   12    10    13    1
   13    13    14    1
   14    13    15    1
   15    13    16    1
@<TRIPOS>SUBSTRUCTURE
       1 MOL1            1 RESIDUE      1      MOL     
@<SCITEGIC>MOL_PROPERTY
VConf Rank
SciTegic.value.IntegerValue
915

@<SCITEGIC>MOL_PROPERTY
Conf_Id
SciTegic.value.IntegerValue
19

@<SCITEGIC>MOL_PROPERTY
Delta U+W
SciTegic.value.DoubleValue
0.048

@<SCITEGIC>MOL_PROPERTY
U+W
SciTegic.value.DoubleValue
-56.856

@<SCITEGIC>MOL_PROPERTY
Grad RMS
SciTegic.value.DoubleValue
0.000000

@<SCITEGIC>MOL_PROPERTY
U
SciTegic.value.DoubleValue
8.276

@<SCITEGIC>MOL_PROPERTY
W
SciTegic.value.DoubleValue
-65.132

@<SCITEGIC>MOL_PROPERTY
W(PB)
SciTegic.value.DoubleValue
-67.031

@<SCITEGIC>MOL_PROPERTY
W(SA)
SciTegic.value.DoubleValue
1.899

@<SCITEGIC>MOL_PROPERTY
Valence
SciTegic.value.DoubleValue
6.513

@<SCITEGIC>MOL_PROPERTY
Coulomb
SciTegic.value.DoubleValue
1.428

@<SCITEGIC>MOL_PROPERTY
VdW
SciTegic.value.DoubleValue
0.335

@<SCITEGIC>MOL_PROPERTY
VdW6
SciTegic.value.DoubleValue
-5.021

@<SCITEGIC>MOL_PROPERTY
VdW12
SciTegic.value.DoubleValue
5.356

@<SCITEGIC>MOL_PROPERTY
Bond
SciTegic.value.DoubleValue
0.092

@<SCITEGIC>MOL_PROPERTY
Angle
SciTegic.value.DoubleValue
2.417

@<SCITEGIC>MOL_PROPERTY
Pdih
SciTegic.value.DoubleValue
4.003

@<SCITEGIC>MOL_PROPERTY
Idih
SciTegic.value.DoubleValue
0.001

@<SCITEGIC>MOL_PROPERTY
Tether
SciTegic.value.DoubleValue
0.000

@<TRIPOS>MOLECULE
guest-s18_confgen4.mol2 : confsearch ligand conformer 916
          16          15           1
SMALL
USER_CHARGES
 
@<TRIPOS>ATOM
       1    C1      18.461772   17.442930   22.918086 C.2        1 MOL1         0.6075
       2    O1      19.029803   16.378498   23.061848 O.co2      1 MOL1        -0.6830
       3    O2      17.396774   17.563343   22.345774 O.co2      1 MOL1        -0.6830
       4    C2      19.111351   18.691074   23.509424 C.3        1 MOL1        -0.2050
       5    H1      19.440179   18.440149   24.524877 H          1 MOL1         0.0710
       6    H2      18.346667   19.471282   23.607505 H          1 MOL1         0.0710
       7    C3      20.317089   19.223638   22.692346 C.3        1 MOL1        -0.1947
       8    H3      20.803516   20.029287   23.258806 H          1 MOL1         0.0712
       9    H4      21.061459   18.423351   22.577993 H          1 MOL1         0.0712
      10    C4      19.904251   19.756224   21.303063 C.3        1 MOL1        -0.1921
      11    H5      19.150881   20.547740   21.418450 H          1 MOL1         0.0712
      12    H6      19.434389   18.952494   20.719136 H          1 MOL1         0.0712
      13    C5      21.115111   20.309858   20.526109 C.3        1 MOL1        -0.2936
      14    H7      21.585489   21.139336   21.070283 H          1 MOL1         0.0724
      15    H8      20.804785   20.683149   19.541494 H          1 MOL1         0.0724
      16    H9      21.871282   19.529325   20.369826 H          1 MOL1         0.0724
@<TRIPOS>BOND
    1     1     2    1
    2     1     3    2
    3     1     4    1
    4     4     5    1
    5     4     6    1
    6     4     7    1
    7     7     8    1
    8     7     9    1
    9     7    10    1
   10    10    11    1
   11    10    12    1
   12    10    13    1
   13    13    14    1
   14    13    15    1
   15    13    16    1
@<TRIPOS>SUBSTRUCTURE
       1 MOL1            1 RESIDUE      1      MOL     
@<SCITEGIC>MOL_PROPERTY
VConf Rank
SciTegic.value.IntegerValue
916

@<SCITEGIC>MOL_PROPERTY
Conf_Id
SciTegic.value.IntegerValue
20

@<SCITEGIC>MOL_PROPERTY
Delta U+W
SciTegic.value.DoubleValue
-0.010

@<SCITEGIC>MOL_PROPERTY
U+W
SciTegic.value.DoubleValue
-56.914

@<SCITEGIC>MOL_PROPERTY
Grad RMS
SciTegic.value.DoubleValue
0.000000

@<SCITEGIC>MOL_PROPERTY
U
SciTegic.value.DoubleValue
8.277

@<SCITEGIC>MOL_PROPERTY
W
SciTegic.value.DoubleValue
-65.191

@<SCITEGIC>MOL_PROPERTY
W(PB)
SciTegic.value.DoubleValue
-67.081

@<SCITEGIC>MOL_PROPERTY
W(SA)
SciTegic.value.DoubleValue
1.890

@<SCITEGIC>MOL_PROPERTY
Valence
SciTegic.value.DoubleValue
6.513

@<SCITEGIC>MOL_PROPERTY
Coulomb
SciTegic.value.DoubleValue
1.429

@<SCITEGIC>MOL_PROPERTY
VdW
SciTegic.value.DoubleValue
0.335

@<SCITEGIC>MOL_PROPERTY
VdW6
SciTegic.value.DoubleValue
-5.021

@<SCITEGIC>MOL_PROPERTY
VdW12
SciTegic.value.DoubleValue
5.356

@<SCITEGIC>MOL_PROPERTY
Bond
SciTegic.value.DoubleValue
0.092

@<SCITEGIC>MOL_PROPERTY
Angle
SciTegic.value.DoubleValue
2.417

@<SCITEGIC>MOL_PROPERTY
Pdih
SciTegic.value.DoubleValue
4.002

@<SCITEGIC>MOL_PROPERTY
Idih
SciTegic.value.DoubleValue
0.001

@<SCITEGIC>MOL_PROPERTY
Tether
SciTegic.value.DoubleValue
0.000

@<TRIPOS>MOLECULE
guest-s18_confgen4.mol2 : confsearch ligand conformer 917
          16          15           1
SMALL
USER_CHARGES
 
@<TRIPOS>ATOM
       1    C1      20.127376   17.640337   23.667319 C.2        1 MOL1         0.6075
       2    O1      21.186232   17.076891   23.862607 O.co2      1 MOL1        -0.6830
       3    O2      19.064324   17.058268   23.581201 O.co2      1 MOL1        -0.6830
       4    C2      20.131560   19.162826   23.558899 C.3        1 MOL1        -0.2050
       5    H1      20.682793   19.549229   24.424183 H          1 MOL1         0.0710
       6    H2      19.102284   19.525666   23.659821 H          1 MOL1         0.0710
       7    C3      20.778149   19.705795   22.255140 C.3        1 MOL1        -0.1947
       8    H3      20.810281   20.802802   22.298889 H          1 MOL1         0.0712
       9    H4      21.823042   19.368532   22.212628 H          1 MOL1         0.0712
      10    C4      20.058848   19.269113   20.956716 C.3        1 MOL1        -0.1921
      11    H5      20.050713   18.172662   20.883732 H          1 MOL1         0.0712
      12    H6      20.635905   19.631948   20.095040 H          1 MOL1         0.0712
      13    C5      18.615353   19.805330   20.850714 C.3        1 MOL1        -0.2936
      14    H7      17.970741   19.368571   21.624151 H          1 MOL1         0.0724
      15    H8      18.182057   19.550042   19.875039 H          1 MOL1         0.0724
      16    H9      18.591943   20.897736   20.956381 H          1 MOL1         0.0724
@<TRIPOS>BOND
    1     1     2    1
    2     1     3    2
    3     1     4    1
    4     4     5    1
    5     4     6    1
    6     4     7    1
    7     7     8    1
    8     7     9    1
    9     7    10    1
   10    10    11    1
   11    10    12    1
   12    10    13    1
   13    13    14    1
   14    13    15    1
   15    13    16    1
@<TRIPOS>SUBSTRUCTURE
       1 MOL1            1 RESIDUE      1      MOL     
@<SCITEGIC>MOL_PROPERTY
VConf Rank
SciTegic.value.IntegerValue
917

@<SCITEGIC>MOL_PROPERTY
Conf_Id
SciTegic.value.IntegerValue
37

@<SCITEGIC>MOL_PROPERTY
Delta U+W
SciTegic.value.DoubleValue
1.063

@<SCITEGIC>MOL_PROPERTY
U+W
SciTegic.value.DoubleValue
-55.841

@<SCITEGIC>MOL_PROPERTY
Grad RMS
SciTegic.value.DoubleValue
0.000000

@<SCITEGIC>MOL_PROPERTY
U
SciTegic.value.DoubleValue
9.719

@<SCITEGIC>MOL_PROPERTY
W
SciTegic.value.DoubleValue
-65.560

@<SCITEGIC>MOL_PROPERTY
W(PB)
SciTegic.value.DoubleValue
-67.414

@<SCITEGIC>MOL_PROPERTY
W(SA)
SciTegic.value.DoubleValue
1.854

@<SCITEGIC>MOL_PROPERTY
Valence
SciTegic.value.DoubleValue
7.002

@<SCITEGIC>MOL_PROPERTY
Coulomb
SciTegic.value.DoubleValue
2.402

@<SCITEGIC>MOL_PROPERTY
VdW
SciTegic.value.DoubleValue
0.314

@<SCITEGIC>MOL_PROPERTY
VdW6
SciTegic.value.DoubleValue
-5.861

@<SCITEGIC>MOL_PROPERTY
VdW12
SciTegic.value.DoubleValue
6.175

@<SCITEGIC>MOL_PROPERTY
Bond
SciTegic.value.DoubleValue
0.134

@<SCITEGIC>MOL_PROPERTY
Angle
SciTegic.value.DoubleValue
2.733

@<SCITEGIC>MOL_PROPERTY
Pdih
SciTegic.value.DoubleValue
4.133

@<SCITEGIC>MOL_PROPERTY
Idih
SciTegic.value.DoubleValue
0.002

@<SCITEGIC>MOL_PROPERTY
Tether
SciTegic.value.DoubleValue
0.000

@<TRIPOS>MOLECULE
guest-s18_confgen4.mol2 : confsearch ligand conformer 918
          16          15           1
SMALL
USER_CHARGES
 
@<TRIPOS>ATOM
       1    C1      21.942060   18.811751   23.293579 C.2        1 MOL1         0.6075
       2    O1      22.163893   19.341328   24.364618 O.co2      1 MOL1        -0.6830
       3    O2      22.127052   17.630206   23.079033 O.co2      1 MOL1        -0.6830
       4    C2      21.437260   19.686419   22.149080 C.3        1 MOL1        -0.2050
       5    H1      21.549070   19.134636   21.208717 H          1 MOL1         0.0710
       6    H2      22.106117   20.552440   22.081844 H          1 MOL1         0.0710
       7    C3      19.975009   20.180478   22.323451 C.3        1 MOL1        -0.1947
       8    H3      19.910822   20.773922   23.245980 H          1 MOL1         0.0712
       9    H4      19.724967   20.863200   21.500201 H          1 MOL1         0.0712
      10    C4      18.922126   19.048290   22.383283 C.3        1 MOL1        -0.1921
      11    H5      17.938580   19.492227   22.589890 H          1 MOL1         0.0712
      12    H6      19.141387   18.377121   23.225337 H          1 MOL1         0.0712
      13    C5      18.834408   18.229055   21.078063 C.3        1 MOL1        -0.2936
      14    H7      18.650870   18.881691   20.214670 H          1 MOL1         0.0724
      15    H8      18.012613   17.503615   21.135062 H          1 MOL1         0.0724
      16    H9      19.760065   17.667770   20.897492 H          1 MOL1         0.0724
@<TRIPOS>BOND
    1     1     2    1
    2     1     3    2
    3     1     4    1
    4     4     5    1
    5     4     6    1
    6     4     7    1
    7     7     8    1
    8     7     9    1
    9     7    10    1
   10    10    11    1
   11    10    12    1
   12    10    13    1
   13    13    14    1
   14    13    15    1
   15    13    16    1
@<TRIPOS>SUBSTRUCTURE
       1 MOL1            1 RESIDUE      1      MOL     
@<SCITEGIC>MOL_PROPERTY
VConf Rank
SciTegic.value.IntegerValue
918

@<SCITEGIC>MOL_PROPERTY
Conf_Id
SciTegic.value.IntegerValue
39

@<SCITEGIC>MOL_PROPERTY
Delta U+W
SciTegic.value.DoubleValue
1.129

@<SCITEGIC>MOL_PROPERTY
U+W
SciTegic.value.DoubleValue
-55.775

@<SCITEGIC>MOL_PROPERTY
Grad RMS
SciTegic.value.DoubleValue
0.000000

@<SCITEGIC>MOL_PROPERTY
U
SciTegic.value.DoubleValue
9.718

@<SCITEGIC>MOL_PROPERTY
W
SciTegic.value.DoubleValue
-65.493

@<SCITEGIC>MOL_PROPERTY
W(PB)
SciTegic.value.DoubleValue
-67.361

@<SCITEGIC>MOL_PROPERTY
W(SA)
SciTegic.value.DoubleValue
1.869

@<SCITEGIC>MOL_PROPERTY
Valence
SciTegic.value.DoubleValue
7.002

@<SCITEGIC>MOL_PROPERTY
Coulomb
SciTegic.value.DoubleValue
2.402

@<SCITEGIC>MOL_PROPERTY
VdW
SciTegic.value.DoubleValue
0.314

@<SCITEGIC>MOL_PROPERTY
VdW6
SciTegic.value.DoubleValue
-5.861

@<SCITEGIC>MOL_PROPERTY
VdW12
SciTegic.value.DoubleValue
6.175

@<SCITEGIC>MOL_PROPERTY
Bond
SciTegic.value.DoubleValue
0.134

@<SCITEGIC>MOL_PROPERTY
Angle
SciTegic.value.DoubleValue
2.734

@<SCITEGIC>MOL_PROPERTY
Pdih
SciTegic.value.DoubleValue
4.133

@<SCITEGIC>MOL_PROPERTY
Idih
SciTegic.value.DoubleValue
0.002

@<SCITEGIC>MOL_PROPERTY
Tether
SciTegic.value.DoubleValue
0.000

@<TRIPOS>MOLECULE
guest-s18_confgen4.mol2 : confsearch ligand conformer 919
          16          15           1
SMALL
USER_CHARGES
 
@<TRIPOS>ATOM
       1    C1      19.492060   17.768273   20.822088 C.2        1 MOL1         0.6075
       2    O1      20.071845   16.716283   21.006440 O.co2      1 MOL1        -0.6830
       3    O2      19.490517   18.353082   19.756652 O.co2      1 MOL1        -0.6830
       4    C2      18.649163   18.336404   21.962442 C.3        1 MOL1        -0.2050
       5    H1      18.696865   17.650868   22.817278 H          1 MOL1         0.0710
       6    H2      17.610393   18.328491   21.612239 H          1 MOL1         0.0710
       7    C3      19.020417   19.778735   22.408350 C.3        1 MOL1        -0.1947
       8    H3      19.171854   20.416161   21.526140 H          1 MOL1         0.0712
       9    H4      18.158387   20.200879   22.942347 H          1 MOL1         0.0712
      10    C4      20.247754   19.870097   23.346891 C.3        1 MOL1        -0.1921
      11    H5      20.093268   19.230041   24.226488 H          1 MOL1         0.0712
      12    H6      20.320902   20.899640   23.723700 H          1 MOL1         0.0712
      13    C5      21.582565   19.502977   22.665869 C.3        1 MOL1        -0.2936
      14    H7      21.624034   18.435412   22.417708 H          1 MOL1         0.0724
      15    H8      22.426462   19.719371   23.333537 H          1 MOL1         0.0724
      16    H9      21.724803   20.078105   21.741572 H          1 MOL1         0.0724
@<TRIPOS>BOND
    1     1     2    1
    2     1     3    2
    3     1     4    1
    4     4     5    1
    5     4     6    1
    6     4     7    1
    7     7     8    1
    8     7     9    1
    9     7    10    1
   10    10    11    1
   11    10    12    1
   12    10    13    1
   13    13    14    1
   14    13    15    1
   15    13    16    1
@<TRIPOS>SUBSTRUCTURE
       1 MOL1            1 RESIDUE      1      MOL     
@<SCITEGIC>MOL_PROPERTY
VConf Rank
SciTegic.value.IntegerValue
919

@<SCITEGIC>MOL_PROPERTY
Conf_Id
SciTegic.value.IntegerValue
47

@<SCITEGIC>MOL_PROPERTY
Delta U+W
SciTegic.value.DoubleValue
2.301

@<SCITEGIC>MOL_PROPERTY
U+W
SciTegic.value.DoubleValue
-54.603

@<SCITEGIC>MOL_PROPERTY
Grad RMS
SciTegic.value.DoubleValue
0.000000

@<SCITEGIC>MOL_PROPERTY
U
SciTegic.value.DoubleValue
11.258

@<SCITEGIC>MOL_PROPERTY
W
SciTegic.value.DoubleValue
-65.861

@<SCITEGIC>MOL_PROPERTY
W(PB)
SciTegic.value.DoubleValue
-67.702

@<SCITEGIC>MOL_PROPERTY
W(SA)
SciTegic.value.DoubleValue
1.841

@<SCITEGIC>MOL_PROPERTY
Valence
SciTegic.value.DoubleValue
8.169

@<SCITEGIC>MOL_PROPERTY
Coulomb
SciTegic.value.DoubleValue
2.735

@<SCITEGIC>MOL_PROPERTY
VdW
SciTegic.value.DoubleValue
0.355

@<SCITEGIC>MOL_PROPERTY
VdW6
SciTegic.value.DoubleValue
-6.245

@<SCITEGIC>MOL_PROPERTY
VdW12
SciTegic.value.DoubleValue
6.600

@<SCITEGIC>MOL_PROPERTY
Bond
SciTegic.value.DoubleValue
0.149

@<SCITEGIC>MOL_PROPERTY
Angle
SciTegic.value.DoubleValue
3.168

@<SCITEGIC>MOL_PROPERTY
Pdih
SciTegic.value.DoubleValue
4.840

@<SCITEGIC>MOL_PROPERTY
Idih
SciTegic.value.DoubleValue
0.011

@<SCITEGIC>MOL_PROPERTY
Tether
SciTegic.value.DoubleValue
0.000

@<TRIPOS>MOLECULE
guest-s18_confgen4.mol2 : confsearch ligand conformer 920
          16          15           1
SMALL
USER_CHARGES
 
@<TRIPOS>ATOM
       1    C1      20.756106   18.340170   20.649815 C.2        1 MOL1         0.6075
       2    O1      20.139624   18.695291   19.664423 O.co2      1 MOL1        -0.6830
       3    O2      21.101710   17.191432   20.844176 O.co2      1 MOL1        -0.6830
       4    C2      21.197883   19.405412   21.651693 C.3        1 MOL1        -0.2050
       5    H1      21.861867   20.086009   21.106108 H          1 MOL1         0.0710
       6    H2      21.806818   18.931499   22.431170 H          1 MOL1         0.0710
       7    C3      20.047738   20.230272   22.294935 C.3        1 MOL1        -0.1947
       8    H3      20.477213   21.161941   22.687361 H          1 MOL1         0.0712
       9    H4      19.325735   20.531233   21.523136 H          1 MOL1         0.0712
      10    C4      19.315721   19.520874   23.459610 C.3        1 MOL1        -0.1921
      11    H5      18.641685   20.244633   23.938299 H          1 MOL1         0.0712
      12    H6      20.041103   19.220010   24.228072 H          1 MOL1         0.0712
      13    C5      18.486035   18.296234   23.021246 C.3        1 MOL1        -0.2936
      14    H7      17.882825   17.921634   23.858254 H          1 MOL1         0.0724
      15    H8      19.131836   17.475115   22.687023 H          1 MOL1         0.0724
      16    H9      17.804256   18.555258   22.200628 H          1 MOL1         0.0724
@<TRIPOS>BOND
    1     1     2    1
    2     1     3    2
    3     1     4    1
    4     4     5    1
    5     4     6    1
    6     4     7    1
    7     7     8    1
    8     7     9    1
    9     7    10    1
   10    10    11    1
   11    10    12    1
   12    10    13    1
   13    13    14    1
   14    13    15    1
   15    13    16    1
@<TRIPOS>SUBSTRUCTURE
       1 MOL1            1 RESIDUE      1      MOL     
@<SCITEGIC>MOL_PROPERTY
VConf Rank
SciTegic.value.IntegerValue
920

@<SCITEGIC>MOL_PROPERTY
Conf_Id
SciTegic.value.IntegerValue
45

@<SCITEGIC>MOL_PROPERTY
Delta U+W
SciTegic.value.DoubleValue
2.303

@<SCITEGIC>MOL_PROPERTY
U+W
SciTegic.value.DoubleValue
-54.601

@<SCITEGIC>MOL_PROPERTY
Grad RMS
SciTegic.value.DoubleValue
0.000000

@<SCITEGIC>MOL_PROPERTY
U
SciTegic.value.DoubleValue
11.258

@<SCITEGIC>MOL_PROPERTY
W
SciTegic.value.DoubleValue
-65.860

@<SCITEGIC>MOL_PROPERTY
W(PB)
SciTegic.value.DoubleValue
-67.709

@<SCITEGIC>MOL_PROPERTY
W(SA)
SciTegic.value.DoubleValue
1.849

@<SCITEGIC>MOL_PROPERTY
Valence
SciTegic.value.DoubleValue
8.169

@<SCITEGIC>MOL_PROPERTY
Coulomb
SciTegic.value.DoubleValue
2.735

@<SCITEGIC>MOL_PROPERTY
VdW
SciTegic.value.DoubleValue
0.355

@<SCITEGIC>MOL_PROPERTY
VdW6
SciTegic.value.DoubleValue
-6.245

@<SCITEGIC>MOL_PROPERTY
VdW12
SciTegic.value.DoubleValue
6.600

@<SCITEGIC>MOL_PROPERTY
Bond
SciTegic.value.DoubleValue
0.149

@<SCITEGIC>MOL_PROPERTY
Angle
SciTegic.value.DoubleValue
3.168

@<SCITEGIC>MOL_PROPERTY
Pdih
SciTegic.value.DoubleValue
4.840

@<SCITEGIC>MOL_PROPERTY
Idih
SciTegic.value.DoubleValue
0.011

@<SCITEGIC>MOL_PROPERTY
Tether
SciTegic.value.DoubleValue
0.000

@<TRIPOS>MOLECULE
guest-s18_confgen4.mol2 : confsearch ligand conformer 921
          16          15           1
SMALL
USER_CHARGES
 
@<TRIPOS>ATOM
       1    C1      21.827670   19.385239   23.977498 C.2        1 MOL1         0.6075
       2    O1      21.455617   18.389272   24.566906 O.co2      1 MOL1        -0.6830
       3    O2      22.731886   20.091566   24.376008 O.co2      1 MOL1        -0.6830
       4    C2      21.145568   19.794758   22.671005 C.3        1 MOL1        -0.2050
       5    H1      21.921511   19.842989   21.897864 H          1 MOL1         0.0710
       6    H2      20.764039   20.813709   22.806421 H          1 MOL1         0.0710
       7    C3      19.996272   18.863391   22.201938 C.3        1 MOL1        -0.1947
       8    H3      20.383274   17.843030   22.073249 H          1 MOL1         0.0712
       9    H4      19.224609   18.814765   22.982733 H          1 MOL1         0.0712
      10    C4      19.366875   19.350330   20.879815 C.3        1 MOL1        -0.1921
      11    H5      20.137222   19.397729   20.097627 H          1 MOL1         0.0712
      12    H6      18.977859   20.370049   21.007643 H          1 MOL1         0.0712
      13    C5      18.226247   18.421392   20.419182 C.3        1 MOL1        -0.2936
      14    H7      18.594118   17.400314   20.253229 H          1 MOL1         0.0724
      15    H8      17.789962   18.781646   19.478431 H          1 MOL1         0.0724
      16    H9      17.426198   18.379804   21.169956 H          1 MOL1         0.0724
@<TRIPOS>BOND
    1     1     2    1
    2     1     3    2
    3     1     4    1
    4     4     5    1
    5     4     6    1
    6     4     7    1
    7     7     8    1
    8     7     9    1
    9     7    10    1
   10    10    11    1
   11    10    12    1
   12    10    13    1
   13    13    14    1
   14    13    15    1
   15    13    16    1
@<TRIPOS>SUBSTRUCTURE
       1 MOL1            1 RESIDUE      1      MOL     
@<SCITEGIC>MOL_PROPERTY
VConf Rank
SciTegic.value.IntegerValue
921

@<SCITEGIC>MOL_PROPERTY
Conf_Id
SciTegic.value.IntegerValue
0

@<SCITEGIC>MOL_PROPERTY
Delta U+W
SciTegic.value.DoubleValue
0.000

@<SCITEGIC>MOL_PROPERTY
U+W
SciTegic.value.DoubleValue
-56.904

@<SCITEGIC>MOL_PROPERTY
Grad RMS
SciTegic.value.DoubleValue
0.000000

@<SCITEGIC>MOL_PROPERTY
U
SciTegic.value.DoubleValue
7.329

@<SCITEGIC>MOL_PROPERTY
W
SciTegic.value.DoubleValue
-64.233

@<SCITEGIC>MOL_PROPERTY
W(PB)
SciTegic.value.DoubleValue
-66.148

@<SCITEGIC>MOL_PROPERTY
W(SA)
SciTegic.value.DoubleValue
1.915

@<SCITEGIC>MOL_PROPERTY
Valence
SciTegic.value.DoubleValue
6.755

@<SCITEGIC>MOL_PROPERTY
Coulomb
SciTegic.value.DoubleValue
-0.421

@<SCITEGIC>MOL_PROPERTY
VdW
SciTegic.value.DoubleValue
0.995

@<SCITEGIC>MOL_PROPERTY
VdW6
SciTegic.value.DoubleValue
-4.495

@<SCITEGIC>MOL_PROPERTY
VdW12
SciTegic.value.DoubleValue
5.490

@<SCITEGIC>MOL_PROPERTY
Bond
SciTegic.value.DoubleValue
0.106

@<SCITEGIC>MOL_PROPERTY
Angle
SciTegic.value.DoubleValue
2.715

@<SCITEGIC>MOL_PROPERTY
Pdih
SciTegic.value.DoubleValue
3.934

@<SCITEGIC>MOL_PROPERTY
Idih
SciTegic.value.DoubleValue
0.000

@<SCITEGIC>MOL_PROPERTY
Tether
SciTegic.value.DoubleValue
0.000

@<TRIPOS>MOLECULE
guest-s18_confgen4.mol2 : confsearch ligand conformer 922
          16          15           1
SMALL
USER_CHARGES
 
@<TRIPOS>ATOM
       1    C1      22.651144   18.333693   21.832975 C.2        1 MOL1         0.6075
       2    O1      22.990822   17.573699   22.717776 O.co2      1 MOL1        -0.6830
       3    O2      23.134579   18.326382   20.718489 O.co2      1 MOL1        -0.6830
       4    C2      21.545073   19.339527   22.132119 C.3        1 MOL1        -0.2050
       5    H1      21.736787   20.243159   21.540896 H          1 MOL1         0.0710
       6    H2      21.618183   19.622520   23.189200 H          1 MOL1         0.0710
       7    C3      20.130725   18.789691   21.823316 C.3        1 MOL1        -0.1947
       8    H3      20.077208   18.499351   20.764832 H          1 MOL1         0.0712
       9    H4      19.958619   17.878639   22.413160 H          1 MOL1         0.0712
      10    C4      19.031100   19.826282   22.134550 C.3        1 MOL1        -0.1921
      11    H5      19.202473   20.737248   21.544371 H          1 MOL1         0.0712
      12    H6      19.083877   20.116406   23.193124 H          1 MOL1         0.0712
      13    C5      17.626366   19.272265   21.824891 C.3        1 MOL1        -0.2936
      14    H7      17.415879   18.377484   22.425334 H          1 MOL1         0.0724
      15    H8      17.535359   19.002888   20.764407 H          1 MOL1         0.0724
      16    H9      16.856548   20.021359   22.051581 H          1 MOL1         0.0724
@<TRIPOS>BOND
    1     1     2    1
    2     1     3    2
    3     1     4    1
    4     4     5    1
    5     4     6    1
    6     4     7    1
    7     7     8    1
    8     7     9    1
    9     7    10    1
   10    10    11    1
   11    10    12    1
   12    10    13    1
   13    13    14    1
   14    13    15    1
   15    13    16    1
@<TRIPOS>SUBSTRUCTURE
       1 MOL1            1 RESIDUE      1      MOL     
@<SCITEGIC>MOL_PROPERTY
VConf Rank
SciTegic.value.IntegerValue
922

@<SCITEGIC>MOL_PROPERTY
Conf_Id
SciTegic.value.IntegerValue
22

@<SCITEGIC>MOL_PROPERTY
Delta U+W
SciTegic.value.DoubleValue
-1.185

@<SCITEGIC>MOL_PROPERTY
U+W
SciTegic.value.DoubleValue
-58.089

@<SCITEGIC>MOL_PROPERTY
Grad RMS
SciTegic.value.DoubleValue
0.000000

@<SCITEGIC>MOL_PROPERTY
U
SciTegic.value.DoubleValue
6.298

@<SCITEGIC>MOL_PROPERTY
W
SciTegic.value.DoubleValue
-64.387

@<SCITEGIC>MOL_PROPERTY
W(PB)
SciTegic.value.DoubleValue
-66.329

@<SCITEGIC>MOL_PROPERTY
W(SA)
SciTegic.value.DoubleValue
1.942

@<SCITEGIC>MOL_PROPERTY
Valence
SciTegic.value.DoubleValue
6.246

@<SCITEGIC>MOL_PROPERTY
Coulomb
SciTegic.value.DoubleValue
-0.408

@<SCITEGIC>MOL_PROPERTY
VdW
SciTegic.value.DoubleValue
0.460

@<SCITEGIC>MOL_PROPERTY
VdW6
SciTegic.value.DoubleValue
-4.207

@<SCITEGIC>MOL_PROPERTY
VdW12
SciTegic.value.DoubleValue
4.667

@<SCITEGIC>MOL_PROPERTY
Bond
SciTegic.value.DoubleValue
0.072

@<SCITEGIC>MOL_PROPERTY
Angle
SciTegic.value.DoubleValue
2.246

@<SCITEGIC>MOL_PROPERTY
Pdih
SciTegic.value.DoubleValue
3.928

@<SCITEGIC>MOL_PROPERTY
Idih
SciTegic.value.DoubleValue
0.001

@<SCITEGIC>MOL_PROPERTY
Tether
SciTegic.value.DoubleValue
0.000

@<TRIPOS>MOLECULE
guest-s18_confgen4.mol2 : confsearch ligand conformer 923
          16          15           1
SMALL
USER_CHARGES
 
@<TRIPOS>ATOM
       1    C1      21.765576   20.919251   21.432772 C.2        1 MOL1         0.6075
       2    O1      22.920948   20.807336   21.791361 O.co2      1 MOL1        -0.6830
       3    O2      21.258014   21.978912   21.123813 O.co2      1 MOL1        -0.6830
       4    C2      20.900503   19.664592   21.387464 C.3        1 MOL1        -0.2050
       5    H1      21.545064   18.815710   21.129576 H          1 MOL1         0.0710
       6    H2      20.179281   19.784976   20.571093 H          1 MOL1         0.0710
       7    C3      20.167358   19.391276   22.726415 C.3        1 MOL1        -0.1947
       8    H3      20.909684   19.362590   23.536080 H          1 MOL1         0.0712
       9    H4      19.493027   20.228764   22.952690 H          1 MOL1         0.0712
      10    C4      19.373151   18.064779   22.733518 C.3        1 MOL1        -0.1921
      11    H5      18.978563   17.894808   23.744814 H          1 MOL1         0.0712
      12    H6      20.049546   17.225854   22.518868 H          1 MOL1         0.0712
      13    C5      18.198155   18.053507   21.732423 C.3        1 MOL1        -0.2936
      14    H7      18.554031   18.106763   20.695940 H          1 MOL1         0.0724
      15    H8      17.523093   18.900989   21.909385 H          1 MOL1         0.0724
      16    H9      17.614722   17.129465   21.836155 H          1 MOL1         0.0724
@<TRIPOS>BOND
    1     1     2    1
    2     1     3    2
    3     1     4    1
    4     4     5    1
    5     4     6    1
    6     4     7    1
    7     7     8    1
    8     7     9    1
    9     7    10    1
   10    10    11    1
   11    10    12    1
   12    10    13    1
   13    13    14    1
   14    13    15    1
   15    13    16    1
@<TRIPOS>SUBSTRUCTURE
       1 MOL1            1 RESIDUE      1      MOL     
@<SCITEGIC>MOL_PROPERTY
VConf Rank
SciTegic.value.IntegerValue
923

@<SCITEGIC>MOL_PROPERTY
Conf_Id
SciTegic.value.IntegerValue
36

@<SCITEGIC>MOL_PROPERTY
Delta U+W
SciTegic.value.DoubleValue
-0.427

@<SCITEGIC>MOL_PROPERTY
U+W
SciTegic.value.DoubleValue
-57.331

@<SCITEGIC>MOL_PROPERTY
Grad RMS
SciTegic.value.DoubleValue
0.000000

@<SCITEGIC>MOL_PROPERTY
U
SciTegic.value.DoubleValue
7.263

@<SCITEGIC>MOL_PROPERTY
W
SciTegic.value.DoubleValue
-64.594

@<SCITEGIC>MOL_PROPERTY
W(PB)
SciTegic.value.DoubleValue
-66.513

@<SCITEGIC>MOL_PROPERTY
W(SA)
SciTegic.value.DoubleValue
1.920

@<SCITEGIC>MOL_PROPERTY
Valence
SciTegic.value.DoubleValue
6.734

@<SCITEGIC>MOL_PROPERTY
Coulomb
SciTegic.value.DoubleValue
-0.068

@<SCITEGIC>MOL_PROPERTY
VdW
SciTegic.value.DoubleValue
0.598

@<SCITEGIC>MOL_PROPERTY
VdW6
SciTegic.value.DoubleValue
-4.819

@<SCITEGIC>MOL_PROPERTY
VdW12
SciTegic.value.DoubleValue
5.417

@<SCITEGIC>MOL_PROPERTY
Bond
SciTegic.value.DoubleValue
0.107

@<SCITEGIC>MOL_PROPERTY
Angle
SciTegic.value.DoubleValue
2.469

@<SCITEGIC>MOL_PROPERTY
Pdih
SciTegic.value.DoubleValue
4.157

@<SCITEGIC>MOL_PROPERTY
Idih
SciTegic.value.DoubleValue
0.001

@<SCITEGIC>MOL_PROPERTY
Tether
SciTegic.value.DoubleValue
0.000

@<TRIPOS>MOLECULE
guest-s18_confgen4.mol2 : confsearch ligand conformer 924
          16          15           1
SMALL
USER_CHARGES
 
@<TRIPOS>ATOM
       1    C1      18.979803   21.362003   22.883680 C.2        1 MOL1         0.6075
       2    O1      17.881555   21.577448   22.411037 O.co2      1 MOL1        -0.6830
       3    O2      19.670721   22.220287   23.395518 O.co2      1 MOL1        -0.6830
       4    C2      19.529674   19.941720   22.812897 C.3        1 MOL1        -0.2050
       5    H1      18.682315   19.250871   22.889234 H          1 MOL1         0.0710
       6    H2      20.163409   19.777699   23.692695 H          1 MOL1         0.0710
       7    C3      20.336393   19.673395   21.515900 C.3        1 MOL1        -0.1947
       8    H3      19.680295   19.799090   20.643521 H          1 MOL1         0.0712
       9    H4      21.123101   20.435179   21.425328 H          1 MOL1         0.0712
      10    C4      20.993151   18.274235   21.478077 C.3        1 MOL1        -0.1921
      11    H5      21.658379   18.152760   22.344157 H          1 MOL1         0.0712
      12    H6      21.630088   18.207079   20.585267 H          1 MOL1         0.0712
      13    C5      19.967430   17.121078   21.445565 C.3        1 MOL1        -0.2936
      14    H7      19.381952   17.079049   22.372512 H          1 MOL1         0.0724
      15    H8      20.478467   16.156275   21.331529 H          1 MOL1         0.0724
      16    H9      19.272555   17.236969   20.603563 H          1 MOL1         0.0724
@<TRIPOS>BOND
    1     1     2    1
    2     1     3    2
    3     1     4    1
    4     4     5    1
    5     4     6    1
    6     4     7    1
    7     7     8    1
    8     7     9    1
    9     7    10    1
   10    10    11    1
   11    10    12    1
   12    10    13    1
   13    13    14    1
   14    13    15    1
   15    13    16    1
@<TRIPOS>SUBSTRUCTURE
       1 MOL1            1 RESIDUE      1      MOL     
@<SCITEGIC>MOL_PROPERTY
VConf Rank
SciTegic.value.IntegerValue
924

@<SCITEGIC>MOL_PROPERTY
Conf_Id
SciTegic.value.IntegerValue
17

@<SCITEGIC>MOL_PROPERTY
Delta U+W
SciTegic.value.DoubleValue
-0.432

@<SCITEGIC>MOL_PROPERTY
U+W
SciTegic.value.DoubleValue
-57.336

@<SCITEGIC>MOL_PROPERTY
Grad RMS
SciTegic.value.DoubleValue
0.000000

@<SCITEGIC>MOL_PROPERTY
U
SciTegic.value.DoubleValue
7.263

@<SCITEGIC>MOL_PROPERTY
W
SciTegic.value.DoubleValue
-64.599

@<SCITEGIC>MOL_PROPERTY
W(PB)
SciTegic.value.DoubleValue
-66.503

@<SCITEGIC>MOL_PROPERTY
W(SA)
SciTegic.value.DoubleValue
1.904

@<SCITEGIC>MOL_PROPERTY
Valence
SciTegic.value.DoubleValue
6.734

@<SCITEGIC>MOL_PROPERTY
Coulomb
SciTegic.value.DoubleValue
-0.068

@<SCITEGIC>MOL_PROPERTY
VdW
SciTegic.value.DoubleValue
0.598

@<SCITEGIC>MOL_PROPERTY
VdW6
SciTegic.value.DoubleValue
-4.819

@<SCITEGIC>MOL_PROPERTY
VdW12
SciTegic.value.DoubleValue
5.417

@<SCITEGIC>MOL_PROPERTY
Bond
SciTegic.value.DoubleValue
0.107

@<SCITEGIC>MOL_PROPERTY
Angle
SciTegic.value.DoubleValue
2.469

@<SCITEGIC>MOL_PROPERTY
Pdih
SciTegic.value.DoubleValue
4.157

@<SCITEGIC>MOL_PROPERTY
Idih
SciTegic.value.DoubleValue
0.001

@<SCITEGIC>MOL_PROPERTY
Tether
SciTegic.value.DoubleValue
0.000

@<TRIPOS>MOLECULE
guest-s18_confgen4.mol2 : confsearch ligand conformer 925
          16          15           1
SMALL
USER_CHARGES
 
@<TRIPOS>ATOM
       1    C1      22.375171   19.893816   22.225267 C.2        1 MOL1         0.6075
       2    O1      22.642964   20.764833   21.421551 O.co2      1 MOL1        -0.6830
       3    O2      22.642786   19.966910   23.408187 O.co2      1 MOL1        -0.6830
       4    C2      21.687181   18.630527   21.715108 C.3        1 MOL1        -0.2050
       5    H1      21.829967   17.831343   22.452673 H          1 MOL1         0.0710
       6    H2      22.209837   18.317530   20.803463 H          1 MOL1         0.0710
       7    C3      20.177779   18.812457   21.409098 C.3        1 MOL1        -0.1947
       8    H3      20.048211   19.634401   20.691292 H          1 MOL1         0.0712
       9    H4      19.801114   17.903652   20.920472 H          1 MOL1         0.0712
      10    C4      19.343775   19.090398   22.678495 C.3        1 MOL1        -0.1921
      11    H5      19.698709   20.009617   23.165098 H          1 MOL1         0.0712
      12    H6      19.484080   18.273860   23.400268 H          1 MOL1         0.0712
      13    C5      17.844267   19.233391   22.350818 C.3        1 MOL1        -0.2936
      14    H7      17.672398   20.064042   21.653730 H          1 MOL1         0.0724
      15    H8      17.266415   19.431299   23.262978 H          1 MOL1         0.0724
      16    H9      17.452447   18.315206   21.893842 H          1 MOL1         0.0724
@<TRIPOS>BOND
    1     1     2    1
    2     1     3    2
    3     1     4    1
    4     4     5    1
    5     4     6    1
    6     4     7    1
    7     7     8    1
    8     7     9    1
    9     7    10    1
   10    10    11    1
   11    10    12    1
   12    10    13    1
   13    13    14    1
   14    13    15    1
   15    13    16    1
@<TRIPOS>SUBSTRUCTURE
       1 MOL1            1 RESIDUE      1      MOL     
@<SCITEGIC>MOL_PROPERTY
VConf Rank
SciTegic.value.IntegerValue
925

@<SCITEGIC>MOL_PROPERTY
Conf_Id
SciTegic.value.IntegerValue
19

@<SCITEGIC>MOL_PROPERTY
Delta U+W
SciTegic.value.DoubleValue
0.048

@<SCITEGIC>MOL_PROPERTY
U+W
SciTegic.value.DoubleValue
-56.856

@<SCITEGIC>MOL_PROPERTY
Grad RMS
SciTegic.value.DoubleValue
0.000000

@<SCITEGIC>MOL_PROPERTY
U
SciTegic.value.DoubleValue
8.276

@<SCITEGIC>MOL_PROPERTY
W
SciTegic.value.DoubleValue
-65.132

@<SCITEGIC>MOL_PROPERTY
W(PB)
SciTegic.value.DoubleValue
-67.031

@<SCITEGIC>MOL_PROPERTY
W(SA)
SciTegic.value.DoubleValue
1.899

@<SCITEGIC>MOL_PROPERTY
Valence
SciTegic.value.DoubleValue
6.513

@<SCITEGIC>MOL_PROPERTY
Coulomb
SciTegic.value.DoubleValue
1.428

@<SCITEGIC>MOL_PROPERTY
VdW
SciTegic.value.DoubleValue
0.335

@<SCITEGIC>MOL_PROPERTY
VdW6
SciTegic.value.DoubleValue
-5.021

@<SCITEGIC>MOL_PROPERTY
VdW12
SciTegic.value.DoubleValue
5.356

@<SCITEGIC>MOL_PROPERTY
Bond
SciTegic.value.DoubleValue
0.092

@<SCITEGIC>MOL_PROPERTY
Angle
SciTegic.value.DoubleValue
2.417

@<SCITEGIC>MOL_PROPERTY
Pdih
SciTegic.value.DoubleValue
4.003

@<SCITEGIC>MOL_PROPERTY
Idih
SciTegic.value.DoubleValue
0.001

@<SCITEGIC>MOL_PROPERTY
Tether
SciTegic.value.DoubleValue
0.000

@<TRIPOS>MOLECULE
guest-s18_confgen4.mol2 : confsearch ligand conformer 926
          16          15           1
SMALL
USER_CHARGES
 
@<TRIPOS>ATOM
       1    C1      20.188072   19.406007   19.757529 C.2        1 MOL1         0.6075
       2    O1      20.706895   18.439720   19.234602 O.co2      1 MOL1        -0.6830
       3    O2      20.564498   20.547635   19.580750 O.co2      1 MOL1        -0.6830
       4    C2      18.984323   19.172886   20.666452 C.3        1 MOL1        -0.2050
       5    H1      18.316269   18.471351   20.152849 H          1 MOL1         0.0710
       6    H2      18.434704   20.116513   20.769281 H          1 MOL1         0.0710
       7    C3      19.347949   18.610568   22.065244 C.3        1 MOL1        -0.1947
       8    H3      18.422614   18.344793   22.594090 H          1 MOL1         0.0712
       9    H4      19.922255   17.681267   21.946106 H          1 MOL1         0.0712
      10    C4      20.150978   19.615759   22.919016 C.3        1 MOL1        -0.1921
      11    H5      19.580875   20.548884   23.026897 H          1 MOL1         0.0712
      12    H6      21.089531   19.873557   22.408739 H          1 MOL1         0.0712
      13    C5      20.469845   19.045106   24.315092 C.3        1 MOL1        -0.2936
      14    H7      19.548256   18.809777   24.863461 H          1 MOL1         0.0724
      15    H8      21.041171   19.771030   24.908168 H          1 MOL1         0.0724
      16    H9      21.066564   18.126826   24.236745 H          1 MOL1         0.0724
@<TRIPOS>BOND
    1     1     2    1
    2     1     3    2
    3     1     4    1
    4     4     5    1
    5     4     6    1
    6     4     7    1
    7     7     8    1
    8     7     9    1
    9     7    10    1
   10    10    11    1
   11    10    12    1
   12    10    13    1
   13    13    14    1
   14    13    15    1
   15    13    16    1
@<TRIPOS>SUBSTRUCTURE
       1 MOL1            1 RESIDUE      1      MOL     
@<SCITEGIC>MOL_PROPERTY
VConf Rank
SciTegic.value.IntegerValue
926

@<SCITEGIC>MOL_PROPERTY
Conf_Id
SciTegic.value.IntegerValue
20

@<SCITEGIC>MOL_PROPERTY
Delta U+W
SciTegic.value.DoubleValue
-0.010

@<SCITEGIC>MOL_PROPERTY
U+W
SciTegic.value.DoubleValue
-56.914

@<SCITEGIC>MOL_PROPERTY
Grad RMS
SciTegic.value.DoubleValue
0.000000

@<SCITEGIC>MOL_PROPERTY
U
SciTegic.value.DoubleValue
8.277

@<SCITEGIC>MOL_PROPERTY
W
SciTegic.value.DoubleValue
-65.191

@<SCITEGIC>MOL_PROPERTY
W(PB)
SciTegic.value.DoubleValue
-67.081

@<SCITEGIC>MOL_PROPERTY
W(SA)
SciTegic.value.DoubleValue
1.890

@<SCITEGIC>MOL_PROPERTY
Valence
SciTegic.value.DoubleValue
6.513

@<SCITEGIC>MOL_PROPERTY
Coulomb
SciTegic.value.DoubleValue
1.429

@<SCITEGIC>MOL_PROPERTY
VdW
SciTegic.value.DoubleValue
0.335

@<SCITEGIC>MOL_PROPERTY
VdW6
SciTegic.value.DoubleValue
-5.021

@<SCITEGIC>MOL_PROPERTY
VdW12
SciTegic.value.DoubleValue
5.356

@<SCITEGIC>MOL_PROPERTY
Bond
SciTegic.value.DoubleValue
0.092

@<SCITEGIC>MOL_PROPERTY
Angle
SciTegic.value.DoubleValue
2.417

@<SCITEGIC>MOL_PROPERTY
Pdih
SciTegic.value.DoubleValue
4.002

@<SCITEGIC>MOL_PROPERTY
Idih
SciTegic.value.DoubleValue
0.001

@<SCITEGIC>MOL_PROPERTY
Tether
SciTegic.value.DoubleValue
0.000

@<TRIPOS>MOLECULE
guest-s18_confgen4.mol2 : confsearch ligand conformer 927
          16          15           1
SMALL
USER_CHARGES
 
@<TRIPOS>ATOM
       1    C1      20.397874   20.068238   20.299090 C.2        1 MOL1         0.6075
       2    O1      20.355312   21.267028   20.104465 O.co2      1 MOL1        -0.6830
       3    O2      19.954834   19.246792   19.521117 O.co2      1 MOL1        -0.6830
       4    C2      21.074722   19.569539   21.573029 C.3        1 MOL1        -0.2050
       5    H1      22.052874   20.060650   21.635546 H          1 MOL1         0.0710
       6    H2      21.272644   18.496528   21.469490 H          1 MOL1         0.0710
       7    C3      20.273581   19.855613   22.872649 C.3        1 MOL1        -0.1947
       8    H3      20.868114   19.537375   23.739613 H          1 MOL1         0.0712
       9    H4      20.139914   20.941642   22.972792 H          1 MOL1         0.0712
      10    C4      18.885742   19.173946   22.929427 C.3        1 MOL1        -0.1921
      11    H5      18.268037   19.511270   22.085478 H          1 MOL1         0.0712
      12    H6      18.368785   19.502465   23.841545 H          1 MOL1         0.0712
      13    C5      18.964290   17.632430   22.929363 C.3        1 MOL1        -0.2936
      14    H7      19.363248   17.254286   21.979454 H          1 MOL1         0.0724
      15    H8      17.965791   17.197511   23.066133 H          1 MOL1         0.0724
      16    H9      19.605838   17.270436   23.743269 H          1 MOL1         0.0724
@<TRIPOS>BOND
    1     1     2    1
    2     1     3    2
    3     1     4    1
    4     4     5    1
    5     4     6    1
    6     4     7    1
    7     7     8    1
    8     7     9    1
    9     7    10    1
   10    10    11    1
   11    10    12    1
   12    10    13    1
   13    13    14    1
   14    13    15    1
   15    13    16    1
@<TRIPOS>SUBSTRUCTURE
       1 MOL1            1 RESIDUE      1      MOL     
@<SCITEGIC>MOL_PROPERTY
VConf Rank
SciTegic.value.IntegerValue
927

@<SCITEGIC>MOL_PROPERTY
Conf_Id
SciTegic.value.IntegerValue
37

@<SCITEGIC>MOL_PROPERTY
Delta U+W
SciTegic.value.DoubleValue
1.063

@<SCITEGIC>MOL_PROPERTY
U+W
SciTegic.value.DoubleValue
-55.841

@<SCITEGIC>MOL_PROPERTY
Grad RMS
SciTegic.value.DoubleValue
0.000000

@<SCITEGIC>MOL_PROPERTY
U
SciTegic.value.DoubleValue
9.719

@<SCITEGIC>MOL_PROPERTY
W
SciTegic.value.DoubleValue
-65.560

@<SCITEGIC>MOL_PROPERTY
W(PB)
SciTegic.value.DoubleValue
-67.414

@<SCITEGIC>MOL_PROPERTY
W(SA)
SciTegic.value.DoubleValue
1.854

@<SCITEGIC>MOL_PROPERTY
Valence
SciTegic.value.DoubleValue
7.002

@<SCITEGIC>MOL_PROPERTY
Coulomb
SciTegic.value.DoubleValue
2.402

@<SCITEGIC>MOL_PROPERTY
VdW
SciTegic.value.DoubleValue
0.314

@<SCITEGIC>MOL_PROPERTY
VdW6
SciTegic.value.DoubleValue
-5.861

@<SCITEGIC>MOL_PROPERTY
VdW12
SciTegic.value.DoubleValue
6.175

@<SCITEGIC>MOL_PROPERTY
Bond
SciTegic.value.DoubleValue
0.134

@<SCITEGIC>MOL_PROPERTY
Angle
SciTegic.value.DoubleValue
2.733

@<SCITEGIC>MOL_PROPERTY
Pdih
SciTegic.value.DoubleValue
4.133

@<SCITEGIC>MOL_PROPERTY
Idih
SciTegic.value.DoubleValue
0.002

@<SCITEGIC>MOL_PROPERTY
Tether
SciTegic.value.DoubleValue
0.000

@<TRIPOS>MOLECULE
guest-s18_confgen4.mol2 : confsearch ligand conformer 928
          16          15           1
SMALL
USER_CHARGES
 
@<TRIPOS>ATOM
       1    C1      21.426749   20.247921   20.862295 C.2        1 MOL1         0.6075
       2    O1      22.639225   20.215019   20.937161 O.co2      1 MOL1        -0.6830
       3    O2      20.816962   20.150036   19.815930 O.co2      1 MOL1        -0.6830
       4    C2      20.631739   20.458201   22.148175 C.3        1 MOL1        -0.2050
       5    H1      19.604251   20.734767   21.885443 H          1 MOL1         0.0710
       6    H2      21.064868   21.325258   22.660516 H          1 MOL1         0.0710
       7    C3      20.641595   19.237614   23.108773 C.3        1 MOL1        -0.1947
       8    H3      21.680486   19.021700   23.394154 H          1 MOL1         0.0712
       9    H4      20.116827   19.504761   24.035931 H          1 MOL1         0.0712
      10    C4      20.009031   17.955416   22.517315 C.3        1 MOL1        -0.1921
      11    H5      20.138838   17.134575   23.235993 H          1 MOL1         0.0712
      12    H6      20.547941   17.657509   21.607136 H          1 MOL1         0.0712
      13    C5      18.505816   18.108011   22.201878 C.3        1 MOL1        -0.2936
      14    H7      17.948924   18.439976   23.087731 H          1 MOL1         0.0724
      15    H8      18.083069   17.148948   21.875776 H          1 MOL1         0.0724
      16    H9      18.339978   18.834438   21.396094 H          1 MOL1         0.0724
@<TRIPOS>BOND
    1     1     2    1
    2     1     3    2
    3     1     4    1
    4     4     5    1
    5     4     6    1
    6     4     7    1
    7     7     8    1
    8     7     9    1
    9     7    10    1
   10    10    11    1
   11    10    12    1
   12    10    13    1
   13    13    14    1
   14    13    15    1
   15    13    16    1
@<TRIPOS>SUBSTRUCTURE
       1 MOL1            1 RESIDUE      1      MOL     
@<SCITEGIC>MOL_PROPERTY
VConf Rank
SciTegic.value.IntegerValue
928

@<SCITEGIC>MOL_PROPERTY
Conf_Id
SciTegic.value.IntegerValue
39

@<SCITEGIC>MOL_PROPERTY
Delta U+W
SciTegic.value.DoubleValue
1.129

@<SCITEGIC>MOL_PROPERTY
U+W
SciTegic.value.DoubleValue
-55.775

@<SCITEGIC>MOL_PROPERTY
Grad RMS
SciTegic.value.DoubleValue
0.000000

@<SCITEGIC>MOL_PROPERTY
U
SciTegic.value.DoubleValue
9.718

@<SCITEGIC>MOL_PROPERTY
W
SciTegic.value.DoubleValue
-65.493

@<SCITEGIC>MOL_PROPERTY
W(PB)
SciTegic.value.DoubleValue
-67.361

@<SCITEGIC>MOL_PROPERTY
W(SA)
SciTegic.value.DoubleValue
1.869

@<SCITEGIC>MOL_PROPERTY
Valence
SciTegic.value.DoubleValue
7.002

@<SCITEGIC>MOL_PROPERTY
Coulomb
SciTegic.value.DoubleValue
2.402

@<SCITEGIC>MOL_PROPERTY
VdW
SciTegic.value.DoubleValue
0.314

@<SCITEGIC>MOL_PROPERTY
VdW6
SciTegic.value.DoubleValue
-5.861

@<SCITEGIC>MOL_PROPERTY
VdW12
SciTegic.value.DoubleValue
6.175

@<SCITEGIC>MOL_PROPERTY
Bond
SciTegic.value.DoubleValue
0.134

@<SCITEGIC>MOL_PROPERTY
Angle
SciTegic.value.DoubleValue
2.734

@<SCITEGIC>MOL_PROPERTY
Pdih
SciTegic.value.DoubleValue
4.133

@<SCITEGIC>MOL_PROPERTY
Idih
SciTegic.value.DoubleValue
0.002

@<SCITEGIC>MOL_PROPERTY
Tether
SciTegic.value.DoubleValue
0.000

@<TRIPOS>MOLECULE
guest-s18_confgen4.mol2 : confsearch ligand conformer 929
          16          15           1
SMALL
USER_CHARGES
 
@<TRIPOS>ATOM
       1    C1      18.869545   17.867435   23.473933 C.2        1 MOL1         0.6075
       2    O1      19.531837   17.540141   24.438852 O.co2      1 MOL1        -0.6830
       3    O2      18.247563   17.077656   22.790890 O.co2      1 MOL1        -0.6830
       4    C2      18.740958   19.356789   23.159378 C.3        1 MOL1        -0.2050
       5    H1      19.294727   19.929793   23.913025 H          1 MOL1         0.0710
       6    H2      17.682206   19.609565   23.289373 H          1 MOL1         0.0710
       7    C3      19.187871   19.775048   21.730283 C.3        1 MOL1        -0.1947
       8    H3      18.789446   19.066454   20.990897 H          1 MOL1         0.0712
       9    H4      18.725097   20.744325   21.500513 H          1 MOL1         0.0712
      10    C4      20.717422   19.927760   21.549413 C.3        1 MOL1        -0.1921
      11    H5      21.112071   20.635338   22.291583 H          1 MOL1         0.0712
      12    H6      20.907596   20.375990   20.564417 H          1 MOL1         0.0712
      13    C5      21.492116   18.596508   21.638309 C.3        1 MOL1        -0.2936
      14    H7      21.470428   18.188935   22.656353 H          1 MOL1         0.0724
      15    H8      22.544679   18.745866   21.365231 H          1 MOL1         0.0724
      16    H9      21.067729   17.847216   20.957290 H          1 MOL1         0.0724
@<TRIPOS>BOND
    1     1     2    1
    2     1     3    2
    3     1     4    1
    4     4     5    1
    5     4     6    1
    6     4     7    1
    7     7     8    1
    8     7     9    1
    9     7    10    1
   10    10    11    1
   11    10    12    1
   12    10    13    1
   13    13    14    1
   14    13    15    1
   15    13    16    1
@<TRIPOS>SUBSTRUCTURE
       1 MOL1            1 RESIDUE      1      MOL     
@<SCITEGIC>MOL_PROPERTY
VConf Rank
SciTegic.value.IntegerValue
929

@<SCITEGIC>MOL_PROPERTY
Conf_Id
SciTegic.value.IntegerValue
47

@<SCITEGIC>MOL_PROPERTY
Delta U+W
SciTegic.value.DoubleValue
2.301

@<SCITEGIC>MOL_PROPERTY
U+W
SciTegic.value.DoubleValue
-54.603

@<SCITEGIC>MOL_PROPERTY
Grad RMS
SciTegic.value.DoubleValue
0.000000

@<SCITEGIC>MOL_PROPERTY
U
SciTegic.value.DoubleValue
11.258

@<SCITEGIC>MOL_PROPERTY
W
SciTegic.value.DoubleValue
-65.861

@<SCITEGIC>MOL_PROPERTY
W(PB)
SciTegic.value.DoubleValue
-67.702

@<SCITEGIC>MOL_PROPERTY
W(SA)
SciTegic.value.DoubleValue
1.841

@<SCITEGIC>MOL_PROPERTY
Valence
SciTegic.value.DoubleValue
8.169

@<SCITEGIC>MOL_PROPERTY
Coulomb
SciTegic.value.DoubleValue
2.735

@<SCITEGIC>MOL_PROPERTY
VdW
SciTegic.value.DoubleValue
0.355

@<SCITEGIC>MOL_PROPERTY
VdW6
SciTegic.value.DoubleValue
-6.245

@<SCITEGIC>MOL_PROPERTY
VdW12
SciTegic.value.DoubleValue
6.600

@<SCITEGIC>MOL_PROPERTY
Bond
SciTegic.value.DoubleValue
0.149

@<SCITEGIC>MOL_PROPERTY
Angle
SciTegic.value.DoubleValue
3.168

@<SCITEGIC>MOL_PROPERTY
Pdih
SciTegic.value.DoubleValue
4.840

@<SCITEGIC>MOL_PROPERTY
Idih
SciTegic.value.DoubleValue
0.011

@<SCITEGIC>MOL_PROPERTY
Tether
SciTegic.value.DoubleValue
0.000

@<TRIPOS>MOLECULE
guest-s18_confgen4.mol2 : confsearch ligand conformer 930
          16          15           1
SMALL
USER_CHARGES
 
@<TRIPOS>ATOM
       1    C1      19.501617   17.160063   22.431376 C.2        1 MOL1         0.6075
       2    O1      18.695691   16.993778   23.325798 O.co2      1 MOL1        -0.6830
       3    O2      20.519431   16.505761   22.318410 O.co2      1 MOL1        -0.6830
       4    C2      19.176288   18.181198   21.342747 C.3        1 MOL1        -0.2050
       5    H1      18.254003   17.835914   20.861169 H          1 MOL1         0.0710
       6    H2      19.960806   18.148568   20.576950 H          1 MOL1         0.0710
       7    C3      18.970434   19.639742   21.840000 C.3        1 MOL1        -0.1947
       8    H3      18.403620   20.182933   21.071808 H          1 MOL1         0.0712
       9    H4      18.340267   19.643061   22.740233 H          1 MOL1         0.0712
      10    C4      20.278396   20.423990   22.104105 C.3        1 MOL1        -0.1921
      11    H5      20.020897   21.475482   22.292135 H          1 MOL1         0.0712
      12    H6      20.906286   20.416745   21.202477 H          1 MOL1         0.0712
      13    C5      21.089834   19.897147   23.305891 C.3        1 MOL1        -0.2936
      14    H7      21.926182   20.571796   23.529810 H          1 MOL1         0.0724
      15    H8      21.512057   18.906187   23.099187 H          1 MOL1         0.0724
      16    H9      20.462345   19.824652   24.203851 H          1 MOL1         0.0724
@<TRIPOS>BOND
    1     1     2    1
    2     1     3    2
    3     1     4    1
    4     4     5    1
    5     4     6    1
    6     4     7    1
    7     7     8    1
    8     7     9    1
    9     7    10    1
   10    10    11    1
   11    10    12    1
   12    10    13    1
   13    13    14    1
   14    13    15    1
   15    13    16    1
@<TRIPOS>SUBSTRUCTURE
       1 MOL1            1 RESIDUE      1      MOL     
@<SCITEGIC>MOL_PROPERTY
VConf Rank
SciTegic.value.IntegerValue
930

@<SCITEGIC>MOL_PROPERTY
Conf_Id
SciTegic.value.IntegerValue
45

@<SCITEGIC>MOL_PROPERTY
Delta U+W
SciTegic.value.DoubleValue
2.303

@<SCITEGIC>MOL_PROPERTY
U+W
SciTegic.value.DoubleValue
-54.601

@<SCITEGIC>MOL_PROPERTY
Grad RMS
SciTegic.value.DoubleValue
0.000000

@<SCITEGIC>MOL_PROPERTY
U
SciTegic.value.DoubleValue
11.258

@<SCITEGIC>MOL_PROPERTY
W
SciTegic.value.DoubleValue
-65.860

@<SCITEGIC>MOL_PROPERTY
W(PB)
SciTegic.value.DoubleValue
-67.709

@<SCITEGIC>MOL_PROPERTY
W(SA)
SciTegic.value.DoubleValue
1.849

@<SCITEGIC>MOL_PROPERTY
Valence
SciTegic.value.DoubleValue
8.169

@<SCITEGIC>MOL_PROPERTY
Coulomb
SciTegic.value.DoubleValue
2.735

@<SCITEGIC>MOL_PROPERTY
VdW
SciTegic.value.DoubleValue
0.355

@<SCITEGIC>MOL_PROPERTY
VdW6
SciTegic.value.DoubleValue
-6.245

@<SCITEGIC>MOL_PROPERTY
VdW12
SciTegic.value.DoubleValue
6.600

@<SCITEGIC>MOL_PROPERTY
Bond
SciTegic.value.DoubleValue
0.149

@<SCITEGIC>MOL_PROPERTY
Angle
SciTegic.value.DoubleValue
3.168

@<SCITEGIC>MOL_PROPERTY
Pdih
SciTegic.value.DoubleValue
4.840

@<SCITEGIC>MOL_PROPERTY
Idih
SciTegic.value.DoubleValue
0.011

@<SCITEGIC>MOL_PROPERTY
Tether
SciTegic.value.DoubleValue
0.000

@<TRIPOS>MOLECULE
guest-s18_confgen4.mol2 : confsearch ligand conformer 931
          16          15           1
SMALL
USER_CHARGES
 
@<TRIPOS>ATOM
       1    C1      17.699875   20.600987   22.307400 C.2        1 MOL1         0.6075
       2    O1      17.066335   20.014392   21.451649 O.co2      1 MOL1        -0.6830
       3    O2      17.236349   21.507293   22.970022 O.co2      1 MOL1        -0.6830
       4    C2      19.150344   20.203125   22.586219 C.3        1 MOL1        -0.2050
       5    H1      19.217702   19.933848   23.646933 H          1 MOL1         0.0710
       6    H2      19.768373   21.097300   22.442502 H          1 MOL1         0.0710
       7    C3      19.699220   19.041802   21.715350 C.3        1 MOL1        -0.1947
       8    H3      19.072889   18.150488   21.859358 H          1 MOL1         0.0712
       9    H4      19.624141   19.315147   20.653693 H          1 MOL1         0.0712
      10    C4      21.165123   18.707677   22.062838 C.3        1 MOL1        -0.1921
      11    H5      21.241314   18.432427   23.123937 H          1 MOL1         0.0712
      12    H6      21.792907   19.597779   21.917555 H          1 MOL1         0.0712
      13    C5      21.704496   17.553714   21.194744 C.3        1 MOL1        -0.2936
      14    H7      21.113502   16.640538   21.344092 H          1 MOL1         0.0724
      15    H8      22.747190   17.328980   21.454406 H          1 MOL1         0.0724
      16    H9      21.669167   17.814483   20.128808 H          1 MOL1         0.0724
@<TRIPOS>BOND
    1     1     2    1
    2     1     3    2
    3     1     4    1
    4     4     5    1
    5     4     6    1
    6     4     7    1
    7     7     8    1
    8     7     9    1
    9     7    10    1
   10    10    11    1
   11    10    12    1
   12    10    13    1
   13    13    14    1
   14    13    15    1
   15    13    16    1
@<TRIPOS>SUBSTRUCTURE
       1 MOL1            1 RESIDUE      1      MOL     
@<SCITEGIC>MOL_PROPERTY
VConf Rank
SciTegic.value.IntegerValue
931

@<SCITEGIC>MOL_PROPERTY
Conf_Id
SciTegic.value.IntegerValue
0

@<SCITEGIC>MOL_PROPERTY
Delta U+W
SciTegic.value.DoubleValue
0.000

@<SCITEGIC>MOL_PROPERTY
U+W
SciTegic.value.DoubleValue
-56.904

@<SCITEGIC>MOL_PROPERTY
Grad RMS
SciTegic.value.DoubleValue
0.000000

@<SCITEGIC>MOL_PROPERTY
U
SciTegic.value.DoubleValue
7.329

@<SCITEGIC>MOL_PROPERTY
W
SciTegic.value.DoubleValue
-64.233

@<SCITEGIC>MOL_PROPERTY
W(PB)
SciTegic.value.DoubleValue
-66.148

@<SCITEGIC>MOL_PROPERTY
W(SA)
SciTegic.value.DoubleValue
1.915

@<SCITEGIC>MOL_PROPERTY
Valence
SciTegic.value.DoubleValue
6.755

@<SCITEGIC>MOL_PROPERTY
Coulomb
SciTegic.value.DoubleValue
-0.421

@<SCITEGIC>MOL_PROPERTY
VdW
SciTegic.value.DoubleValue
0.995

@<SCITEGIC>MOL_PROPERTY
VdW6
SciTegic.value.DoubleValue
-4.495

@<SCITEGIC>MOL_PROPERTY
VdW12
SciTegic.value.DoubleValue
5.490

@<SCITEGIC>MOL_PROPERTY
Bond
SciTegic.value.DoubleValue
0.106

@<SCITEGIC>MOL_PROPERTY
Angle
SciTegic.value.DoubleValue
2.715

@<SCITEGIC>MOL_PROPERTY
Pdih
SciTegic.value.DoubleValue
3.934

@<SCITEGIC>MOL_PROPERTY
Idih
SciTegic.value.DoubleValue
0.000

@<SCITEGIC>MOL_PROPERTY
Tether
SciTegic.value.DoubleValue
0.000

@<TRIPOS>MOLECULE
guest-s18_confgen4.mol2 : confsearch ligand conformer 932
          16          15           1
SMALL
USER_CHARGES
 
@<TRIPOS>ATOM
       1    C1      18.434945   21.301507   21.552117 C.2        1 MOL1         0.6075
       2    O1      17.322811   21.207967   22.031961 O.co2      1 MOL1        -0.6830
       3    O2      19.028408   22.354661   21.431646 O.co2      1 MOL1        -0.6830
       4    C2      19.131227   20.025314   21.092657 C.3        1 MOL1        -0.2050
       5    H1      19.770399   20.274640   20.237001 H          1 MOL1         0.0710
       6    H2      18.364243   19.329220   20.732048 H          1 MOL1         0.0710
       7    C3      19.971548   19.361082   22.211012 C.3        1 MOL1        -0.1947
       8    H3      20.726520   20.074294   22.570033 H          1 MOL1         0.0712
       9    H4      19.320314   19.128890   23.065139 H          1 MOL1         0.0712
      10    C4      20.664735   18.072998   21.720203 C.3        1 MOL1        -0.1921
      11    H5      21.316602   18.304898   20.866488 H          1 MOL1         0.0712
      12    H6      19.910031   17.359259   21.361683 H          1 MOL1         0.0712
      13    C5      21.499107   17.417438   22.838311 C.3        1 MOL1        -0.2936
      14    H7      20.865936   17.146217   23.693299 H          1 MOL1         0.0724
      15    H8      22.282882   18.098852   23.194462 H          1 MOL1         0.0724
      16    H9      21.985034   16.503356   22.472964 H          1 MOL1         0.0724
@<TRIPOS>BOND
    1     1     2    1
    2     1     3    2
    3     1     4    1
    4     4     5    1
    5     4     6    1
    6     4     7    1
    7     7     8    1
    8     7     9    1
    9     7    10    1
   10    10    11    1
   11    10    12    1
   12    10    13    1
   13    13    14    1
   14    13    15    1
   15    13    16    1
@<TRIPOS>SUBSTRUCTURE
       1 MOL1            1 RESIDUE      1      MOL     
@<SCITEGIC>MOL_PROPERTY
VConf Rank
SciTegic.value.IntegerValue
932

@<SCITEGIC>MOL_PROPERTY
Conf_Id
SciTegic.value.IntegerValue
22

@<SCITEGIC>MOL_PROPERTY
Delta U+W
SciTegic.value.DoubleValue
-1.185

@<SCITEGIC>MOL_PROPERTY
U+W
SciTegic.value.DoubleValue
-58.089

@<SCITEGIC>MOL_PROPERTY
Grad RMS
SciTegic.value.DoubleValue
0.000000

@<SCITEGIC>MOL_PROPERTY
U
SciTegic.value.DoubleValue
6.298

@<SCITEGIC>MOL_PROPERTY
W
SciTegic.value.DoubleValue
-64.387

@<SCITEGIC>MOL_PROPERTY
W(PB)
SciTegic.value.DoubleValue
-66.329

@<SCITEGIC>MOL_PROPERTY
W(SA)
SciTegic.value.DoubleValue
1.942

@<SCITEGIC>MOL_PROPERTY
Valence
SciTegic.value.DoubleValue
6.246

@<SCITEGIC>MOL_PROPERTY
Coulomb
SciTegic.value.DoubleValue
-0.408

@<SCITEGIC>MOL_PROPERTY
VdW
SciTegic.value.DoubleValue
0.460

@<SCITEGIC>MOL_PROPERTY
VdW6
SciTegic.value.DoubleValue
-4.207

@<SCITEGIC>MOL_PROPERTY
VdW12
SciTegic.value.DoubleValue
4.667

@<SCITEGIC>MOL_PROPERTY
Bond
SciTegic.value.DoubleValue
0.072

@<SCITEGIC>MOL_PROPERTY
Angle
SciTegic.value.DoubleValue
2.246

@<SCITEGIC>MOL_PROPERTY
Pdih
SciTegic.value.DoubleValue
3.928

@<SCITEGIC>MOL_PROPERTY
Idih
SciTegic.value.DoubleValue
0.001

@<SCITEGIC>MOL_PROPERTY
Tether
SciTegic.value.DoubleValue
0.000

@<TRIPOS>MOLECULE
guest-s18_confgen4.mol2 : confsearch ligand conformer 933
          16          15           1
SMALL
USER_CHARGES
 
@<TRIPOS>ATOM
       1    C1      19.826595   18.274425   19.555517 C.2        1 MOL1         0.6075
       2    O1      19.981296   17.102608   19.274610 O.co2      1 MOL1        -0.6830
       3    O2      19.960284   19.179795   18.756524 O.co2      1 MOL1        -0.6830
       4    C2      19.464752   18.628897   20.993568 C.3        1 MOL1        -0.2050
       5    H1      18.857113   17.812901   21.402823 H          1 MOL1         0.0710
       6    H2      18.832712   19.523891   20.968470 H          1 MOL1         0.0710
       7    C3      20.710718   18.866520   21.885811 C.3        1 MOL1        -0.1947
       8    H3      21.365028   17.986162   21.820417 H          1 MOL1         0.0712
       9    H4      21.288661   19.713225   21.490359 H          1 MOL1         0.0712
      10    C4      20.364686   19.118915   23.371397 C.3        1 MOL1        -0.1921
      11    H5      21.298596   19.167270   23.948269 H          1 MOL1         0.0712
      12    H6      19.796844   18.266980   23.770325 H          1 MOL1         0.0712
      13    C5      19.571368   20.423541   23.598403 C.3        1 MOL1        -0.2936
      14    H7      18.579113   20.375571   23.132667 H          1 MOL1         0.0724
      15    H8      20.106800   21.286539   23.181514 H          1 MOL1         0.0724
      16    H9      19.426153   20.602333   24.671694 H          1 MOL1         0.0724
@<TRIPOS>BOND
    1     1     2    1
    2     1     3    2
    3     1     4    1
    4     4     5    1
    5     4     6    1
    6     4     7    1
    7     7     8    1
    8     7     9    1
    9     7    10    1
   10    10    11    1
   11    10    12    1
   12    10    13    1
   13    13    14    1
   14    13    15    1
   15    13    16    1
@<TRIPOS>SUBSTRUCTURE
       1 MOL1            1 RESIDUE      1      MOL     
@<SCITEGIC>MOL_PROPERTY
VConf Rank
SciTegic.value.IntegerValue
933

@<SCITEGIC>MOL_PROPERTY
Conf_Id
SciTegic.value.IntegerValue
36

@<SCITEGIC>MOL_PROPERTY
Delta U+W
SciTegic.value.DoubleValue
-0.427

@<SCITEGIC>MOL_PROPERTY
U+W
SciTegic.value.DoubleValue
-57.331

@<SCITEGIC>MOL_PROPERTY
Grad RMS
SciTegic.value.DoubleValue
0.000000

@<SCITEGIC>MOL_PROPERTY
U
SciTegic.value.DoubleValue
7.263

@<SCITEGIC>MOL_PROPERTY
W
SciTegic.value.DoubleValue
-64.594

@<SCITEGIC>MOL_PROPERTY
W(PB)
SciTegic.value.DoubleValue
-66.513

@<SCITEGIC>MOL_PROPERTY
W(SA)
SciTegic.value.DoubleValue
1.920

@<SCITEGIC>MOL_PROPERTY
Valence
SciTegic.value.DoubleValue
6.734

@<SCITEGIC>MOL_PROPERTY
Coulomb
SciTegic.value.DoubleValue
-0.068

@<SCITEGIC>MOL_PROPERTY
VdW
SciTegic.value.DoubleValue
0.598

@<SCITEGIC>MOL_PROPERTY
VdW6
SciTegic.value.DoubleValue
-4.819

@<SCITEGIC>MOL_PROPERTY
VdW12
SciTegic.value.DoubleValue
5.417

@<SCITEGIC>MOL_PROPERTY
Bond
SciTegic.value.DoubleValue
0.107

@<SCITEGIC>MOL_PROPERTY
Angle
SciTegic.value.DoubleValue
2.469

@<SCITEGIC>MOL_PROPERTY
Pdih
SciTegic.value.DoubleValue
4.157

@<SCITEGIC>MOL_PROPERTY
Idih
SciTegic.value.DoubleValue
0.001

@<SCITEGIC>MOL_PROPERTY
Tether
SciTegic.value.DoubleValue
0.000

@<TRIPOS>MOLECULE
guest-s18_confgen4.mol2 : confsearch ligand conformer 934
          16          15           1
SMALL
USER_CHARGES
 
@<TRIPOS>ATOM
       1    C1      18.058809   20.486010   20.866546 C.2        1 MOL1         0.6075
       2    O1      16.969095   20.092561   21.232169 O.co2      1 MOL1        -0.6830
       3    O2      18.232366   21.142784   19.859313 O.co2      1 MOL1        -0.6830
       4    C2      19.277350   20.118879   21.706157 C.3        1 MOL1        -0.2050
       5    H1      18.960426   20.075475   22.754390 H          1 MOL1         0.0710
       6    H2      20.007558   20.932529   21.620499 H          1 MOL1         0.0710
       7    C3      19.921443   18.775489   21.275529 C.3        1 MOL1        -0.1947
       8    H3      19.194502   17.961960   21.406058 H          1 MOL1         0.0712
       9    H4      20.147657   18.820619   20.201183 H          1 MOL1         0.0712
      10    C4      21.221446   18.442314   22.043250 C.3        1 MOL1        -0.1921
      11    H5      21.952834   19.250301   21.903216 H          1 MOL1         0.0712
      12    H6      21.668587   17.539173   21.605404 H          1 MOL1         0.0712
      13    C5      20.993636   18.203919   23.551296 C.3        1 MOL1        -0.2936
      14    H7      20.652990   19.117381   24.054616 H          1 MOL1         0.0724
      15    H8      21.926718   17.886639   24.034719 H          1 MOL1         0.0724
      16    H9      20.243871   17.419105   23.716133 H          1 MOL1         0.0724
@<TRIPOS>BOND
    1     1     2    1
    2     1     3    2
    3     1     4    1
    4     4     5    1
    5     4     6    1
    6     4     7    1
    7     7     8    1
    8     7     9    1
    9     7    10    1
   10    10    11    1
   11    10    12    1
   12    10    13    1
   13    13    14    1
   14    13    15    1
   15    13    16    1
@<TRIPOS>SUBSTRUCTURE
       1 MOL1            1 RESIDUE      1      MOL     
@<SCITEGIC>MOL_PROPERTY
VConf Rank
SciTegic.value.IntegerValue
934

@<SCITEGIC>MOL_PROPERTY
Conf_Id
SciTegic.value.IntegerValue
17

@<SCITEGIC>MOL_PROPERTY
Delta U+W
SciTegic.value.DoubleValue
-0.432

@<SCITEGIC>MOL_PROPERTY
U+W
SciTegic.value.DoubleValue
-57.336

@<SCITEGIC>MOL_PROPERTY
Grad RMS
SciTegic.value.DoubleValue
0.000000

@<SCITEGIC>MOL_PROPERTY
U
SciTegic.value.DoubleValue
7.263

@<SCITEGIC>MOL_PROPERTY
W
SciTegic.value.DoubleValue
-64.599

@<SCITEGIC>MOL_PROPERTY
W(PB)
SciTegic.value.DoubleValue
-66.503

@<SCITEGIC>MOL_PROPERTY
W(SA)
SciTegic.value.DoubleValue
1.904

@<SCITEGIC>MOL_PROPERTY
Valence
SciTegic.value.DoubleValue
6.734

@<SCITEGIC>MOL_PROPERTY
Coulomb
SciTegic.value.DoubleValue
-0.068

@<SCITEGIC>MOL_PROPERTY
VdW
SciTegic.value.DoubleValue
0.598

@<SCITEGIC>MOL_PROPERTY
VdW6
SciTegic.value.DoubleValue
-4.819

@<SCITEGIC>MOL_PROPERTY
VdW12
SciTegic.value.DoubleValue
5.417

@<SCITEGIC>MOL_PROPERTY
Bond
SciTegic.value.DoubleValue
0.107

@<SCITEGIC>MOL_PROPERTY
Angle
SciTegic.value.DoubleValue
2.469

@<SCITEGIC>MOL_PROPERTY
Pdih
SciTegic.value.DoubleValue
4.157

@<SCITEGIC>MOL_PROPERTY
Idih
SciTegic.value.DoubleValue
0.001

@<SCITEGIC>MOL_PROPERTY
Tether
SciTegic.value.DoubleValue
0.000

@<TRIPOS>MOLECULE
guest-s18_confgen4.mol2 : confsearch ligand conformer 935
          16          15           1
SMALL
USER_CHARGES
 
@<TRIPOS>ATOM
       1    C1      19.864186   17.095185   20.921131 C.2        1 MOL1         0.6075
       2    O1      20.855410   16.392547   20.931903 O.co2      1 MOL1        -0.6830
       3    O2      18.751205   16.689715   21.191558 O.co2      1 MOL1        -0.6830
       4    C2      20.024446   18.559846   20.522911 C.3        1 MOL1        -0.2050
       5    H1      19.043853   18.951907   20.226587 H          1 MOL1         0.0710
       6    H2      20.660562   18.589558   19.630327 H          1 MOL1         0.0710
       7    C3      20.644737   19.451582   21.629744 C.3        1 MOL1        -0.1947
       8    H3      21.612562   19.031016   21.936442 H          1 MOL1         0.0712
       9    H4      20.850404   20.446549   21.212250 H          1 MOL1         0.0712
      10    C4      19.724014   19.596894   22.860734 C.3        1 MOL1        -0.1921
      11    H5      19.527769   18.608604   23.299476 H          1 MOL1         0.0712
      12    H6      18.752436   20.005859   22.550636 H          1 MOL1         0.0712
      13    C5      20.349034   20.514442   23.930220 C.3        1 MOL1        -0.2936
      14    H7      21.308510   20.111796   24.280549 H          1 MOL1         0.0724
      15    H8      19.682879   20.606268   24.797932 H          1 MOL1         0.0724
      16    H9      20.525095   21.521514   23.529939 H          1 MOL1         0.0724
@<TRIPOS>BOND
    1     1     2    1
    2     1     3    2
    3     1     4    1
    4     4     5    1
    5     4     6    1
    6     4     7    1
    7     7     8    1
    8     7     9    1
    9     7    10    1
   10    10    11    1
   11    10    12    1
   12    10    13    1
   13    13    14    1
   14    13    15    1
   15    13    16    1
@<TRIPOS>SUBSTRUCTURE
       1 MOL1            1 RESIDUE      1      MOL     
@<SCITEGIC>MOL_PROPERTY
VConf Rank
SciTegic.value.IntegerValue
935

@<SCITEGIC>MOL_PROPERTY
Conf_Id
SciTegic.value.IntegerValue
19

@<SCITEGIC>MOL_PROPERTY
Delta U+W
SciTegic.value.DoubleValue
0.048

@<SCITEGIC>MOL_PROPERTY
U+W
SciTegic.value.DoubleValue
-56.856

@<SCITEGIC>MOL_PROPERTY
Grad RMS
SciTegic.value.DoubleValue
0.000000

@<SCITEGIC>MOL_PROPERTY
U
SciTegic.value.DoubleValue
8.276

@<SCITEGIC>MOL_PROPERTY
W
SciTegic.value.DoubleValue
-65.132

@<SCITEGIC>MOL_PROPERTY
W(PB)
SciTegic.value.DoubleValue
-67.031

@<SCITEGIC>MOL_PROPERTY
W(SA)
SciTegic.value.DoubleValue
1.899

@<SCITEGIC>MOL_PROPERTY
Valence
SciTegic.value.DoubleValue
6.513

@<SCITEGIC>MOL_PROPERTY
Coulomb
SciTegic.value.DoubleValue
1.428

@<SCITEGIC>MOL_PROPERTY
VdW
SciTegic.value.DoubleValue
0.335

@<SCITEGIC>MOL_PROPERTY
VdW6
SciTegic.value.DoubleValue
-5.021

@<SCITEGIC>MOL_PROPERTY
VdW12
SciTegic.value.DoubleValue
5.356

@<SCITEGIC>MOL_PROPERTY
Bond
SciTegic.value.DoubleValue
0.092

@<SCITEGIC>MOL_PROPERTY
Angle
SciTegic.value.DoubleValue
2.417

@<SCITEGIC>MOL_PROPERTY
Pdih
SciTegic.value.DoubleValue
4.003

@<SCITEGIC>MOL_PROPERTY
Idih
SciTegic.value.DoubleValue
0.001

@<SCITEGIC>MOL_PROPERTY
Tether
SciTegic.value.DoubleValue
0.000

@<TRIPOS>MOLECULE
guest-s18_confgen4.mol2 : confsearch ligand conformer 936
          16          15           1
SMALL
USER_CHARGES
 
@<TRIPOS>ATOM
       1    C1      18.060704   18.746474   20.613869 C.2        1 MOL1         0.6075
       2    O1      16.978255   18.716839   21.165020 O.co2      1 MOL1        -0.6830
       3    O2      18.441784   17.893536   19.836993 O.co2      1 MOL1        -0.6830
       4    C2      18.979906   19.931767   20.896084 C.3        1 MOL1        -0.2050
       5    H1      18.370404   20.841256   20.836312 H          1 MOL1         0.0710
       6    H2      19.725157   19.996262   20.093883 H          1 MOL1         0.0710
       7    C3      19.683949   19.871042   22.276548 C.3        1 MOL1        -0.1947
       8    H3      20.208596   20.820163   22.451114 H          1 MOL1         0.0712
       9    H4      18.926905   19.777941   23.067648 H          1 MOL1         0.0712
      10    C4      20.692447   18.706224   22.378147 C.3        1 MOL1        -0.1921
      11    H5      21.441514   18.793771   21.579015 H          1 MOL1         0.0712
      12    H6      20.174598   17.749044   22.225307 H          1 MOL1         0.0712
      13    C5      21.401896   18.689173   23.746629 C.3        1 MOL1        -0.2936
      14    H7      21.957629   19.621325   23.912961 H          1 MOL1         0.0724
      15    H8      22.113900   17.855484   23.802574 H          1 MOL1         0.0724
      16    H9      20.677153   18.571375   24.562915 H          1 MOL1         0.0724
@<TRIPOS>BOND
    1     1     2    1
    2     1     3    2
    3     1     4    1
    4     4     5    1
    5     4     6    1
    6     4     7    1
    7     7     8    1
    8     7     9    1
    9     7    10    1
   10    10    11    1
   11    10    12    1
   12    10    13    1
   13    13    14    1
   14    13    15    1
   15    13    16    1
@<TRIPOS>SUBSTRUCTURE
       1 MOL1            1 RESIDUE      1      MOL     
@<SCITEGIC>MOL_PROPERTY
VConf Rank
SciTegic.value.IntegerValue
936

@<SCITEGIC>MOL_PROPERTY
Conf_Id
SciTegic.value.IntegerValue
20

@<SCITEGIC>MOL_PROPERTY
Delta U+W
SciTegic.value.DoubleValue
-0.010

@<SCITEGIC>MOL_PROPERTY
U+W
SciTegic.value.DoubleValue
-56.914

@<SCITEGIC>MOL_PROPERTY
Grad RMS
SciTegic.value.DoubleValue
0.000000

@<SCITEGIC>MOL_PROPERTY
U
SciTegic.value.DoubleValue
8.277

@<SCITEGIC>MOL_PROPERTY
W
SciTegic.value.DoubleValue
-65.191

@<SCITEGIC>MOL_PROPERTY
W(PB)
SciTegic.value.DoubleValue
-67.081

@<SCITEGIC>MOL_PROPERTY
W(SA)
SciTegic.value.DoubleValue
1.890

@<SCITEGIC>MOL_PROPERTY
Valence
SciTegic.value.DoubleValue
6.513

@<SCITEGIC>MOL_PROPERTY
Coulomb
SciTegic.value.DoubleValue
1.429

@<SCITEGIC>MOL_PROPERTY
VdW
SciTegic.value.DoubleValue
0.335

@<SCITEGIC>MOL_PROPERTY
VdW6
SciTegic.value.DoubleValue
-5.021

@<SCITEGIC>MOL_PROPERTY
VdW12
SciTegic.value.DoubleValue
5.356

@<SCITEGIC>MOL_PROPERTY
Bond
SciTegic.value.DoubleValue
0.092

@<SCITEGIC>MOL_PROPERTY
Angle
SciTegic.value.DoubleValue
2.417

@<SCITEGIC>MOL_PROPERTY
Pdih
SciTegic.value.DoubleValue
4.002

@<SCITEGIC>MOL_PROPERTY
Idih
SciTegic.value.DoubleValue
0.001

@<SCITEGIC>MOL_PROPERTY
Tether
SciTegic.value.DoubleValue
0.000

@<TRIPOS>MOLECULE
guest-s18_confgen4.mol2 : confsearch ligand conformer 937
          16          15           1
SMALL
USER_CHARGES
 
@<TRIPOS>ATOM
       1    C1      20.409847   17.180401   22.800418 C.2        1 MOL1         0.6075
       2    O1      19.999793   16.670610   23.824505 O.co2      1 MOL1        -0.6830
       3    O2      21.575419   17.153360   22.458347 O.co2      1 MOL1        -0.6830
       4    C2      19.399486   17.860386   21.880344 C.3        1 MOL1        -0.2050
       5    H1      18.576784   17.153443   21.721366 H          1 MOL1         0.0710
       6    H2      19.865890   18.018520   20.901207 H          1 MOL1         0.0710
       7    C3      18.829220   19.193694   22.436909 C.3        1 MOL1        -0.1947
       8    H3      18.056595   19.568608   21.752175 H          1 MOL1         0.0712
       9    H4      18.322967   18.990001   23.390624 H          1 MOL1         0.0712
      10    C4      19.890381   20.297364   22.660152 C.3        1 MOL1        -0.1921
      11    H5      20.651321   19.946877   23.371297 H          1 MOL1         0.0712
      12    H6      19.404411   21.163749   23.129553 H          1 MOL1         0.0712
      13    C5      20.574614   20.756786   21.355085 C.3        1 MOL1        -0.2936
      14    H7      21.175865   19.950560   20.915785 H          1 MOL1         0.0724
      15    H8      21.246603   21.602215   21.551404 H          1 MOL1         0.0724
      16    H9      19.832405   21.079173   20.613291 H          1 MOL1         0.0724
@<TRIPOS>BOND
    1     1     2    1
    2     1     3    2
    3     1     4    1
    4     4     5    1
    5     4     6    1
    6     4     7    1
    7     7     8    1
    8     7     9    1
    9     7    10    1
   10    10    11    1
   11    10    12    1
   12    10    13    1
   13    13    14    1
   14    13    15    1
   15    13    16    1
@<TRIPOS>SUBSTRUCTURE
       1 MOL1            1 RESIDUE      1      MOL     
@<SCITEGIC>MOL_PROPERTY
VConf Rank
SciTegic.value.IntegerValue
937

@<SCITEGIC>MOL_PROPERTY
Conf_Id
SciTegic.value.IntegerValue
37

@<SCITEGIC>MOL_PROPERTY
Delta U+W
SciTegic.value.DoubleValue
1.063

@<SCITEGIC>MOL_PROPERTY
U+W
SciTegic.value.DoubleValue
-55.841

@<SCITEGIC>MOL_PROPERTY
Grad RMS
SciTegic.value.DoubleValue
0.000000

@<SCITEGIC>MOL_PROPERTY
U
SciTegic.value.DoubleValue
9.719

@<SCITEGIC>MOL_PROPERTY
W
SciTegic.value.DoubleValue
-65.560

@<SCITEGIC>MOL_PROPERTY
W(PB)
SciTegic.value.DoubleValue
-67.414

@<SCITEGIC>MOL_PROPERTY
W(SA)
SciTegic.value.DoubleValue
1.854

@<SCITEGIC>MOL_PROPERTY
Valence
SciTegic.value.DoubleValue
7.002

@<SCITEGIC>MOL_PROPERTY
Coulomb
SciTegic.value.DoubleValue
2.402

@<SCITEGIC>MOL_PROPERTY
VdW
SciTegic.value.DoubleValue
0.314

@<SCITEGIC>MOL_PROPERTY
VdW6
SciTegic.value.DoubleValue
-5.861

@<SCITEGIC>MOL_PROPERTY
VdW12
SciTegic.value.DoubleValue
6.175

@<SCITEGIC>MOL_PROPERTY
Bond
SciTegic.value.DoubleValue
0.134

@<SCITEGIC>MOL_PROPERTY
Angle
SciTegic.value.DoubleValue
2.733

@<SCITEGIC>MOL_PROPERTY
Pdih
SciTegic.value.DoubleValue
4.133

@<SCITEGIC>MOL_PROPERTY
Idih
SciTegic.value.DoubleValue
0.002

@<SCITEGIC>MOL_PROPERTY
Tether
SciTegic.value.DoubleValue
0.000

@<TRIPOS>MOLECULE
guest-s18_confgen4.mol2 : confsearch ligand conformer 938
          16          15           1
SMALL
USER_CHARGES
 
@<TRIPOS>ATOM
       1    C1      20.786608   21.060377   22.874856 C.2        1 MOL1         0.6075
       2    O1      21.704363   21.676988   22.370575 O.co2      1 MOL1        -0.6830
       3    O2      19.718591   21.563718   23.161715 O.co2      1 MOL1        -0.6830
       4    C2      21.001990   19.583724   23.195564 C.3        1 MOL1        -0.2050
       5    H1      20.210330   19.252550   23.877361 H          1 MOL1         0.0710
       6    H2      21.943293   19.505455   23.752074 H          1 MOL1         0.0710
       7    C3      21.067797   18.664405   21.945283 C.3        1 MOL1        -0.1947
       8    H3      21.904103   18.990287   21.311448 H          1 MOL1         0.0712
       9    H4      21.303712   17.639989   22.263541 H          1 MOL1         0.0712
      10    C4      19.774184   18.648465   21.096577 C.3        1 MOL1        -0.1921
      11    H5      19.949223   18.039936   20.198700 H          1 MOL1         0.0712
      12    H6      19.546087   19.663445   20.742482 H          1 MOL1         0.0712
      13    C5      18.556014   18.079006   21.854350 C.3        1 MOL1        -0.2936
      14    H7      18.770673   17.077691   22.249770 H          1 MOL1         0.0724
      15    H8      17.690134   18.000141   21.184357 H          1 MOL1         0.0724
      16    H9      18.269197   18.727972   22.691647 H          1 MOL1         0.0724
@<TRIPOS>BOND
    1     1     2    1
    2     1     3    2
    3     1     4    1
    4     4     5    1
    5     4     6    1
    6     4     7    1
    7     7     8    1
    8     7     9    1
    9     7    10    1
   10    10    11    1
   11    10    12    1
   12    10    13    1
   13    13    14    1
   14    13    15    1
   15    13    16    1
@<TRIPOS>SUBSTRUCTURE
       1 MOL1            1 RESIDUE      1      MOL     
@<SCITEGIC>MOL_PROPERTY
VConf Rank
SciTegic.value.IntegerValue
938

@<SCITEGIC>MOL_PROPERTY
Conf_Id
SciTegic.value.IntegerValue
39

@<SCITEGIC>MOL_PROPERTY
Delta U+W
SciTegic.value.DoubleValue
1.129

@<SCITEGIC>MOL_PROPERTY
U+W
SciTegic.value.DoubleValue
-55.775

@<SCITEGIC>MOL_PROPERTY
Grad RMS
SciTegic.value.DoubleValue
0.000000

@<SCITEGIC>MOL_PROPERTY
U
SciTegic.value.DoubleValue
9.718

@<SCITEGIC>MOL_PROPERTY
W
SciTegic.value.DoubleValue
-65.493

@<SCITEGIC>MOL_PROPERTY
W(PB)
SciTegic.value.DoubleValue
-67.361

@<SCITEGIC>MOL_PROPERTY
W(SA)
SciTegic.value.DoubleValue
1.869

@<SCITEGIC>MOL_PROPERTY
Valence
SciTegic.value.DoubleValue
7.002

@<SCITEGIC>MOL_PROPERTY
Coulomb
SciTegic.value.DoubleValue
2.402

@<SCITEGIC>MOL_PROPERTY
VdW
SciTegic.value.DoubleValue
0.314

@<SCITEGIC>MOL_PROPERTY
VdW6
SciTegic.value.DoubleValue
-5.861

@<SCITEGIC>MOL_PROPERTY
VdW12
SciTegic.value.DoubleValue
6.175

@<SCITEGIC>MOL_PROPERTY
Bond
SciTegic.value.DoubleValue
0.134

@<SCITEGIC>MOL_PROPERTY
Angle
SciTegic.value.DoubleValue
2.734

@<SCITEGIC>MOL_PROPERTY
Pdih
SciTegic.value.DoubleValue
4.133

@<SCITEGIC>MOL_PROPERTY
Idih
SciTegic.value.DoubleValue
0.002

@<SCITEGIC>MOL_PROPERTY
Tether
SciTegic.value.DoubleValue
0.000

@<TRIPOS>MOLECULE
guest-s18_confgen4.mol2 : confsearch ligand conformer 939
          16          15           1
SMALL
USER_CHARGES
 
@<TRIPOS>ATOM
       1    C1      20.873801   20.308462   23.503265 C.2        1 MOL1         0.6075
       2    O1      21.656133   21.012433   22.895645 O.co2      1 MOL1        -0.6830
       3    O2      21.169450   19.694164   24.509440 O.co2      1 MOL1        -0.6830
       4    C2      19.422589   20.266430   23.028003 C.3        1 MOL1        -0.2050
       5    H1      19.310631   20.932630   22.163930 H          1 MOL1         0.0710
       6    H2      18.820388   20.697768   23.836119 H          1 MOL1         0.0710
       7    C3      18.874687   18.851194   22.690525 C.3        1 MOL1        -0.1947
       8    H3      19.170753   18.138616   23.472905 H          1 MOL1         0.0712
       9    H4      17.777661   18.896160   22.721555 H          1 MOL1         0.0712
      10    C4      19.285684   18.313189   21.298693 C.3        1 MOL1        -0.1921
      11    H5      18.989744   19.029232   20.519634 H          1 MOL1         0.0712
      12    H6      18.720234   17.391921   21.101657 H          1 MOL1         0.0712
      13    C5      20.790854   17.999570   21.170655 C.3        1 MOL1        -0.2936
      14    H7      21.393294   18.915791   21.195240 H          1 MOL1         0.0724
      15    H8      20.998061   17.494089   20.218645 H          1 MOL1         0.0724
      16    H9      21.127324   17.343170   21.983831 H          1 MOL1         0.0724
@<TRIPOS>BOND
    1     1     2    1
    2     1     3    2
    3     1     4    1
    4     4     5    1
    5     4     6    1
    6     4     7    1
    7     7     8    1
    8     7     9    1
    9     7    10    1
   10    10    11    1
   11    10    12    1
   12    10    13    1
   13    13    14    1
   14    13    15    1
   15    13    16    1
@<TRIPOS>SUBSTRUCTURE
       1 MOL1            1 RESIDUE      1      MOL     
@<SCITEGIC>MOL_PROPERTY
VConf Rank
SciTegic.value.IntegerValue
939

@<SCITEGIC>MOL_PROPERTY
Conf_Id
SciTegic.value.IntegerValue
47

@<SCITEGIC>MOL_PROPERTY
Delta U+W
SciTegic.value.DoubleValue
2.301

@<SCITEGIC>MOL_PROPERTY
U+W
SciTegic.value.DoubleValue
-54.603

@<SCITEGIC>MOL_PROPERTY
Grad RMS
SciTegic.value.DoubleValue
0.000000

@<SCITEGIC>MOL_PROPERTY
U
SciTegic.value.DoubleValue
11.258

@<SCITEGIC>MOL_PROPERTY
W
SciTegic.value.DoubleValue
-65.861

@<SCITEGIC>MOL_PROPERTY
W(PB)
SciTegic.value.DoubleValue
-67.702

@<SCITEGIC>MOL_PROPERTY
W(SA)
SciTegic.value.DoubleValue
1.841

@<SCITEGIC>MOL_PROPERTY
Valence
SciTegic.value.DoubleValue
8.169

@<SCITEGIC>MOL_PROPERTY
Coulomb
SciTegic.value.DoubleValue
2.735

@<SCITEGIC>MOL_PROPERTY
VdW
SciTegic.value.DoubleValue
0.355

@<SCITEGIC>MOL_PROPERTY
VdW6
SciTegic.value.DoubleValue
-6.245

@<SCITEGIC>MOL_PROPERTY
VdW12
SciTegic.value.DoubleValue
6.600

@<SCITEGIC>MOL_PROPERTY
Bond
SciTegic.value.DoubleValue
0.149

@<SCITEGIC>MOL_PROPERTY
Angle
SciTegic.value.DoubleValue
3.168

@<SCITEGIC>MOL_PROPERTY
Pdih
SciTegic.value.DoubleValue
4.840

@<SCITEGIC>MOL_PROPERTY
Idih
SciTegic.value.DoubleValue
0.011

@<SCITEGIC>MOL_PROPERTY
Tether
SciTegic.value.DoubleValue
0.000

@<TRIPOS>MOLECULE
guest-s18_confgen4.mol2 : confsearch ligand conformer 940
          16          15           1
SMALL
USER_CHARGES
 
@<TRIPOS>ATOM
       1    C1      20.977178   19.155227   20.601804 C.2        1 MOL1         0.6075
       2    O1      21.846072   19.994954   20.732340 O.co2      1 MOL1        -0.6830
       3    O2      20.280285   19.062818   19.610533 O.co2      1 MOL1        -0.6830
       4    C2      20.811858   18.106092   21.699825 C.3        1 MOL1        -0.2050
       5    H1      21.760014   17.558024   21.748527 H          1 MOL1         0.0710
       6    H2      20.047494   17.382970   21.390275 H          1 MOL1         0.0710
       7    C3      20.480611   18.667845   23.111100 C.3        1 MOL1        -0.1947
       8    H3      20.742450   17.900009   23.851588 H          1 MOL1         0.0712
       9    H4      21.123249   19.531778   23.330591 H          1 MOL1         0.0712
      10    C4      18.994420   19.042987   23.325732 C.3        1 MOL1        -0.1921
      11    H5      18.844274   19.272130   24.389802 H          1 MOL1         0.0712
      12    H6      18.355280   18.177332   23.103531 H          1 MOL1         0.0712
      13    C5      18.531152   20.257210   22.494270 C.3        1 MOL1        -0.2936
      14    H7      17.518697   20.561114   22.789813 H          1 MOL1         0.0724
      15    H8      18.505068   20.021506   21.423400 H          1 MOL1         0.0724
      16    H9      19.200052   21.115019   22.642818 H          1 MOL1         0.0724
@<TRIPOS>BOND
    1     1     2    1
    2     1     3    2
    3     1     4    1
    4     4     5    1
    5     4     6    1
    6     4     7    1
    7     7     8    1
    8     7     9    1
    9     7    10    1
   10    10    11    1
   11    10    12    1
   12    10    13    1
   13    13    14    1
   14    13    15    1
   15    13    16    1
@<TRIPOS>SUBSTRUCTURE
       1 MOL1            1 RESIDUE      1      MOL     
@<SCITEGIC>MOL_PROPERTY
VConf Rank
SciTegic.value.IntegerValue
940

@<SCITEGIC>MOL_PROPERTY
Conf_Id
SciTegic.value.IntegerValue
45

@<SCITEGIC>MOL_PROPERTY
Delta U+W
SciTegic.value.DoubleValue
2.303

@<SCITEGIC>MOL_PROPERTY
U+W
SciTegic.value.DoubleValue
-54.601

@<SCITEGIC>MOL_PROPERTY
Grad RMS
SciTegic.value.DoubleValue
0.000000

@<SCITEGIC>MOL_PROPERTY
U
SciTegic.value.DoubleValue
11.258

@<SCITEGIC>MOL_PROPERTY
W
SciTegic.value.DoubleValue
-65.860

@<SCITEGIC>MOL_PROPERTY
W(PB)
SciTegic.value.DoubleValue
-67.709

@<SCITEGIC>MOL_PROPERTY
W(SA)
SciTegic.value.DoubleValue
1.849

@<SCITEGIC>MOL_PROPERTY
Valence
SciTegic.value.DoubleValue
8.169

@<SCITEGIC>MOL_PROPERTY
Coulomb
SciTegic.value.DoubleValue
2.735

@<SCITEGIC>MOL_PROPERTY
VdW
SciTegic.value.DoubleValue
0.355

@<SCITEGIC>MOL_PROPERTY
VdW6
SciTegic.value.DoubleValue
-6.245

@<SCITEGIC>MOL_PROPERTY
VdW12
SciTegic.value.DoubleValue
6.600

@<SCITEGIC>MOL_PROPERTY
Bond
SciTegic.value.DoubleValue
0.149

@<SCITEGIC>MOL_PROPERTY
Angle
SciTegic.value.DoubleValue
3.168

@<SCITEGIC>MOL_PROPERTY
Pdih
SciTegic.value.DoubleValue
4.840

@<SCITEGIC>MOL_PROPERTY
Idih
SciTegic.value.DoubleValue
0.011

@<SCITEGIC>MOL_PROPERTY
Tether
SciTegic.value.DoubleValue
0.000

@<TRIPOS>MOLECULE
guest-s18_confgen4.mol2 : confsearch ligand conformer 941
          16          15           1
SMALL
USER_CHARGES
 
@<TRIPOS>ATOM
       1    C1      20.133752   16.623830   23.094548 C.2        1 MOL1         0.6075
       2    O1      19.526243   16.952167   24.095000 O.co2      1 MOL1        -0.6830
       3    O2      20.555429   15.498971   22.915123 O.co2      1 MOL1        -0.6830
       4    C2      20.395665   17.651819   21.992488 C.3        1 MOL1        -0.2050
       5    H1      19.961502   17.256651   21.066473 H          1 MOL1         0.0710
       6    H2      21.480635   17.701385   21.842333 H          1 MOL1         0.0710
       7    C3      19.839440   19.074535   22.266062 C.3        1 MOL1        -0.1947
       8    H3      18.753059   19.017771   22.421055 H          1 MOL1         0.0712
       9    H4      20.273769   19.462964   23.197701 H          1 MOL1         0.0712
      10    C4      20.148200   20.043925   21.105800 C.3        1 MOL1        -0.1921
      11    H5      19.712864   19.657500   20.173781 H          1 MOL1         0.0712
      12    H6      21.234484   20.102968   20.950882 H          1 MOL1         0.0712
      13    C5      19.593339   21.455039   21.383338 C.3        1 MOL1        -0.2936
      14    H7      18.503183   21.430179   21.511441 H          1 MOL1         0.0724
      15    H8      19.821339   22.131340   20.549207 H          1 MOL1         0.0724
      16    H9      20.036027   21.878939   22.294274 H          1 MOL1         0.0724
@<TRIPOS>BOND
    1     1     2    1
    2     1     3    2
    3     1     4    1
    4     4     5    1
    5     4     6    1
    6     4     7    1
    7     7     8    1
    8     7     9    1
    9     7    10    1
   10    10    11    1
   11    10    12    1
   12    10    13    1
   13    13    14    1
   14    13    15    1
   15    13    16    1
@<TRIPOS>SUBSTRUCTURE
       1 MOL1            1 RESIDUE      1      MOL     
@<SCITEGIC>MOL_PROPERTY
VConf Rank
SciTegic.value.IntegerValue
941

@<SCITEGIC>MOL_PROPERTY
Conf_Id
SciTegic.value.IntegerValue
0

@<SCITEGIC>MOL_PROPERTY
Delta U+W
SciTegic.value.DoubleValue
0.000

@<SCITEGIC>MOL_PROPERTY
U+W
SciTegic.value.DoubleValue
-56.904

@<SCITEGIC>MOL_PROPERTY
Grad RMS
SciTegic.value.DoubleValue
0.000000

@<SCITEGIC>MOL_PROPERTY
U
SciTegic.value.DoubleValue
7.329

@<SCITEGIC>MOL_PROPERTY
W
SciTegic.value.DoubleValue
-64.233

@<SCITEGIC>MOL_PROPERTY
W(PB)
SciTegic.value.DoubleValue
-66.148

@<SCITEGIC>MOL_PROPERTY
W(SA)
SciTegic.value.DoubleValue
1.915

@<SCITEGIC>MOL_PROPERTY
Valence
SciTegic.value.DoubleValue
6.755

@<SCITEGIC>MOL_PROPERTY
Coulomb
SciTegic.value.DoubleValue
-0.421

@<SCITEGIC>MOL_PROPERTY
VdW
SciTegic.value.DoubleValue
0.995

@<SCITEGIC>MOL_PROPERTY
VdW6
SciTegic.value.DoubleValue
-4.495

@<SCITEGIC>MOL_PROPERTY
VdW12
SciTegic.value.DoubleValue
5.490

@<SCITEGIC>MOL_PROPERTY
Bond
SciTegic.value.DoubleValue
0.106

@<SCITEGIC>MOL_PROPERTY
Angle
SciTegic.value.DoubleValue
2.715

@<SCITEGIC>MOL_PROPERTY
Pdih
SciTegic.value.DoubleValue
3.934

@<SCITEGIC>MOL_PROPERTY
Idih
SciTegic.value.DoubleValue
0.000

@<SCITEGIC>MOL_PROPERTY
Tether
SciTegic.value.DoubleValue
0.000

@<TRIPOS>MOLECULE
guest-s18_confgen4.mol2 : confsearch ligand conformer 942
          16          15           1
SMALL
USER_CHARGES
 
@<TRIPOS>ATOM
       1    C1      22.446538   20.274892   22.519896 C.2        1 MOL1         0.6075
       2    O1      22.422895   21.071616   23.436692 O.co2      1 MOL1        -0.6830
       3    O2      23.414971   19.594633   22.245619 O.co2      1 MOL1        -0.6830
       4    C2      21.186011   20.106408   21.678904 C.3        1 MOL1        -0.2050
       5    H1      21.489911   19.856682   20.655120 H          1 MOL1         0.0710
       6    H2      20.671943   21.074315   21.637192 H          1 MOL1         0.0710
       7    C3      20.232668   19.019108   22.232961 C.3        1 MOL1        -0.1947
       8    H3      20.765334   18.059119   22.280267 H          1 MOL1         0.0712
       9    H4      19.947378   19.276768   23.262413 H          1 MOL1         0.0712
      10    C4      18.966332   18.869032   21.364381 C.3        1 MOL1        -0.1921
      11    H5      19.251181   18.610695   20.334982 H          1 MOL1         0.0712
      12    H6      18.433030   19.828675   21.317351 H          1 MOL1         0.0712
      13    C5      18.022297   17.785386   21.921705 C.3        1 MOL1        -0.2936
      14    H7      17.696336   18.034404   22.940140 H          1 MOL1         0.0724
      15    H8      18.520539   16.807431   21.950538 H          1 MOL1         0.0724
      16    H9      17.127379   17.691428   21.292862 H          1 MOL1         0.0724
@<TRIPOS>BOND
    1     1     2    1
    2     1     3    2
    3     1     4    1
    4     4     5    1
    5     4     6    1
    6     4     7    1
    7     7     8    1
    8     7     9    1
    9     7    10    1
   10    10    11    1
   11    10    12    1
   12    10    13    1
   13    13    14    1
   14    13    15    1
   15    13    16    1
@<TRIPOS>SUBSTRUCTURE
       1 MOL1            1 RESIDUE      1      MOL     
@<SCITEGIC>MOL_PROPERTY
VConf Rank
SciTegic.value.IntegerValue
942

@<SCITEGIC>MOL_PROPERTY
Conf_Id
SciTegic.value.IntegerValue
22

@<SCITEGIC>MOL_PROPERTY
Delta U+W
SciTegic.value.DoubleValue
-1.185

@<SCITEGIC>MOL_PROPERTY
U+W
SciTegic.value.DoubleValue
-58.089

@<SCITEGIC>MOL_PROPERTY
Grad RMS
SciTegic.value.DoubleValue
0.000000

@<SCITEGIC>MOL_PROPERTY
U
SciTegic.value.DoubleValue
6.298

@<SCITEGIC>MOL_PROPERTY
W
SciTegic.value.DoubleValue
-64.387

@<SCITEGIC>MOL_PROPERTY
W(PB)
SciTegic.value.DoubleValue
-66.329

@<SCITEGIC>MOL_PROPERTY
W(SA)
SciTegic.value.DoubleValue
1.942

@<SCITEGIC>MOL_PROPERTY
Valence
SciTegic.value.DoubleValue
6.246

@<SCITEGIC>MOL_PROPERTY
Coulomb
SciTegic.value.DoubleValue
-0.408

@<SCITEGIC>MOL_PROPERTY
VdW
SciTegic.value.DoubleValue
0.460

@<SCITEGIC>MOL_PROPERTY
VdW6
SciTegic.value.DoubleValue
-4.207

@<SCITEGIC>MOL_PROPERTY
VdW12
SciTegic.value.DoubleValue
4.667

@<SCITEGIC>MOL_PROPERTY
Bond
SciTegic.value.DoubleValue
0.072

@<SCITEGIC>MOL_PROPERTY
Angle
SciTegic.value.DoubleValue
2.246

@<SCITEGIC>MOL_PROPERTY
Pdih
SciTegic.value.DoubleValue
3.928

@<SCITEGIC>MOL_PROPERTY
Idih
SciTegic.value.DoubleValue
0.001

@<SCITEGIC>MOL_PROPERTY
Tether
SciTegic.value.DoubleValue
0.000

@<TRIPOS>MOLECULE
guest-s18_confgen4.mol2 : confsearch ligand conformer 943
          16          15           1
SMALL
USER_CHARGES
 
@<TRIPOS>ATOM
       1    C1      20.572560   17.352111   23.753226 C.2        1 MOL1         0.6075
       2    O1      21.480016   16.560955   23.590160 O.co2      1 MOL1        -0.6830
       3    O2      19.656489   17.172290   24.530680 O.co2      1 MOL1        -0.6830
       4    C2      20.573215   18.630484   22.922362 C.3        1 MOL1        -0.2050
       5    H1      21.615755   18.918935   22.742165 H          1 MOL1         0.0710
       6    H2      20.116597   19.422440   23.526864 H          1 MOL1         0.0710
       7    C3      19.822223   18.471958   21.574819 C.3        1 MOL1        -0.1947
       8    H3      20.247232   17.616188   21.032184 H          1 MOL1         0.0712
       9    H4      18.769299   18.224940   21.768832 H          1 MOL1         0.0712
      10    C4      19.907009   19.724244   20.672045 C.3        1 MOL1        -0.1921
      11    H5      19.447886   19.491542   19.701291 H          1 MOL1         0.0712
      12    H6      20.959683   19.964505   20.468247 H          1 MOL1         0.0712
      13    C5      19.200196   20.957519   21.274028 C.3        1 MOL1        -0.2936
      14    H7      19.697843   21.296920   22.191054 H          1 MOL1         0.0724
      15    H8      18.152660   20.732225   21.513111 H          1 MOL1         0.0724
      16    H9      19.212056   21.792316   20.561300 H          1 MOL1         0.0724
@<TRIPOS>BOND
    1     1     2    1
    2     1     3    2
    3     1     4    1
    4     4     5    1
    5     4     6    1
    6     4     7    1
    7     7     8    1
    8     7     9    1
    9     7    10    1
   10    10    11    1
   11    10    12    1
   12    10    13    1
   13    13    14    1
   14    13    15    1
   15    13    16    1
@<TRIPOS>SUBSTRUCTURE
       1 MOL1            1 RESIDUE      1      MOL     
@<SCITEGIC>MOL_PROPERTY
VConf Rank
SciTegic.value.IntegerValue
943

@<SCITEGIC>MOL_PROPERTY
Conf_Id
SciTegic.value.IntegerValue
36

@<SCITEGIC>MOL_PROPERTY
Delta U+W
SciTegic.value.DoubleValue
-0.427

@<SCITEGIC>MOL_PROPERTY
U+W
SciTegic.value.DoubleValue
-57.331

@<SCITEGIC>MOL_PROPERTY
Grad RMS
SciTegic.value.DoubleValue
0.000000

@<SCITEGIC>MOL_PROPERTY
U
SciTegic.value.DoubleValue
7.263

@<SCITEGIC>MOL_PROPERTY
W
SciTegic.value.DoubleValue
-64.594

@<SCITEGIC>MOL_PROPERTY
W(PB)
SciTegic.value.DoubleValue
-66.513

@<SCITEGIC>MOL_PROPERTY
W(SA)
SciTegic.value.DoubleValue
1.920

@<SCITEGIC>MOL_PROPERTY
Valence
SciTegic.value.DoubleValue
6.734

@<SCITEGIC>MOL_PROPERTY
Coulomb
SciTegic.value.DoubleValue
-0.068

@<SCITEGIC>MOL_PROPERTY
VdW
SciTegic.value.DoubleValue
0.598

@<SCITEGIC>MOL_PROPERTY
VdW6
SciTegic.value.DoubleValue
-4.819

@<SCITEGIC>MOL_PROPERTY
VdW12
SciTegic.value.DoubleValue
5.417

@<SCITEGIC>MOL_PROPERTY
Bond
SciTegic.value.DoubleValue
0.107

@<SCITEGIC>MOL_PROPERTY
Angle
SciTegic.value.DoubleValue
2.469

@<SCITEGIC>MOL_PROPERTY
Pdih
SciTegic.value.DoubleValue
4.157

@<SCITEGIC>MOL_PROPERTY
Idih
SciTegic.value.DoubleValue
0.001

@<SCITEGIC>MOL_PROPERTY
Tether
SciTegic.value.DoubleValue
0.000

@<TRIPOS>MOLECULE
guest-s18_confgen4.mol2 : confsearch ligand conformer 944
          16          15           1
SMALL
USER_CHARGES
 
@<TRIPOS>ATOM
       1    C1      20.897677   18.900993   19.587255 C.2        1 MOL1         0.6075
       2    O1      22.077844   19.186103   19.543940 O.co2      1 MOL1        -0.6830
       3    O2      20.177252   18.873154   18.609396 O.co2      1 MOL1        -0.6830
       4    C2      20.282355   18.580253   20.944855 C.3        1 MOL1        -0.2050
       5    H1      21.053370   18.097015   21.555702 H          1 MOL1         0.0710
       6    H2      19.481913   17.846612   20.791139 H          1 MOL1         0.0710
       7    C3      19.725083   19.836112   21.664063 C.3        1 MOL1        -0.1947
       8    H3      20.543554   20.545027   21.850758 H          1 MOL1         0.0712
       9    H4      19.020721   20.344898   20.991426 H          1 MOL1         0.0712
      10    C4      19.000096   19.514277   22.991174 C.3        1 MOL1        -0.1921
      11    H5      18.174167   18.814450   22.802857 H          1 MOL1         0.0712
      12    H6      18.544058   20.436435   23.377130 H          1 MOL1         0.0712
      13    C5      19.937262   18.932703   24.071184 C.3        1 MOL1        -0.2936
      14    H7      20.329380   17.951550   23.775608 H          1 MOL1         0.0724
      15    H8      19.397326   18.803010   25.018103 H          1 MOL1         0.0724
      16    H9      20.787229   19.602547   24.255891 H          1 MOL1         0.0724
@<TRIPOS>BOND
    1     1     2    1
    2     1     3    2
    3     1     4    1
    4     4     5    1
    5     4     6    1
    6     4     7    1
    7     7     8    1
    8     7     9    1
    9     7    10    1
   10    10    11    1
   11    10    12    1
   12    10    13    1
   13    13    14    1
   14    13    15    1
   15    13    16    1
@<TRIPOS>SUBSTRUCTURE
       1 MOL1            1 RESIDUE      1      MOL     
@<SCITEGIC>MOL_PROPERTY
VConf Rank
SciTegic.value.IntegerValue
944

@<SCITEGIC>MOL_PROPERTY
Conf_Id
SciTegic.value.IntegerValue
17

@<SCITEGIC>MOL_PROPERTY
Delta U+W
SciTegic.value.DoubleValue
-0.432

@<SCITEGIC>MOL_PROPERTY
U+W
SciTegic.value.DoubleValue
-57.336

@<SCITEGIC>MOL_PROPERTY
Grad RMS
SciTegic.value.DoubleValue
0.000000

@<SCITEGIC>MOL_PROPERTY
U
SciTegic.value.DoubleValue
7.263

@<SCITEGIC>MOL_PROPERTY
W
SciTegic.value.DoubleValue
-64.599

@<SCITEGIC>MOL_PROPERTY
W(PB)
SciTegic.value.DoubleValue
-66.503

@<SCITEGIC>MOL_PROPERTY
W(SA)
SciTegic.value.DoubleValue
1.904

@<SCITEGIC>MOL_PROPERTY
Valence
SciTegic.value.DoubleValue
6.734

@<SCITEGIC>MOL_PROPERTY
Coulomb
SciTegic.value.DoubleValue
-0.068

@<SCITEGIC>MOL_PROPERTY
VdW
SciTegic.value.DoubleValue
0.598

@<SCITEGIC>MOL_PROPERTY
VdW6
SciTegic.value.DoubleValue
-4.819

@<SCITEGIC>MOL_PROPERTY
VdW12
SciTegic.value.DoubleValue
5.417

@<SCITEGIC>MOL_PROPERTY
Bond
SciTegic.value.DoubleValue
0.107

@<SCITEGIC>MOL_PROPERTY
Angle
SciTegic.value.DoubleValue
2.469

@<SCITEGIC>MOL_PROPERTY
Pdih
SciTegic.value.DoubleValue
4.157

@<SCITEGIC>MOL_PROPERTY
Idih
SciTegic.value.DoubleValue
0.001

@<SCITEGIC>MOL_PROPERTY
Tether
SciTegic.value.DoubleValue
0.000

@<TRIPOS>MOLECULE
guest-s18_confgen4.mol2 : confsearch ligand conformer 945
          16          15           1
SMALL
USER_CHARGES
 
@<TRIPOS>ATOM
       1    C1      19.998194   21.473607   21.741490 C.2        1 MOL1         0.6075
       2    O1      18.967695   21.967233   22.154707 O.co2      1 MOL1        -0.6830
       3    O2      21.101169   21.922716   21.982339 O.co2      1 MOL1        -0.6830
       4    C2      19.898054   20.236984   20.852542 C.3        1 MOL1        -0.2050
       5    H1      20.836442   20.129095   20.294984 H          1 MOL1         0.0710
       6    H2      19.110441   20.426811   20.113715 H          1 MOL1         0.0710
       7    C3      19.580115   18.928987   21.622668 C.3        1 MOL1        -0.1947
       8    H3      18.653608   19.061493   22.198558 H          1 MOL1         0.0712
       9    H4      19.389729   18.125919   20.897828 H          1 MOL1         0.0712
      10    C4      20.725556   18.501813   22.565892 C.3        1 MOL1        -0.1921
      11    H5      20.911333   19.289794   23.309059 H          1 MOL1         0.0712
      12    H6      21.654051   18.381790   21.990680 H          1 MOL1         0.0712
      13    C5      20.398276   17.182415   23.292818 C.3        1 MOL1        -0.2936
      14    H7      19.489764   17.284281   23.900830 H          1 MOL1         0.0724
      15    H8      21.221501   16.893714   23.959203 H          1 MOL1         0.0724
      16    H9      20.241174   16.366627   22.575027 H          1 MOL1         0.0724
@<TRIPOS>BOND
    1     1     2    1
    2     1     3    2
    3     1     4    1
    4     4     5    1
    5     4     6    1
    6     4     7    1
    7     7     8    1
    8     7     9    1
    9     7    10    1
   10    10    11    1
   11    10    12    1
   12    10    13    1
   13    13    14    1
   14    13    15    1
   15    13    16    1
@<TRIPOS>SUBSTRUCTURE
       1 MOL1            1 RESIDUE      1      MOL     
@<SCITEGIC>MOL_PROPERTY
VConf Rank
SciTegic.value.IntegerValue
945

@<SCITEGIC>MOL_PROPERTY
Conf_Id
SciTegic.value.IntegerValue
19

@<SCITEGIC>MOL_PROPERTY
Delta U+W
SciTegic.value.DoubleValue
0.048

@<SCITEGIC>MOL_PROPERTY
U+W
SciTegic.value.DoubleValue
-56.856

@<SCITEGIC>MOL_PROPERTY
Grad RMS
SciTegic.value.DoubleValue
0.000000

@<SCITEGIC>MOL_PROPERTY
U
SciTegic.value.DoubleValue
8.276

@<SCITEGIC>MOL_PROPERTY
W
SciTegic.value.DoubleValue
-65.132

@<SCITEGIC>MOL_PROPERTY
W(PB)
SciTegic.value.DoubleValue
-67.031

@<SCITEGIC>MOL_PROPERTY
W(SA)
SciTegic.value.DoubleValue
1.899

@<SCITEGIC>MOL_PROPERTY
Valence
SciTegic.value.DoubleValue
6.513

@<SCITEGIC>MOL_PROPERTY
Coulomb
SciTegic.value.DoubleValue
1.428

@<SCITEGIC>MOL_PROPERTY
VdW
SciTegic.value.DoubleValue
0.335

@<SCITEGIC>MOL_PROPERTY
VdW6
SciTegic.value.DoubleValue
-5.021

@<SCITEGIC>MOL_PROPERTY
VdW12
SciTegic.value.DoubleValue
5.356

@<SCITEGIC>MOL_PROPERTY
Bond
SciTegic.value.DoubleValue
0.092

@<SCITEGIC>MOL_PROPERTY
Angle
SciTegic.value.DoubleValue
2.417

@<SCITEGIC>MOL_PROPERTY
Pdih
SciTegic.value.DoubleValue
4.003

@<SCITEGIC>MOL_PROPERTY
Idih
SciTegic.value.DoubleValue
0.001

@<SCITEGIC>MOL_PROPERTY
Tether
SciTegic.value.DoubleValue
0.000

@<TRIPOS>MOLECULE
guest-s18_confgen4.mol2 : confsearch ligand conformer 946
          16          15           1
SMALL
USER_CHARGES
 
@<TRIPOS>ATOM
       1    C1      20.787386   19.293850   24.266865 C.2        1 MOL1         0.6075
       2    O1      19.952103   19.389289   25.144096 O.co2      1 MOL1        -0.6830
       3    O2      21.759639   20.017851   24.184344 O.co2      1 MOL1        -0.6830
       4    C2      20.616486   18.189481   23.227317 C.3        1 MOL1        -0.2050
       5    H1      20.358121   17.269606   23.765196 H          1 MOL1         0.0710
       6    H2      21.584042   18.011932   22.742140 H          1 MOL1         0.0710
       7    C3      19.530292   18.487446   22.161276 C.3        1 MOL1        -0.1947
       8    H3      19.379583   17.590341   21.545607 H          1 MOL1         0.0712
       9    H4      18.573977   18.691174   22.662852 H          1 MOL1         0.0712
      10    C4      19.904803   19.674435   21.247499 C.3        1 MOL1        -0.1921
      11    H5      20.867169   19.474719   20.756232 H          1 MOL1         0.0712
      12    H6      20.038206   20.583148   21.850962 H          1 MOL1         0.0712
      13    C5      18.825036   19.927489   20.176790 C.3        1 MOL1        -0.2936
      14    H7      18.693791   19.046451   19.534947 H          1 MOL1         0.0724
      15    H8      19.106020   20.774127   19.536971 H          1 MOL1         0.0724
      16    H9      17.858144   20.160337   20.641928 H          1 MOL1         0.0724
@<TRIPOS>BOND
    1     1     2    1
    2     1     3    2
    3     1     4    1
    4     4     5    1
    5     4     6    1
    6     4     7    1
    7     7     8    1
    8     7     9    1
    9     7    10    1
   10    10    11    1
   11    10    12    1
   12    10    13    1
   13    13    14    1
   14    13    15    1
   15    13    16    1
@<TRIPOS>SUBSTRUCTURE
       1 MOL1            1 RESIDUE      1      MOL     
@<SCITEGIC>MOL_PROPERTY
VConf Rank
SciTegic.value.IntegerValue
946

@<SCITEGIC>MOL_PROPERTY
Conf_Id
SciTegic.value.IntegerValue
20

@<SCITEGIC>MOL_PROPERTY
Delta U+W
SciTegic.value.DoubleValue
-0.010

@<SCITEGIC>MOL_PROPERTY
U+W
SciTegic.value.DoubleValue
-56.914

@<SCITEGIC>MOL_PROPERTY
Grad RMS
SciTegic.value.DoubleValue
0.000000

@<SCITEGIC>MOL_PROPERTY
U
SciTegic.value.DoubleValue
8.277

@<SCITEGIC>MOL_PROPERTY
W
SciTegic.value.DoubleValue
-65.191

@<SCITEGIC>MOL_PROPERTY
W(PB)
SciTegic.value.DoubleValue
-67.081

@<SCITEGIC>MOL_PROPERTY
W(SA)
SciTegic.value.DoubleValue
1.890

@<SCITEGIC>MOL_PROPERTY
Valence
SciTegic.value.DoubleValue
6.513

@<SCITEGIC>MOL_PROPERTY
Coulomb
SciTegic.value.DoubleValue
1.429

@<SCITEGIC>MOL_PROPERTY
VdW
SciTegic.value.DoubleValue
0.335

@<SCITEGIC>MOL_PROPERTY
VdW6
SciTegic.value.DoubleValue
-5.021

@<SCITEGIC>MOL_PROPERTY
VdW12
SciTegic.value.DoubleValue
5.356

@<SCITEGIC>MOL_PROPERTY
Bond
SciTegic.value.DoubleValue
0.092

@<SCITEGIC>MOL_PROPERTY
Angle
SciTegic.value.DoubleValue
2.417

@<SCITEGIC>MOL_PROPERTY
Pdih
SciTegic.value.DoubleValue
4.002

@<SCITEGIC>MOL_PROPERTY
Idih
SciTegic.value.DoubleValue
0.001

@<SCITEGIC>MOL_PROPERTY
Tether
SciTegic.value.DoubleValue
0.000

@<TRIPOS>MOLECULE
guest-s18_confgen4.mol2 : confsearch ligand conformer 947
          16          15           1
SMALL
USER_CHARGES
 
@<TRIPOS>ATOM
       1    C1      19.043172   20.559585   20.761539 C.2        1 MOL1         0.6075
       2    O1      19.136085   21.764557   20.888803 O.co2      1 MOL1        -0.6830
       3    O2      18.008967   19.994661   20.465596 O.co2      1 MOL1        -0.6830
       4    C2      20.301599   19.716765   20.950643 C.3        1 MOL1        -0.2050
       5    H1      21.089317   20.165106   20.333900 H          1 MOL1         0.0710
       6    H2      20.119728   18.716175   20.542001 H          1 MOL1         0.0710
       7    C3      20.791504   19.626595   22.421881 C.3        1 MOL1        -0.1947
       8    H3      21.739428   19.072634   22.452492 H          1 MOL1         0.0712
       9    H4      21.015440   20.640312   22.781862 H          1 MOL1         0.0712
      10    C4      19.783194   18.963740   23.390346 C.3        1 MOL1        -0.1921
      11    H5      18.841183   19.529594   23.395153 H          1 MOL1         0.0712
      12    H6      20.184383   19.022728   24.411470 H          1 MOL1         0.0712
      13    C5      19.496739   17.485135   23.052543 C.3        1 MOL1        -0.2936
      14    H7      18.980584   17.389864   22.088699 H          1 MOL1         0.0724
      15    H8      18.853350   17.034274   23.819117 H          1 MOL1         0.0724
      16    H9      20.426927   16.904024   23.006418 H          1 MOL1         0.0724
@<TRIPOS>BOND
    1     1     2    1
    2     1     3    2
    3     1     4    1
    4     4     5    1
    5     4     6    1
    6     4     7    1
    7     7     8    1
    8     7     9    1
    9     7    10    1
   10    10    11    1
   11    10    12    1
   12    10    13    1
   13    13    14    1
   14    13    15    1
   15    13    16    1
@<TRIPOS>SUBSTRUCTURE
       1 MOL1            1 RESIDUE      1      MOL     
@<SCITEGIC>MOL_PROPERTY
VConf Rank
SciTegic.value.IntegerValue
947

@<SCITEGIC>MOL_PROPERTY
Conf_Id
SciTegic.value.IntegerValue
37

@<SCITEGIC>MOL_PROPERTY
Delta U+W
SciTegic.value.DoubleValue
1.063

@<SCITEGIC>MOL_PROPERTY
U+W
SciTegic.value.DoubleValue
-55.841

@<SCITEGIC>MOL_PROPERTY
Grad RMS
SciTegic.value.DoubleValue
0.000000

@<SCITEGIC>MOL_PROPERTY
U
SciTegic.value.DoubleValue
9.719

@<SCITEGIC>MOL_PROPERTY
W
SciTegic.value.DoubleValue
-65.560

@<SCITEGIC>MOL_PROPERTY
W(PB)
SciTegic.value.DoubleValue
-67.414

@<SCITEGIC>MOL_PROPERTY
W(SA)
SciTegic.value.DoubleValue
1.854

@<SCITEGIC>MOL_PROPERTY
Valence
SciTegic.value.DoubleValue
7.002

@<SCITEGIC>MOL_PROPERTY
Coulomb
SciTegic.value.DoubleValue
2.402

@<SCITEGIC>MOL_PROPERTY
VdW
SciTegic.value.DoubleValue
0.314

@<SCITEGIC>MOL_PROPERTY
VdW6
SciTegic.value.DoubleValue
-5.861

@<SCITEGIC>MOL_PROPERTY
VdW12
SciTegic.value.DoubleValue
6.175

@<SCITEGIC>MOL_PROPERTY
Bond
SciTegic.value.DoubleValue
0.134

@<SCITEGIC>MOL_PROPERTY
Angle
SciTegic.value.DoubleValue
2.733

@<SCITEGIC>MOL_PROPERTY
Pdih
SciTegic.value.DoubleValue
4.133

@<SCITEGIC>MOL_PROPERTY
Idih
SciTegic.value.DoubleValue
0.002

@<SCITEGIC>MOL_PROPERTY
Tether
SciTegic.value.DoubleValue
0.000

@<TRIPOS>MOLECULE
guest-s18_confgen4.mol2 : confsearch ligand conformer 948
          16          15           1
SMALL
USER_CHARGES
 
@<TRIPOS>ATOM
       1    C1      19.236139   18.431916   23.992514 C.2        1 MOL1         0.6075
       2    O1      19.627208   17.449451   24.591356 O.co2      1 MOL1        -0.6830
       3    O2      18.976618   19.487960   24.534472 O.co2      1 MOL1        -0.6830
       4    C2      19.027749   18.320036   22.484600 C.3        1 MOL1        -0.2050
       5    H1      18.428100   19.173447   22.147912 H          1 MOL1         0.0710
       6    H2      18.420925   17.424746   22.305430 H          1 MOL1         0.0710
       7    C3      20.344206   18.219099   21.666411 C.3        1 MOL1        -0.1947
       8    H3      20.893761   17.324787   21.991297 H          1 MOL1         0.0712
       9    H4      20.098889   18.061879   20.607416 H          1 MOL1         0.0712
      10    C4      21.271982   19.450480   21.796502 C.3        1 MOL1        -0.1921
      11    H5      22.204888   19.247880   21.252656 H          1 MOL1         0.0712
      12    H6      21.553232   19.597973   22.848519 H          1 MOL1         0.0712
      13    C5      20.644023   20.746988   21.242267 C.3        1 MOL1        -0.2936
      14    H7      20.321386   20.614965   20.201334 H          1 MOL1         0.0724
      15    H8      21.372110   21.567962   21.269680 H          1 MOL1         0.0724
      16    H9      19.775082   21.054578   21.837933 H          1 MOL1         0.0724
@<TRIPOS>BOND
    1     1     2    1
    2     1     3    2
    3     1     4    1
    4     4     5    1
    5     4     6    1
    6     4     7    1
    7     7     8    1
    8     7     9    1
    9     7    10    1
   10    10    11    1
   11    10    12    1
   12    10    13    1
   13    13    14    1
   14    13    15    1
   15    13    16    1
@<TRIPOS>SUBSTRUCTURE
       1 MOL1            1 RESIDUE      1      MOL     
@<SCITEGIC>MOL_PROPERTY
VConf Rank
SciTegic.value.IntegerValue
948

@<SCITEGIC>MOL_PROPERTY
Conf_Id
SciTegic.value.IntegerValue
39

@<SCITEGIC>MOL_PROPERTY
Delta U+W
SciTegic.value.DoubleValue
1.129

@<SCITEGIC>MOL_PROPERTY
U+W
SciTegic.value.DoubleValue
-55.775

@<SCITEGIC>MOL_PROPERTY
Grad RMS
SciTegic.value.DoubleValue
0.000000

@<SCITEGIC>MOL_PROPERTY
U
SciTegic.value.DoubleValue
9.718

@<SCITEGIC>MOL_PROPERTY
W
SciTegic.value.DoubleValue
-65.493

@<SCITEGIC>MOL_PROPERTY
W(PB)
SciTegic.value.DoubleValue
-67.361

@<SCITEGIC>MOL_PROPERTY
W(SA)
SciTegic.value.DoubleValue
1.869

@<SCITEGIC>MOL_PROPERTY
Valence
SciTegic.value.DoubleValue
7.002

@<SCITEGIC>MOL_PROPERTY
Coulomb
SciTegic.value.DoubleValue
2.402

@<SCITEGIC>MOL_PROPERTY
VdW
SciTegic.value.DoubleValue
0.314

@<SCITEGIC>MOL_PROPERTY
VdW6
SciTegic.value.DoubleValue
-5.861

@<SCITEGIC>MOL_PROPERTY
VdW12
SciTegic.value.DoubleValue
6.175

@<SCITEGIC>MOL_PROPERTY
Bond
SciTegic.value.DoubleValue
0.134

@<SCITEGIC>MOL_PROPERTY
Angle
SciTegic.value.DoubleValue
2.734

@<SCITEGIC>MOL_PROPERTY
Pdih
SciTegic.value.DoubleValue
4.133

@<SCITEGIC>MOL_PROPERTY
Idih
SciTegic.value.DoubleValue
0.002

@<SCITEGIC>MOL_PROPERTY
Tether
SciTegic.value.DoubleValue
0.000

@<TRIPOS>MOLECULE
guest-s18_confgen4.mol2 : confsearch ligand conformer 949
          16          15           1
SMALL
USER_CHARGES
 
@<TRIPOS>ATOM
       1    C1      18.498151   17.994322   23.185994 C.2        1 MOL1         0.6075
       2    O1      17.838677   17.361065   22.385433 O.co2      1 MOL1        -0.6830
       3    O2      18.008804   18.662407   24.075579 O.co2      1 MOL1        -0.6830
       4    C2      20.019552   17.870814   23.124821 C.3        1 MOL1        -0.2050
       5    H1      20.289016   17.174196   22.321646 H          1 MOL1         0.0710
       6    H2      20.329167   17.399681   24.064992 H          1 MOL1         0.0710
       7    C3      20.788672   19.211158   22.954777 C.3        1 MOL1        -0.1947
       8    H3      20.370366   19.971143   23.629302 H          1 MOL1         0.0712
       9    H4      21.824434   19.051696   23.283747 H          1 MOL1         0.0712
      10    C4      20.832000   19.752945   21.505587 C.3        1 MOL1        -0.1921
      11    H5      21.248908   18.989615   20.834211 H          1 MOL1         0.0712
      12    H6      21.526176   20.604057   21.473645 H          1 MOL1         0.0712
      13    C5      19.461425   20.219938   20.972924 C.3        1 MOL1        -0.2936
      14    H7      18.779259   19.373238   20.828886 H          1 MOL1         0.0724
      15    H8      19.576658   20.719407   20.002347 H          1 MOL1         0.0724
      16    H9      18.990024   20.929137   21.665850 H          1 MOL1         0.0724
@<TRIPOS>BOND
    1     1     2    1
    2     1     3    2
    3     1     4    1
    4     4     5    1
    5     4     6    1
    6     4     7    1
    7     7     8    1
    8     7     9    1
    9     7    10    1
   10    10    11    1
   11    10    12    1
   12    10    13    1
   13    13    14    1
   14    13    15    1
   15    13    16    1
@<TRIPOS>SUBSTRUCTURE
       1 MOL1            1 RESIDUE      1      MOL     
@<SCITEGIC>MOL_PROPERTY
VConf Rank
SciTegic.value.IntegerValue
949

@<SCITEGIC>MOL_PROPERTY
Conf_Id
SciTegic.value.IntegerValue
47

@<SCITEGIC>MOL_PROPERTY
Delta U+W
SciTegic.value.DoubleValue
2.301

@<SCITEGIC>MOL_PROPERTY
U+W
SciTegic.value.DoubleValue
-54.603

@<SCITEGIC>MOL_PROPERTY
Grad RMS
SciTegic.value.DoubleValue
0.000000

@<SCITEGIC>MOL_PROPERTY
U
SciTegic.value.DoubleValue
11.258

@<SCITEGIC>MOL_PROPERTY
W
SciTegic.value.DoubleValue
-65.861

@<SCITEGIC>MOL_PROPERTY
W(PB)
SciTegic.value.DoubleValue
-67.702

@<SCITEGIC>MOL_PROPERTY
W(SA)
SciTegic.value.DoubleValue
1.841

@<SCITEGIC>MOL_PROPERTY
Valence
SciTegic.value.DoubleValue
8.169

@<SCITEGIC>MOL_PROPERTY
Coulomb
SciTegic.value.DoubleValue
2.735

@<SCITEGIC>MOL_PROPERTY
VdW
SciTegic.value.DoubleValue
0.355

@<SCITEGIC>MOL_PROPERTY
VdW6
SciTegic.value.DoubleValue
-6.245

@<SCITEGIC>MOL_PROPERTY
VdW12
SciTegic.value.DoubleValue
6.600

@<SCITEGIC>MOL_PROPERTY
Bond
SciTegic.value.DoubleValue
0.149

@<SCITEGIC>MOL_PROPERTY
Angle
SciTegic.value.DoubleValue
3.168

@<SCITEGIC>MOL_PROPERTY
Pdih
SciTegic.value.DoubleValue
4.840

@<SCITEGIC>MOL_PROPERTY
Idih
SciTegic.value.DoubleValue
0.011

@<SCITEGIC>MOL_PROPERTY
Tether
SciTegic.value.DoubleValue
0.000

@<TRIPOS>MOLECULE
guest-s18_confgen4.mol2 : confsearch ligand conformer 950
          16          15           1
SMALL
USER_CHARGES
 
@<TRIPOS>ATOM
       1    C1      19.401527   20.013696   23.981451 C.2        1 MOL1         0.6075
       2    O1      19.749647   19.301859   24.903003 O.co2      1 MOL1        -0.6830
       3    O2      18.305661   20.534902   23.916327 O.co2      1 MOL1        -0.6830
       4    C2      20.422723   20.343732   22.894298 C.3        1 MOL1        -0.2050
       5    H1      21.244660   20.870943   23.392512 H          1 MOL1         0.0710
       6    H2      19.975921   21.055149   22.189151 H          1 MOL1         0.0710
       7    C3      20.998793   19.118670   22.129868 C.3        1 MOL1        -0.1947
       8    H3      21.943947   19.425126   21.661656 H          1 MOL1         0.0712
       9    H4      21.257501   18.321553   22.840653 H          1 MOL1         0.0712
      10    C4      20.080010   18.560205   21.016533 C.3        1 MOL1        -0.1921
      11    H5      20.644536   17.811917   20.443234 H          1 MOL1         0.0712
      12    H6      19.822225   19.360472   20.309179 H          1 MOL1         0.0712
      13    C5      18.790008   17.899454   21.545293 C.3        1 MOL1        -0.2936
      14    H7      18.251009   17.401918   20.728771 H          1 MOL1         0.0724
      15    H8      18.111824   18.641648   21.983717 H          1 MOL1         0.0724
      16    H9      19.018163   17.145771   22.310301 H          1 MOL1         0.0724
@<TRIPOS>BOND
    1     1     2    1
    2     1     3    2
    3     1     4    1
    4     4     5    1
    5     4     6    1
    6     4     7    1
    7     7     8    1
    8     7     9    1
    9     7    10    1
   10    10    11    1
   11    10    12    1
   12    10    13    1
   13    13    14    1
   14    13    15    1
   15    13    16    1
@<TRIPOS>SUBSTRUCTURE
       1 MOL1            1 RESIDUE      1      MOL     
@<SCITEGIC>MOL_PROPERTY
VConf Rank
SciTegic.value.IntegerValue
950

@<SCITEGIC>MOL_PROPERTY
Conf_Id
SciTegic.value.IntegerValue
45

@<SCITEGIC>MOL_PROPERTY
Delta U+W
SciTegic.value.DoubleValue
2.303

@<SCITEGIC>MOL_PROPERTY
U+W
SciTegic.value.DoubleValue
-54.601

@<SCITEGIC>MOL_PROPERTY
Grad RMS
SciTegic.value.DoubleValue
0.000000

@<SCITEGIC>MOL_PROPERTY
U
SciTegic.value.DoubleValue
11.258

@<SCITEGIC>MOL_PROPERTY
W
SciTegic.value.DoubleValue
-65.860

@<SCITEGIC>MOL_PROPERTY
W(PB)
SciTegic.value.DoubleValue
-67.709

@<SCITEGIC>MOL_PROPERTY
W(SA)
SciTegic.value.DoubleValue
1.849

@<SCITEGIC>MOL_PROPERTY
Valence
SciTegic.value.DoubleValue
8.169

@<SCITEGIC>MOL_PROPERTY
Coulomb
SciTegic.value.DoubleValue
2.735

@<SCITEGIC>MOL_PROPERTY
VdW
SciTegic.value.DoubleValue
0.355

@<SCITEGIC>MOL_PROPERTY
VdW6
SciTegic.value.DoubleValue
-6.245

@<SCITEGIC>MOL_PROPERTY
VdW12
SciTegic.value.DoubleValue
6.600

@<SCITEGIC>MOL_PROPERTY
Bond
SciTegic.value.DoubleValue
0.149

@<SCITEGIC>MOL_PROPERTY
Angle
SciTegic.value.DoubleValue
3.168

@<SCITEGIC>MOL_PROPERTY
Pdih
SciTegic.value.DoubleValue
4.840

@<SCITEGIC>MOL_PROPERTY
Idih
SciTegic.value.DoubleValue
0.011

@<SCITEGIC>MOL_PROPERTY
Tether
SciTegic.value.DoubleValue
0.000

@<TRIPOS>MOLECULE
guest-s18_confgen4.mol2 : confsearch ligand conformer 951
          16          15           1
SMALL
USER_CHARGES
 
@<TRIPOS>ATOM
       1    C1      20.320452   20.602865   24.234266 C.2        1 MOL1         0.6075
       2    O1      19.733011   19.807827   24.941801 O.co2      1 MOL1        -0.6830
       3    O2      20.798268   21.637116   24.655371 O.co2      1 MOL1        -0.6830
       4    C2      20.481797   20.316523   22.740321 C.3        1 MOL1        -0.2050
       5    H1      21.555821   20.323499   22.519904 H          1 MOL1         0.0710
       6    H2      20.037246   21.158053   22.195928 H          1 MOL1         0.0710
       7    C3      19.854963   18.984889   22.248206 C.3        1 MOL1        -0.1947
       8    H3      20.300256   18.146035   22.800935 H          1 MOL1         0.0712
       9    H4      18.780119   18.981459   22.476611 H          1 MOL1         0.0712
      10    C4      20.064325   18.777772   20.733436 C.3        1 MOL1        -0.1921
      11    H5      21.138947   18.779239   20.503900 H          1 MOL1         0.0712
      12    H6      19.617903   19.615160   20.179370 H          1 MOL1         0.0712
      13    C5      19.439679   17.453769   20.250762 C.3        1 MOL1        -0.2936
      14    H7      19.890502   16.595798   20.766625 H          1 MOL1         0.0724
      15    H8      19.597403   17.322095   19.172371 H          1 MOL1         0.0724
      16    H9      18.358236   17.437882   20.439698 H          1 MOL1         0.0724
@<TRIPOS>BOND
    1     1     2    1
    2     1     3    2
    3     1     4    1
    4     4     5    1
    5     4     6    1
    6     4     7    1
    7     7     8    1
    8     7     9    1
    9     7    10    1
   10    10    11    1
   11    10    12    1
   12    10    13    1
   13    13    14    1
   14    13    15    1
   15    13    16    1
@<TRIPOS>SUBSTRUCTURE
       1 MOL1            1 RESIDUE      1      MOL     
@<SCITEGIC>MOL_PROPERTY
VConf Rank
SciTegic.value.IntegerValue
951

@<SCITEGIC>MOL_PROPERTY
Conf_Id
SciTegic.value.IntegerValue
0

@<SCITEGIC>MOL_PROPERTY
Delta U+W
SciTegic.value.DoubleValue
0.000

@<SCITEGIC>MOL_PROPERTY
U+W
SciTegic.value.DoubleValue
-56.904

@<SCITEGIC>MOL_PROPERTY
Grad RMS
SciTegic.value.DoubleValue
0.000000

@<SCITEGIC>MOL_PROPERTY
U
SciTegic.value.DoubleValue
7.329

@<SCITEGIC>MOL_PROPERTY
W
SciTegic.value.DoubleValue
-64.233

@<SCITEGIC>MOL_PROPERTY
W(PB)
SciTegic.value.DoubleValue
-66.148

@<SCITEGIC>MOL_PROPERTY
W(SA)
SciTegic.value.DoubleValue
1.915

@<SCITEGIC>MOL_PROPERTY
Valence
SciTegic.value.DoubleValue
6.755

@<SCITEGIC>MOL_PROPERTY
Coulomb
SciTegic.value.DoubleValue
-0.421

@<SCITEGIC>MOL_PROPERTY
VdW
SciTegic.value.DoubleValue
0.995

@<SCITEGIC>MOL_PROPERTY
VdW6
SciTegic.value.DoubleValue
-4.495

@<SCITEGIC>MOL_PROPERTY
VdW12
SciTegic.value.DoubleValue
5.490

@<SCITEGIC>MOL_PROPERTY
Bond
SciTegic.value.DoubleValue
0.106

@<SCITEGIC>MOL_PROPERTY
Angle
SciTegic.value.DoubleValue
2.715

@<SCITEGIC>MOL_PROPERTY
Pdih
SciTegic.value.DoubleValue
3.934

@<SCITEGIC>MOL_PROPERTY
Idih
SciTegic.value.DoubleValue
0.000

@<SCITEGIC>MOL_PROPERTY
Tether
SciTegic.value.DoubleValue
0.000

@<TRIPOS>MOLECULE
guest-s18_confgen4.mol2 : confsearch ligand conformer 952
          16          15           1
SMALL
USER_CHARGES
 
@<TRIPOS>ATOM
       1    C1      20.291500   16.457164   21.395948 C.2        1 MOL1         0.6075
       2    O1      19.575890   16.049982   20.502669 O.co2      1 MOL1        -0.6830
       3    O2      21.382763   15.987477   21.649687 O.co2      1 MOL1        -0.6830
       4    C2      19.801086   17.633643   22.232592 C.3        1 MOL1        -0.2050
       5    H1      20.198070   17.518675   23.248484 H          1 MOL1         0.0710
       6    H2      18.708421   17.570283   22.302732 H          1 MOL1         0.0710
       7    C3      20.219812   19.005089   21.647900 C.3        1 MOL1        -0.1947
       8    H3      21.315246   19.048367   21.572386 H          1 MOL1         0.0712
       9    H4      19.825587   19.099956   20.626559 H          1 MOL1         0.0712
      10    C4      19.711353   20.177363   22.512659 C.3        1 MOL1        -0.1921
      11    H5      20.105926   20.083224   23.533927 H          1 MOL1         0.0712
      12    H6      18.615878   20.134804   22.587888 H          1 MOL1         0.0712
      13    C5      20.131718   21.538912   21.924800 C.3        1 MOL1        -0.2936
      14    H7      19.724001   21.673171   20.914250 H          1 MOL1         0.0724
      15    H8      21.225057   21.621200   21.867254 H          1 MOL1         0.0724
      16    H9      19.762437   22.361284   22.551287 H          1 MOL1         0.0724
@<TRIPOS>BOND
    1     1     2    1
    2     1     3    2
    3     1     4    1
    4     4     5    1
    5     4     6    1
    6     4     7    1
    7     7     8    1
    8     7     9    1
    9     7    10    1
   10    10    11    1
   11    10    12    1
   12    10    13    1
   13    13    14    1
   14    13    15    1
   15    13    16    1
@<TRIPOS>SUBSTRUCTURE
       1 MOL1            1 RESIDUE      1      MOL     
@<SCITEGIC>MOL_PROPERTY
VConf Rank
SciTegic.value.IntegerValue
952

@<SCITEGIC>MOL_PROPERTY
Conf_Id
SciTegic.value.IntegerValue
22

@<SCITEGIC>MOL_PROPERTY
Delta U+W
SciTegic.value.DoubleValue
-1.185

@<SCITEGIC>MOL_PROPERTY
U+W
SciTegic.value.DoubleValue
-58.089

@<SCITEGIC>MOL_PROPERTY
Grad RMS
SciTegic.value.DoubleValue
0.000000

@<SCITEGIC>MOL_PROPERTY
U
SciTegic.value.DoubleValue
6.298

@<SCITEGIC>MOL_PROPERTY
W
SciTegic.value.DoubleValue
-64.387

@<SCITEGIC>MOL_PROPERTY
W(PB)
SciTegic.value.DoubleValue
-66.329

@<SCITEGIC>MOL_PROPERTY
W(SA)
SciTegic.value.DoubleValue
1.942

@<SCITEGIC>MOL_PROPERTY
Valence
SciTegic.value.DoubleValue
6.246

@<SCITEGIC>MOL_PROPERTY
Coulomb
SciTegic.value.DoubleValue
-0.408

@<SCITEGIC>MOL_PROPERTY
VdW
SciTegic.value.DoubleValue
0.460

@<SCITEGIC>MOL_PROPERTY
VdW6
SciTegic.value.DoubleValue
-4.207

@<SCITEGIC>MOL_PROPERTY
VdW12
SciTegic.value.DoubleValue
4.667

@<SCITEGIC>MOL_PROPERTY
Bond
SciTegic.value.DoubleValue
0.072

@<SCITEGIC>MOL_PROPERTY
Angle
SciTegic.value.DoubleValue
2.246

@<SCITEGIC>MOL_PROPERTY
Pdih
SciTegic.value.DoubleValue
3.928

@<SCITEGIC>MOL_PROPERTY
Idih
SciTegic.value.DoubleValue
0.001

@<SCITEGIC>MOL_PROPERTY
Tether
SciTegic.value.DoubleValue
0.000

@<TRIPOS>MOLECULE
guest-s18_confgen4.mol2 : confsearch ligand conformer 953
          16          15           1
SMALL
USER_CHARGES
 
@<TRIPOS>ATOM
       1    C1      22.054714   18.063801   23.065777 C.2        1 MOL1         0.6075
       2    O1      23.175108   18.238868   22.629814 O.co2      1 MOL1        -0.6830
       3    O2      21.748383   17.124331   23.772540 O.co2      1 MOL1        -0.6830
       4    C2      20.970046   19.066766   22.688778 C.3        1 MOL1        -0.2050
       5    H1      21.440184   20.051320   22.578375 H          1 MOL1         0.0710
       6    H2      20.269533   19.133364   23.528994 H          1 MOL1         0.0710
       7    C3      20.222739   18.682428   21.385394 C.3        1 MOL1        -0.1947
       8    H3      20.960973   18.538713   20.584279 H          1 MOL1         0.0712
       9    H4      19.720669   17.714728   21.522475 H          1 MOL1         0.0712
      10    C4      19.195208   19.743849   20.929352 C.3        1 MOL1        -0.1921
      11    H5      18.793907   19.448978   19.949905 H          1 MOL1         0.0712
      12    H6      19.699244   20.708875   20.780850 H          1 MOL1         0.0712
      13    C5      18.021109   19.917875   21.916338 C.3        1 MOL1        -0.2936
      14    H7      18.362157   20.321401   22.877917 H          1 MOL1         0.0724
      15    H8      17.519308   18.959415   22.102884 H          1 MOL1         0.0724
      16    H9      17.277436   20.614859   21.508696 H          1 MOL1         0.0724
@<TRIPOS>BOND
    1     1     2    1
    2     1     3    2
    3     1     4    1
    4     4     5    1
    5     4     6    1
    6     4     7    1
    7     7     8    1
    8     7     9    1
    9     7    10    1
   10    10    11    1
   11    10    12    1
   12    10    13    1
   13    13    14    1
   14    13    15    1
   15    13    16    1
@<TRIPOS>SUBSTRUCTURE
       1 MOL1            1 RESIDUE      1      MOL     
@<SCITEGIC>MOL_PROPERTY
VConf Rank
SciTegic.value.IntegerValue
953

@<SCITEGIC>MOL_PROPERTY
Conf_Id
SciTegic.value.IntegerValue
36

@<SCITEGIC>MOL_PROPERTY
Delta U+W
SciTegic.value.DoubleValue
-0.427

@<SCITEGIC>MOL_PROPERTY
U+W
SciTegic.value.DoubleValue
-57.331

@<SCITEGIC>MOL_PROPERTY
Grad RMS
SciTegic.value.DoubleValue
0.000000

@<SCITEGIC>MOL_PROPERTY
U
SciTegic.value.DoubleValue
7.263

@<SCITEGIC>MOL_PROPERTY
W
SciTegic.value.DoubleValue
-64.594

@<SCITEGIC>MOL_PROPERTY
W(PB)
SciTegic.value.DoubleValue
-66.513

@<SCITEGIC>MOL_PROPERTY
W(SA)
SciTegic.value.DoubleValue
1.920

@<SCITEGIC>MOL_PROPERTY
Valence
SciTegic.value.DoubleValue
6.734

@<SCITEGIC>MOL_PROPERTY
Coulomb
SciTegic.value.DoubleValue
-0.068

@<SCITEGIC>MOL_PROPERTY
VdW
SciTegic.value.DoubleValue
0.598

@<SCITEGIC>MOL_PROPERTY
VdW6
SciTegic.value.DoubleValue
-4.819

@<SCITEGIC>MOL_PROPERTY
VdW12
SciTegic.value.DoubleValue
5.417

@<SCITEGIC>MOL_PROPERTY
Bond
SciTegic.value.DoubleValue
0.107

@<SCITEGIC>MOL_PROPERTY
Angle
SciTegic.value.DoubleValue
2.469

@<SCITEGIC>MOL_PROPERTY
Pdih
SciTegic.value.DoubleValue
4.157

@<SCITEGIC>MOL_PROPERTY
Idih
SciTegic.value.DoubleValue
0.001

@<SCITEGIC>MOL_PROPERTY
Tether
SciTegic.value.DoubleValue
0.000

@<TRIPOS>MOLECULE
guest-s18_confgen4.mol2 : confsearch ligand conformer 954
          16          15           1
SMALL
USER_CHARGES
 
@<TRIPOS>ATOM
       1    C1      17.479954   18.429302   21.848394 C.2        1 MOL1         0.6075
       2    O1      17.325252   17.293157   22.249891 O.co2      1 MOL1        -0.6830
       3    O2      16.676459   19.007999   21.144476 O.co2      1 MOL1        -0.6830
       4    C2      18.760957   19.161799   22.231866 C.3        1 MOL1        -0.2050
       5    H1      19.057198   18.817608   23.229309 H          1 MOL1         0.0710
       6    H2      18.530919   20.231038   22.311712 H          1 MOL1         0.0710
       7    C3      19.909538   18.936983   21.214411 C.3        1 MOL1        -0.1947
       8    H3      20.159986   17.867869   21.174659 H          1 MOL1         0.0712
       9    H4      19.551746   19.209766   20.211913 H          1 MOL1         0.0712
      10    C4      21.180214   19.759621   21.529145 C.3        1 MOL1        -0.1921
      11    H5      20.932256   20.829716   21.557335 H          1 MOL1         0.0712
      12    H6      21.898202   19.628611   20.707780 H          1 MOL1         0.0712
      13    C5      21.858668   19.348890   22.853505 C.3        1 MOL1        -0.2936
      14    H7      21.218483   19.568831   23.716970 H          1 MOL1         0.0724
      15    H8      22.799352   19.898206   22.989049 H          1 MOL1         0.0724
      16    H9      22.090104   18.275742   22.860065 H          1 MOL1         0.0724
@<TRIPOS>BOND
    1     1     2    1
    2     1     3    2
    3     1     4    1
    4     4     5    1
    5     4     6    1
    6     4     7    1
    7     7     8    1
    8     7     9    1
    9     7    10    1
   10    10    11    1
   11    10    12    1
   12    10    13    1
   13    13    14    1
   14    13    15    1
   15    13    16    1
@<TRIPOS>SUBSTRUCTURE
       1 MOL1            1 RESIDUE      1      MOL     
@<SCITEGIC>MOL_PROPERTY
VConf Rank
SciTegic.value.IntegerValue
954

@<SCITEGIC>MOL_PROPERTY
Conf_Id
SciTegic.value.IntegerValue
17

@<SCITEGIC>MOL_PROPERTY
Delta U+W
SciTegic.value.DoubleValue
-0.432

@<SCITEGIC>MOL_PROPERTY
U+W
SciTegic.value.DoubleValue
-57.336

@<SCITEGIC>MOL_PROPERTY
Grad RMS
SciTegic.value.DoubleValue
0.000000

@<SCITEGIC>MOL_PROPERTY
U
SciTegic.value.DoubleValue
7.263

@<SCITEGIC>MOL_PROPERTY
W
SciTegic.value.DoubleValue
-64.599

@<SCITEGIC>MOL_PROPERTY
W(PB)
SciTegic.value.DoubleValue
-66.503

@<SCITEGIC>MOL_PROPERTY
W(SA)
SciTegic.value.DoubleValue
1.904

@<SCITEGIC>MOL_PROPERTY
Valence
SciTegic.value.DoubleValue
6.734

@<SCITEGIC>MOL_PROPERTY
Coulomb
SciTegic.value.DoubleValue
-0.068

@<SCITEGIC>MOL_PROPERTY
VdW
SciTegic.value.DoubleValue
0.598

@<SCITEGIC>MOL_PROPERTY
VdW6
SciTegic.value.DoubleValue
-4.819

@<SCITEGIC>MOL_PROPERTY
VdW12
SciTegic.value.DoubleValue
5.417

@<SCITEGIC>MOL_PROPERTY
Bond
SciTegic.value.DoubleValue
0.107

@<SCITEGIC>MOL_PROPERTY
Angle
SciTegic.value.DoubleValue
2.469

@<SCITEGIC>MOL_PROPERTY
Pdih
SciTegic.value.DoubleValue
4.157

@<SCITEGIC>MOL_PROPERTY
Idih
SciTegic.value.DoubleValue
0.001

@<SCITEGIC>MOL_PROPERTY
Tether
SciTegic.value.DoubleValue
0.000

@<TRIPOS>MOLECULE
guest-s18_confgen4.mol2 : confsearch ligand conformer 955
          16          15           1
SMALL
USER_CHARGES
 
@<TRIPOS>ATOM
       1    C1      19.384314   21.273930   21.405496 C.2        1 MOL1         0.6075
       2    O1      18.368932   21.241955   20.738923 O.co2      1 MOL1        -0.6830
       3    O2      19.539733   22.013967   22.356523 O.co2      1 MOL1        -0.6830
       4    C2      20.534029   20.351118   21.010444 C.3        1 MOL1        -0.2050
       5    H1      21.459663   20.732743   21.458381 H          1 MOL1         0.0710
       6    H2      20.654612   20.424043   19.923074 H          1 MOL1         0.0710
       7    C3      20.319254   18.867714   21.408462 C.3        1 MOL1        -0.1947
       8    H3      19.374959   18.507860   20.976680 H          1 MOL1         0.0712
       9    H4      21.120742   18.260455   20.966407 H          1 MOL1         0.0712
      10    C4      20.307819   18.659009   22.938330 C.3        1 MOL1        -0.1921
      11    H5      19.496063   19.246437   23.389664 H          1 MOL1         0.0712
      12    H6      21.247423   19.030620   23.370102 H          1 MOL1         0.0712
      13    C5      20.126836   17.172884   23.305784 C.3        1 MOL1        -0.2936
      14    H7      19.178711   16.783899   22.911832 H          1 MOL1         0.0724
      15    H8      20.120065   17.042232   24.395739 H          1 MOL1         0.0724
      16    H9      20.943945   16.564415   22.896499 H          1 MOL1         0.0724
@<TRIPOS>BOND
    1     1     2    1
    2     1     3    2
    3     1     4    1
    4     4     5    1
    5     4     6    1
    6     4     7    1
    7     7     8    1
    8     7     9    1
    9     7    10    1
   10    10    11    1
   11    10    12    1
   12    10    13    1
   13    13    14    1
   14    13    15    1
   15    13    16    1
@<TRIPOS>SUBSTRUCTURE
       1 MOL1            1 RESIDUE      1      MOL     
@<SCITEGIC>MOL_PROPERTY
VConf Rank
SciTegic.value.IntegerValue
955

@<SCITEGIC>MOL_PROPERTY
Conf_Id
SciTegic.value.IntegerValue
19

@<SCITEGIC>MOL_PROPERTY
Delta U+W
SciTegic.value.DoubleValue
0.048

@<SCITEGIC>MOL_PROPERTY
U+W
SciTegic.value.DoubleValue
-56.856

@<SCITEGIC>MOL_PROPERTY
Grad RMS
SciTegic.value.DoubleValue
0.000000

@<SCITEGIC>MOL_PROPERTY
U
SciTegic.value.DoubleValue
8.276

@<SCITEGIC>MOL_PROPERTY
W
SciTegic.value.DoubleValue
-65.132

@<SCITEGIC>MOL_PROPERTY
W(PB)
SciTegic.value.DoubleValue
-67.031

@<SCITEGIC>MOL_PROPERTY
W(SA)
SciTegic.value.DoubleValue
1.899

@<SCITEGIC>MOL_PROPERTY
Valence
SciTegic.value.DoubleValue
6.513

@<SCITEGIC>MOL_PROPERTY
Coulomb
SciTegic.value.DoubleValue
1.428

@<SCITEGIC>MOL_PROPERTY
VdW
SciTegic.value.DoubleValue
0.335

@<SCITEGIC>MOL_PROPERTY
VdW6
SciTegic.value.DoubleValue
-5.021

@<SCITEGIC>MOL_PROPERTY
VdW12
SciTegic.value.DoubleValue
5.356

@<SCITEGIC>MOL_PROPERTY
Bond
SciTegic.value.DoubleValue
0.092

@<SCITEGIC>MOL_PROPERTY
Angle
SciTegic.value.DoubleValue
2.417

@<SCITEGIC>MOL_PROPERTY
Pdih
SciTegic.value.DoubleValue
4.003

@<SCITEGIC>MOL_PROPERTY
Idih
SciTegic.value.DoubleValue
0.001

@<SCITEGIC>MOL_PROPERTY
Tether
SciTegic.value.DoubleValue
0.000

@<TRIPOS>MOLECULE
guest-s18_confgen4.mol2 : confsearch ligand conformer 956
          16          15           1
SMALL
USER_CHARGES
 
@<TRIPOS>ATOM
       1    C1      20.065358   21.172341   23.324002 C.2        1 MOL1         0.6075
       2    O1      20.503814   21.012816   24.445898 O.co2      1 MOL1        -0.6830
       3    O2      19.071299   21.826512   23.078710 O.co2      1 MOL1        -0.6830
       4    C2      20.818671   20.535271   22.159460 C.3        1 MOL1        -0.2050
       5    H1      21.885458   20.741579   22.306561 H          1 MOL1         0.0710
       6    H2      20.522914   21.040833   21.232087 H          1 MOL1         0.0710
       7    C3      20.601375   19.005443   22.027345 C.3        1 MOL1        -0.1947
       8    H3      21.282606   18.613662   21.259888 H          1 MOL1         0.0712
       9    H4      20.874563   18.515861   22.972491 H          1 MOL1         0.0712
      10    C4      19.148531   18.642255   21.651141 C.3        1 MOL1        -0.1921
      11    H5      18.872696   19.142357   20.712423 H          1 MOL1         0.0712
      12    H6      18.459026   19.011779   22.422994 H          1 MOL1         0.0712
      13    C5      18.968240   17.119450   21.493307 C.3        1 MOL1        -0.2936
      14    H7      19.621144   16.726108   20.703109 H          1 MOL1         0.0724
      15    H8      17.930853   16.878549   21.227017 H          1 MOL1         0.0724
      16    H9      19.208251   16.596860   22.428585 H          1 MOL1         0.0724
@<TRIPOS>BOND
    1     1     2    1
    2     1     3    2
    3     1     4    1
    4     4     5    1
    5     4     6    1
    6     4     7    1
    7     7     8    1
    8     7     9    1
    9     7    10    1
   10    10    11    1
   11    10    12    1
   12    10    13    1
   13    13    14    1
   14    13    15    1
   15    13    16    1
@<TRIPOS>SUBSTRUCTURE
       1 MOL1            1 RESIDUE      1      MOL     
@<SCITEGIC>MOL_PROPERTY
VConf Rank
SciTegic.value.IntegerValue
956

@<SCITEGIC>MOL_PROPERTY
Conf_Id
SciTegic.value.IntegerValue
20

@<SCITEGIC>MOL_PROPERTY
Delta U+W
SciTegic.value.DoubleValue
-0.010

@<SCITEGIC>MOL_PROPERTY
U+W
SciTegic.value.DoubleValue
-56.914

@<SCITEGIC>MOL_PROPERTY
Grad RMS
SciTegic.value.DoubleValue
0.000000

@<SCITEGIC>MOL_PROPERTY
U
SciTegic.value.DoubleValue
8.277

@<SCITEGIC>MOL_PROPERTY
W
SciTegic.value.DoubleValue
-65.191

@<SCITEGIC>MOL_PROPERTY
W(PB)
SciTegic.value.DoubleValue
-67.081

@<SCITEGIC>MOL_PROPERTY
W(SA)
SciTegic.value.DoubleValue
1.890

@<SCITEGIC>MOL_PROPERTY
Valence
SciTegic.value.DoubleValue
6.513

@<SCITEGIC>MOL_PROPERTY
Coulomb
SciTegic.value.DoubleValue
1.429

@<SCITEGIC>MOL_PROPERTY
VdW
SciTegic.value.DoubleValue
0.335

@<SCITEGIC>MOL_PROPERTY
VdW6
SciTegic.value.DoubleValue
-5.021

@<SCITEGIC>MOL_PROPERTY
VdW12
SciTegic.value.DoubleValue
5.356

@<SCITEGIC>MOL_PROPERTY
Bond
SciTegic.value.DoubleValue
0.092

@<SCITEGIC>MOL_PROPERTY
Angle
SciTegic.value.DoubleValue
2.417

@<SCITEGIC>MOL_PROPERTY
Pdih
SciTegic.value.DoubleValue
4.002

@<SCITEGIC>MOL_PROPERTY
Idih
SciTegic.value.DoubleValue
0.001

@<SCITEGIC>MOL_PROPERTY
Tether
SciTegic.value.DoubleValue
0.000

@<TRIPOS>MOLECULE
guest-s18_confgen4.mol2 : confsearch ligand conformer 957
          16          15           1
SMALL
USER_CHARGES
 
@<TRIPOS>ATOM
       1    C1      17.810711   18.593445   22.459787 C.2        1 MOL1         0.6075
       2    O1      16.893035   19.390062   22.452152 O.co2      1 MOL1        -0.6830
       3    O2      17.936856   17.724393   23.299510 O.co2      1 MOL1        -0.6830
       4    C2      18.839090   18.669447   21.334439 C.3        1 MOL1        -0.2050
       5    H1      18.285323   18.693975   20.388594 H          1 MOL1         0.0710
       6    H2      19.422846   17.741852   21.327911 H          1 MOL1         0.0710
       7    C3      19.776347   19.905666   21.411826 C.3        1 MOL1        -0.1947
       8    H3      20.424962   19.921880   20.525594 H          1 MOL1         0.0712
       9    H4      19.163742   20.816473   21.361825 H          1 MOL1         0.0712
      10    C4      20.653221   19.962473   22.685347 C.3        1 MOL1        -0.1921
      11    H5      20.014414   19.981968   23.579295 H          1 MOL1         0.0712
      12    H6      21.213803   20.907394   22.685396 H          1 MOL1         0.0712
      13    C5      21.652499   18.790669   22.789084 C.3        1 MOL1        -0.2936
      14    H7      21.131306   17.833197   22.915943 H          1 MOL1         0.0724
      15    H8      22.313326   18.925666   23.655076 H          1 MOL1         0.0724
      16    H9      22.280120   18.727187   21.890681 H          1 MOL1         0.0724
@<TRIPOS>BOND
    1     1     2    1
    2     1     3    2
    3     1     4    1
    4     4     5    1
    5     4     6    1
    6     4     7    1
    7     7     8    1
    8     7     9    1
    9     7    10    1
   10    10    11    1
   11    10    12    1
   12    10    13    1
   13    13    14    1
   14    13    15    1
   15    13    16    1
@<TRIPOS>SUBSTRUCTURE
       1 MOL1            1 RESIDUE      1      MOL     
@<SCITEGIC>MOL_PROPERTY
VConf Rank
SciTegic.value.IntegerValue
957

@<SCITEGIC>MOL_PROPERTY
Conf_Id
SciTegic.value.IntegerValue
37

@<SCITEGIC>MOL_PROPERTY
Delta U+W
SciTegic.value.DoubleValue
1.063

@<SCITEGIC>MOL_PROPERTY
U+W
SciTegic.value.DoubleValue
-55.841

@<SCITEGIC>MOL_PROPERTY
Grad RMS
SciTegic.value.DoubleValue
0.000000

@<SCITEGIC>MOL_PROPERTY
U
SciTegic.value.DoubleValue
9.719

@<SCITEGIC>MOL_PROPERTY
W
SciTegic.value.DoubleValue
-65.560

@<SCITEGIC>MOL_PROPERTY
W(PB)
SciTegic.value.DoubleValue
-67.414

@<SCITEGIC>MOL_PROPERTY
W(SA)
SciTegic.value.DoubleValue
1.854

@<SCITEGIC>MOL_PROPERTY
Valence
SciTegic.value.DoubleValue
7.002

@<SCITEGIC>MOL_PROPERTY
Coulomb
SciTegic.value.DoubleValue
2.402

@<SCITEGIC>MOL_PROPERTY
VdW
SciTegic.value.DoubleValue
0.314

@<SCITEGIC>MOL_PROPERTY
VdW6
SciTegic.value.DoubleValue
-5.861

@<SCITEGIC>MOL_PROPERTY
VdW12
SciTegic.value.DoubleValue
6.175

@<SCITEGIC>MOL_PROPERTY
Bond
SciTegic.value.DoubleValue
0.134

@<SCITEGIC>MOL_PROPERTY
Angle
SciTegic.value.DoubleValue
2.733

@<SCITEGIC>MOL_PROPERTY
Pdih
SciTegic.value.DoubleValue
4.133

@<SCITEGIC>MOL_PROPERTY
Idih
SciTegic.value.DoubleValue
0.002

@<SCITEGIC>MOL_PROPERTY
Tether
SciTegic.value.DoubleValue
0.000

@<TRIPOS>MOLECULE
guest-s18_confgen4.mol2 : confsearch ligand conformer 958
          16          15           1
SMALL
USER_CHARGES
 
@<TRIPOS>ATOM
       1    C1      18.470094   18.066526   21.339648 C.2        1 MOL1         0.6075
       2    O1      18.485606   17.571090   20.230104 O.co2      1 MOL1        -0.6830
       3    O2      18.062487   17.487059   22.326753 O.co2      1 MOL1        -0.6830
       4    C2      18.956700   19.505156   21.492305 C.3        1 MOL1        -0.2050
       5    H1      18.629082   19.886001   22.466406 H          1 MOL1         0.0710
       6    H2      18.439710   20.105735   20.734738 H          1 MOL1         0.0710
       7    C3      20.491102   19.678714   21.324478 C.3        1 MOL1        -0.1947
       8    H3      20.776809   19.338115   20.319630 H          1 MOL1         0.0712
       9    H4      20.739677   20.747618   21.369476 H          1 MOL1         0.0712
      10    C4      21.337530   18.914912   22.370499 C.3        1 MOL1        -0.1921
      11    H5      22.400285   19.032896   22.117991 H          1 MOL1         0.0712
      12    H6      21.123473   17.838657   22.311754 H          1 MOL1         0.0712
      13    C5      21.111095   19.409276   23.815065 C.3        1 MOL1        -0.2936
      14    H7      21.284296   20.490451   23.893344 H          1 MOL1         0.0724
      15    H8      21.799674   18.905077   24.505357 H          1 MOL1         0.0724
      16    H9      20.088679   19.196864   24.152752 H          1 MOL1         0.0724
@<TRIPOS>BOND
    1     1     2    1
    2     1     3    2
    3     1     4    1
    4     4     5    1
    5     4     6    1
    6     4     7    1
    7     7     8    1
    8     7     9    1
    9     7    10    1
   10    10    11    1
   11    10    12    1
   12    10    13    1
   13    13    14    1
   14    13    15    1
   15    13    16    1
@<TRIPOS>SUBSTRUCTURE
       1 MOL1            1 RESIDUE      1      MOL     
@<SCITEGIC>MOL_PROPERTY
VConf Rank
SciTegic.value.IntegerValue
958

@<SCITEGIC>MOL_PROPERTY
Conf_Id
SciTegic.value.IntegerValue
39

@<SCITEGIC>MOL_PROPERTY
Delta U+W
SciTegic.value.DoubleValue
1.129

@<SCITEGIC>MOL_PROPERTY
U+W
SciTegic.value.DoubleValue
-55.775

@<SCITEGIC>MOL_PROPERTY
Grad RMS
SciTegic.value.DoubleValue
0.000000

@<SCITEGIC>MOL_PROPERTY
U
SciTegic.value.DoubleValue
9.718

@<SCITEGIC>MOL_PROPERTY
W
SciTegic.value.DoubleValue
-65.493

@<SCITEGIC>MOL_PROPERTY
W(PB)
SciTegic.value.DoubleValue
-67.361

@<SCITEGIC>MOL_PROPERTY
W(SA)
SciTegic.value.DoubleValue
1.869

@<SCITEGIC>MOL_PROPERTY
Valence
SciTegic.value.DoubleValue
7.002

@<SCITEGIC>MOL_PROPERTY
Coulomb
SciTegic.value.DoubleValue
2.402

@<SCITEGIC>MOL_PROPERTY
VdW
SciTegic.value.DoubleValue
0.314

@<SCITEGIC>MOL_PROPERTY
VdW6
SciTegic.value.DoubleValue
-5.861

@<SCITEGIC>MOL_PROPERTY
VdW12
SciTegic.value.DoubleValue
6.175

@<SCITEGIC>MOL_PROPERTY
Bond
SciTegic.value.DoubleValue
0.134

@<SCITEGIC>MOL_PROPERTY
Angle
SciTegic.value.DoubleValue
2.734

@<SCITEGIC>MOL_PROPERTY
Pdih
SciTegic.value.DoubleValue
4.133

@<SCITEGIC>MOL_PROPERTY
Idih
SciTegic.value.DoubleValue
0.002

@<SCITEGIC>MOL_PROPERTY
Tether
SciTegic.value.DoubleValue
0.000

@<TRIPOS>MOLECULE
guest-s18_confgen4.mol2 : confsearch ligand conformer 959
          16          15           1
SMALL
USER_CHARGES
 
@<TRIPOS>ATOM
       1    C1      18.303420   18.641008   21.154388 C.2        1 MOL1         0.6075
       2    O1      18.535476   17.717789   20.398983 O.co2      1 MOL1        -0.6830
       3    O2      17.778960   19.678762   20.800599 O.co2      1 MOL1        -0.6830
       4    C2      18.604591   18.450273   22.639841 C.3        1 MOL1        -0.2050
       5    H1      18.997052   17.438266   22.797309 H          1 MOL1         0.0710
       6    H2      17.640110   18.496422   23.158875 H          1 MOL1         0.0710
       7    C3      19.564232   19.502376   23.263661 C.3        1 MOL1        -0.1947
       8    H3      19.281506   20.510837   22.931076 H          1 MOL1         0.0712
       9    H4      19.418437   19.490752   24.352266 H          1 MOL1         0.0712
      10    C4      21.066337   19.252969   22.986099 C.3        1 MOL1        -0.1921
      11    H5      21.344469   18.243214   23.318167 H          1 MOL1         0.0712
      12    H6      21.653275   19.951526   23.598320 H          1 MOL1         0.0712
      13    C5      21.467525   19.442276   21.508433 C.3        1 MOL1        -0.2936
      14    H7      21.034195   18.659926   20.873490 H          1 MOL1         0.0724
      15    H8      22.558273   19.390789   21.397139 H          1 MOL1         0.0724
      16    H9      21.133431   20.417636   21.131096 H          1 MOL1         0.0724
@<TRIPOS>BOND
    1     1     2    1
    2     1     3    2
    3     1     4    1
    4     4     5    1
    5     4     6    1
    6     4     7    1
    7     7     8    1
    8     7     9    1
    9     7    10    1
   10    10    11    1
   11    10    12    1
   12    10    13    1
   13    13    14    1
   14    13    15    1
   15    13    16    1
@<TRIPOS>SUBSTRUCTURE
       1 MOL1            1 RESIDUE      1      MOL     
@<SCITEGIC>MOL_PROPERTY
VConf Rank
SciTegic.value.IntegerValue
959

@<SCITEGIC>MOL_PROPERTY
Conf_Id
SciTegic.value.IntegerValue
47

@<SCITEGIC>MOL_PROPERTY
Delta U+W
SciTegic.value.DoubleValue
2.301

@<SCITEGIC>MOL_PROPERTY
U+W
SciTegic.value.DoubleValue
-54.603

@<SCITEGIC>MOL_PROPERTY
Grad RMS
SciTegic.value.DoubleValue
0.000000

@<SCITEGIC>MOL_PROPERTY
U
SciTegic.value.DoubleValue
11.258

@<SCITEGIC>MOL_PROPERTY
W
SciTegic.value.DoubleValue
-65.861

@<SCITEGIC>MOL_PROPERTY
W(PB)
SciTegic.value.DoubleValue
-67.702

@<SCITEGIC>MOL_PROPERTY
W(SA)
SciTegic.value.DoubleValue
1.841

@<SCITEGIC>MOL_PROPERTY
Valence
SciTegic.value.DoubleValue
8.169

@<SCITEGIC>MOL_PROPERTY
Coulomb
SciTegic.value.DoubleValue
2.735

@<SCITEGIC>MOL_PROPERTY
VdW
SciTegic.value.DoubleValue
0.355

@<SCITEGIC>MOL_PROPERTY
VdW6
SciTegic.value.DoubleValue
-6.245

@<SCITEGIC>MOL_PROPERTY
VdW12
SciTegic.value.DoubleValue
6.600

@<SCITEGIC>MOL_PROPERTY
Bond
SciTegic.value.DoubleValue
0.149

@<SCITEGIC>MOL_PROPERTY
Angle
SciTegic.value.DoubleValue
3.168

@<SCITEGIC>MOL_PROPERTY
Pdih
SciTegic.value.DoubleValue
4.840

@<SCITEGIC>MOL_PROPERTY
Idih
SciTegic.value.DoubleValue
0.011

@<SCITEGIC>MOL_PROPERTY
Tether
SciTegic.value.DoubleValue
0.000

@<TRIPOS>MOLECULE
guest-s18_confgen4.mol2 : confsearch ligand conformer 960
          16          15           1
SMALL
USER_CHARGES
 
@<TRIPOS>ATOM
       1    C1      18.198027   18.362427   23.041408 C.2        1 MOL1         0.6075
       2    O1      17.284256   18.573543   22.268356 O.co2      1 MOL1        -0.6830
       3    O2      18.128501   18.582038   24.234621 O.co2      1 MOL1        -0.6830
       4    C2      19.466574   17.703910   22.502139 C.3        1 MOL1        -0.2050
       5    H1      19.164616   16.724547   22.113014 H          1 MOL1         0.0710
       6    H2      20.151458   17.511764   23.337000 H          1 MOL1         0.0710
       7    C3      20.196919   18.490471   21.377460 C.3        1 MOL1        -0.1947
       8    H3      20.843099   17.786331   20.836080 H          1 MOL1         0.0712
       9    H4      19.467015   18.857837   20.642733 H          1 MOL1         0.0712
      10    C4      21.083467   19.657555   21.874962 C.3        1 MOL1        -0.1921
      11    H5      21.669441   20.035044   21.025591 H          1 MOL1         0.0712
      12    H6      21.810455   19.286538   22.610533 H          1 MOL1         0.0712
      13    C5      20.286802   20.832294   22.479610 C.3        1 MOL1        -0.2936
      14    H7      20.951161   21.681718   22.684246 H          1 MOL1         0.0724
      15    H8      19.813665   20.548170   23.427457 H          1 MOL1         0.0724
      16    H9      19.502698   21.172828   21.790736 H          1 MOL1         0.0724
@<TRIPOS>BOND
    1     1     2    1
    2     1     3    2
    3     1     4    1
    4     4     5    1
    5     4     6    1
    6     4     7    1
    7     7     8    1
    8     7     9    1
    9     7    10    1
   10    10    11    1
   11    10    12    1
   12    10    13    1
   13    13    14    1
   14    13    15    1
   15    13    16    1
@<TRIPOS>SUBSTRUCTURE
       1 MOL1            1 RESIDUE      1      MOL     
@<SCITEGIC>MOL_PROPERTY
VConf Rank
SciTegic.value.IntegerValue
960

@<SCITEGIC>MOL_PROPERTY
Conf_Id
SciTegic.value.IntegerValue
45

@<SCITEGIC>MOL_PROPERTY
Delta U+W
SciTegic.value.DoubleValue
2.303

@<SCITEGIC>MOL_PROPERTY
U+W
SciTegic.value.DoubleValue
-54.601

@<SCITEGIC>MOL_PROPERTY
Grad RMS
SciTegic.value.DoubleValue
0.000000

@<SCITEGIC>MOL_PROPERTY
U
SciTegic.value.DoubleValue
11.258

@<SCITEGIC>MOL_PROPERTY
W
SciTegic.value.DoubleValue
-65.860

@<SCITEGIC>MOL_PROPERTY
W(PB)
SciTegic.value.DoubleValue
-67.709

@<SCITEGIC>MOL_PROPERTY
W(SA)
SciTegic.value.DoubleValue
1.849

@<SCITEGIC>MOL_PROPERTY
Valence
SciTegic.value.DoubleValue
8.169

@<SCITEGIC>MOL_PROPERTY
Coulomb
SciTegic.value.DoubleValue
2.735

@<SCITEGIC>MOL_PROPERTY
VdW
SciTegic.value.DoubleValue
0.355

@<SCITEGIC>MOL_PROPERTY
VdW6
SciTegic.value.DoubleValue
-6.245

@<SCITEGIC>MOL_PROPERTY
VdW12
SciTegic.value.DoubleValue
6.600

@<SCITEGIC>MOL_PROPERTY
Bond
SciTegic.value.DoubleValue
0.149

@<SCITEGIC>MOL_PROPERTY
Angle
SciTegic.value.DoubleValue
3.168

@<SCITEGIC>MOL_PROPERTY
Pdih
SciTegic.value.DoubleValue
4.840

@<SCITEGIC>MOL_PROPERTY
Idih
SciTegic.value.DoubleValue
0.011

@<SCITEGIC>MOL_PROPERTY
Tether
SciTegic.value.DoubleValue
0.000

@<TRIPOS>MOLECULE
guest-s18_confgen4.mol2 : confsearch ligand conformer 961
          16          15           1
SMALL
USER_CHARGES
 
@<TRIPOS>ATOM
       1    C1      17.295270   19.398950   21.446551 C.2        1 MOL1         0.6075
       2    O1      17.246056   20.548990   21.837399 O.co2      1 MOL1        -0.6830
       3    O2      16.324836   18.799104   21.029709 O.co2      1 MOL1        -0.6830
       4    C2      18.626013   18.644932   21.468287 C.3        1 MOL1        -0.2050
       5    H1      18.830785   18.312900   20.443600 H          1 MOL1         0.0710
       6    H2      18.481256   17.743025   22.074730 H          1 MOL1         0.0710
       7    C3      19.836833   19.450871   22.009329 C.3        1 MOL1        -0.1947
       8    H3      19.973532   20.355882   21.401268 H          1 MOL1         0.0712
       9    H4      19.623647   19.785402   23.034078 H          1 MOL1         0.0712
      10    C4      21.134175   18.615426   21.995428 C.3        1 MOL1        -0.1921
      11    H5      21.349483   18.281704   20.970844 H          1 MOL1         0.0712
      12    H6      20.999399   17.710877   22.604630 H          1 MOL1         0.0712
      13    C5      22.332951   19.421169   22.533813 C.3        1 MOL1        -0.2936
      14    H7      22.510325   20.316413   21.923448 H          1 MOL1         0.0724
      15    H8      23.246702   18.812958   22.517104 H          1 MOL1         0.0724
      16    H9      22.157664   19.741377   23.569288 H          1 MOL1         0.0724
@<TRIPOS>BOND
    1     1     2    1
    2     1     3    2
    3     1     4    1
    4     4     5    1
    5     4     6    1
    6     4     7    1
    7     7     8    1
    8     7     9    1
    9     7    10    1
   10    10    11    1
   11    10    12    1
   12    10    13    1
   13    13    14    1
   14    13    15    1
   15    13    16    1
@<TRIPOS>SUBSTRUCTURE
       1 MOL1            1 RESIDUE      1      MOL     
@<SCITEGIC>MOL_PROPERTY
VConf Rank
SciTegic.value.IntegerValue
961

@<SCITEGIC>MOL_PROPERTY
Conf_Id
SciTegic.value.IntegerValue
0

@<SCITEGIC>MOL_PROPERTY
Delta U+W
SciTegic.value.DoubleValue
0.000

@<SCITEGIC>MOL_PROPERTY
U+W
SciTegic.value.DoubleValue
-56.904

@<SCITEGIC>MOL_PROPERTY
Grad RMS
SciTegic.value.DoubleValue
0.000000

@<SCITEGIC>MOL_PROPERTY
U
SciTegic.value.DoubleValue
7.329

@<SCITEGIC>MOL_PROPERTY
W
SciTegic.value.DoubleValue
-64.233

@<SCITEGIC>MOL_PROPERTY
W(PB)
SciTegic.value.DoubleValue
-66.148

@<SCITEGIC>MOL_PROPERTY
W(SA)
SciTegic.value.DoubleValue
1.915

@<SCITEGIC>MOL_PROPERTY
Valence
SciTegic.value.DoubleValue
6.755

@<SCITEGIC>MOL_PROPERTY
Coulomb
SciTegic.value.DoubleValue
-0.421

@<SCITEGIC>MOL_PROPERTY
VdW
SciTegic.value.DoubleValue
0.995

@<SCITEGIC>MOL_PROPERTY
VdW6
SciTegic.value.DoubleValue
-4.495

@<SCITEGIC>MOL_PROPERTY
VdW12
SciTegic.value.DoubleValue
5.490

@<SCITEGIC>MOL_PROPERTY
Bond
SciTegic.value.DoubleValue
0.106

@<SCITEGIC>MOL_PROPERTY
Angle
SciTegic.value.DoubleValue
2.715

@<SCITEGIC>MOL_PROPERTY
Pdih
SciTegic.value.DoubleValue
3.934

@<SCITEGIC>MOL_PROPERTY
Idih
SciTegic.value.DoubleValue
0.000

@<SCITEGIC>MOL_PROPERTY
Tether
SciTegic.value.DoubleValue
0.000

@<TRIPOS>MOLECULE
guest-s18_confgen4.mol2 : confsearch ligand conformer 962
          16          15           1
SMALL
USER_CHARGES
 
@<TRIPOS>ATOM
       1    C1      19.462739   17.718230   19.669286 C.2        1 MOL1         0.6075
       2    O1      18.653227   16.824086   19.814336 O.co2      1 MOL1        -0.6830
       3    O2      19.593967   18.344915   18.636867 O.co2      1 MOL1        -0.6830
       4    C2      20.349995   18.086132   20.853350 C.3        1 MOL1        -0.2050
       5    H1      21.315767   18.428625   20.462411 H          1 MOL1         0.0710
       6    H2      20.540078   17.174836   21.433228 H          1 MOL1         0.0710
       7    C3      19.724626   19.174882   21.759770 C.3        1 MOL1        -0.1947
       8    H3      19.528867   20.076172   21.162355 H          1 MOL1         0.0712
       9    H4      18.753105   18.822357   22.133166 H          1 MOL1         0.0712
      10    C4      20.641809   19.528271   22.949078 C.3        1 MOL1        -0.1921
      11    H5      21.613219   19.881495   22.576074 H          1 MOL1         0.0712
      12    H6      20.837289   18.627342   23.547119 H          1 MOL1         0.0712
      13    C5      20.013098   20.612265   23.846731 C.3        1 MOL1        -0.2936
      14    H7      19.053845   20.272894   24.259200 H          1 MOL1         0.0724
      15    H8      19.835484   21.536303   23.280976 H          1 MOL1         0.0724
      16    H9      20.677628   20.851788   24.687075 H          1 MOL1         0.0724
@<TRIPOS>BOND
    1     1     2    1
    2     1     3    2
    3     1     4    1
    4     4     5    1
    5     4     6    1
    6     4     7    1
    7     7     8    1
    8     7     9    1
    9     7    10    1
   10    10    11    1
   11    10    12    1
   12    10    13    1
   13    13    14    1
   14    13    15    1
   15    13    16    1
@<TRIPOS>SUBSTRUCTURE
       1 MOL1            1 RESIDUE      1      MOL     
@<SCITEGIC>MOL_PROPERTY
VConf Rank
SciTegic.value.IntegerValue
962

@<SCITEGIC>MOL_PROPERTY
Conf_Id
SciTegic.value.IntegerValue
22

@<SCITEGIC>MOL_PROPERTY
Delta U+W
SciTegic.value.DoubleValue
-1.185

@<SCITEGIC>MOL_PROPERTY
U+W
SciTegic.value.DoubleValue
-58.089

@<SCITEGIC>MOL_PROPERTY
Grad RMS
SciTegic.value.DoubleValue
0.000000

@<SCITEGIC>MOL_PROPERTY
U
SciTegic.value.DoubleValue
6.298

@<SCITEGIC>MOL_PROPERTY
W
SciTegic.value.DoubleValue
-64.387

@<SCITEGIC>MOL_PROPERTY
W(PB)
SciTegic.value.DoubleValue
-66.329

@<SCITEGIC>MOL_PROPERTY
W(SA)
SciTegic.value.DoubleValue
1.942

@<SCITEGIC>MOL_PROPERTY
Valence
SciTegic.value.DoubleValue
6.246

@<SCITEGIC>MOL_PROPERTY
Coulomb
SciTegic.value.DoubleValue
-0.408

@<SCITEGIC>MOL_PROPERTY
VdW
SciTegic.value.DoubleValue
0.460

@<SCITEGIC>MOL_PROPERTY
VdW6
SciTegic.value.DoubleValue
-4.207

@<SCITEGIC>MOL_PROPERTY
VdW12
SciTegic.value.DoubleValue
4.667

@<SCITEGIC>MOL_PROPERTY
Bond
SciTegic.value.DoubleValue
0.072

@<SCITEGIC>MOL_PROPERTY
Angle
SciTegic.value.DoubleValue
2.246

@<SCITEGIC>MOL_PROPERTY
Pdih
SciTegic.value.DoubleValue
3.928

@<SCITEGIC>MOL_PROPERTY
Idih
SciTegic.value.DoubleValue
0.001

@<SCITEGIC>MOL_PROPERTY
Tether
SciTegic.value.DoubleValue
0.000

@<TRIPOS>MOLECULE
guest-s18_confgen4.mol2 : confsearch ligand conformer 963
          16          15           1
SMALL
USER_CHARGES
 
@<TRIPOS>ATOM
       1    C1      20.851587   21.575471   21.899810 C.2        1 MOL1         0.6075
       2    O1      21.757823   21.910252   21.163161 O.co2      1 MOL1        -0.6830
       3    O2      20.527227   22.198211   22.891245 O.co2      1 MOL1        -0.6830
       4    C2      20.093698   20.293512   21.573072 C.3        1 MOL1        -0.2050
       5    H1      20.074780   20.177621   20.482762 H          1 MOL1         0.0710
       6    H2      19.057158   20.424206   21.904165 H          1 MOL1         0.0710
       7    C3      20.722407   19.038757   22.232851 C.3        1 MOL1        -0.1947
       8    H3      21.782983   18.985185   21.950476 H          1 MOL1         0.0712
       9    H4      20.697047   19.147766   23.325912 H          1 MOL1         0.0712
      10    C4      20.032136   17.717187   21.823723 C.3        1 MOL1        -0.1921
      11    H5      20.601849   16.876549   22.243324 H          1 MOL1         0.0712
      12    H6      20.067785   17.602273   20.731522 H          1 MOL1         0.0712
      13    C5      18.569904   17.618759   22.308617 C.3        1 MOL1        -0.2936
      14    H7      17.935704   18.372485   21.825430 H          1 MOL1         0.0724
      15    H8      18.506081   17.759624   23.395509 H          1 MOL1         0.0724
      16    H9      18.152547   16.631714   22.070787 H          1 MOL1         0.0724
@<TRIPOS>BOND
    1     1     2    1
    2     1     3    2
    3     1     4    1
    4     4     5    1
    5     4     6    1
    6     4     7    1
    7     7     8    1
    8     7     9    1
    9     7    10    1
   10    10    11    1
   11    10    12    1
   12    10    13    1
   13    13    14    1
   14    13    15    1
   15    13    16    1
@<TRIPOS>SUBSTRUCTURE
       1 MOL1            1 RESIDUE      1      MOL     
@<SCITEGIC>MOL_PROPERTY
VConf Rank
SciTegic.value.IntegerValue
963

@<SCITEGIC>MOL_PROPERTY
Conf_Id
SciTegic.value.IntegerValue
36

@<SCITEGIC>MOL_PROPERTY
Delta U+W
SciTegic.value.DoubleValue
-0.427

@<SCITEGIC>MOL_PROPERTY
U+W
SciTegic.value.DoubleValue
-57.331

@<SCITEGIC>MOL_PROPERTY
Grad RMS
SciTegic.value.DoubleValue
0.000000

@<SCITEGIC>MOL_PROPERTY
U
SciTegic.value.DoubleValue
7.263

@<SCITEGIC>MOL_PROPERTY
W
SciTegic.value.DoubleValue
-64.594

@<SCITEGIC>MOL_PROPERTY
W(PB)
SciTegic.value.DoubleValue
-66.513

@<SCITEGIC>MOL_PROPERTY
W(SA)
SciTegic.value.DoubleValue
1.920

@<SCITEGIC>MOL_PROPERTY
Valence
SciTegic.value.DoubleValue
6.734

@<SCITEGIC>MOL_PROPERTY
Coulomb
SciTegic.value.DoubleValue
-0.068

@<SCITEGIC>MOL_PROPERTY
VdW
SciTegic.value.DoubleValue
0.598

@<SCITEGIC>MOL_PROPERTY
VdW6
SciTegic.value.DoubleValue
-4.819

@<SCITEGIC>MOL_PROPERTY
VdW12
SciTegic.value.DoubleValue
5.417

@<SCITEGIC>MOL_PROPERTY
Bond
SciTegic.value.DoubleValue
0.107

@<SCITEGIC>MOL_PROPERTY
Angle
SciTegic.value.DoubleValue
2.469

@<SCITEGIC>MOL_PROPERTY
Pdih
SciTegic.value.DoubleValue
4.157

@<SCITEGIC>MOL_PROPERTY
Idih
SciTegic.value.DoubleValue
0.001

@<SCITEGIC>MOL_PROPERTY
Tether
SciTegic.value.DoubleValue
0.000

@<TRIPOS>MOLECULE
guest-s18_confgen4.mol2 : confsearch ligand conformer 964
          16          15           1
SMALL
USER_CHARGES
 
@<TRIPOS>ATOM
       1    C1      20.725879   20.364169   24.139902 C.2        1 MOL1         0.6075
       2    O1      21.274109   21.415857   23.876553 O.co2      1 MOL1        -0.6830
       3    O2      20.846372   19.792368   25.205041 O.co2      1 MOL1        -0.6830
       4    C2      19.855461   19.716337   23.068801 C.3        1 MOL1        -0.2050
       5    H1      19.394145   20.518971   22.482215 H          1 MOL1         0.0710
       6    H2      19.045556   19.173409   23.570648 H          1 MOL1         0.0710
       7    C3      20.651378   18.756127   22.147113 C.3        1 MOL1        -0.1947
       8    H3      21.432184   19.319491   21.617705 H          1 MOL1         0.0712
       9    H4      21.171293   18.016813   22.772040 H          1 MOL1         0.0712
      10    C4      19.764384   18.007318   21.125872 C.3        1 MOL1        -0.1921
      11    H5      18.990728   17.434490   21.655687 H          1 MOL1         0.0712
      12    H6      20.383408   17.273240   20.591786 H          1 MOL1         0.0712
      13    C5      19.101178   18.944056   20.093589 C.3        1 MOL1        -0.2936
      14    H7      18.384314   19.623562   20.571249 H          1 MOL1         0.0724
      15    H8      18.554921   18.360378   19.341305 H          1 MOL1         0.0724
      16    H9      19.853978   19.548554   19.570974 H          1 MOL1         0.0724
@<TRIPOS>BOND
    1     1     2    1
    2     1     3    2
    3     1     4    1
    4     4     5    1
    5     4     6    1
    6     4     7    1
    7     7     8    1
    8     7     9    1
    9     7    10    1
   10    10    11    1
   11    10    12    1
   12    10    13    1
   13    13    14    1
   14    13    15    1
   15    13    16    1
@<TRIPOS>SUBSTRUCTURE
       1 MOL1            1 RESIDUE      1      MOL     
@<SCITEGIC>MOL_PROPERTY
VConf Rank
SciTegic.value.IntegerValue
964

@<SCITEGIC>MOL_PROPERTY
Conf_Id
SciTegic.value.IntegerValue
17

@<SCITEGIC>MOL_PROPERTY
Delta U+W
SciTegic.value.DoubleValue
-0.432

@<SCITEGIC>MOL_PROPERTY
U+W
SciTegic.value.DoubleValue
-57.336

@<SCITEGIC>MOL_PROPERTY
Grad RMS
SciTegic.value.DoubleValue
0.000000

@<SCITEGIC>MOL_PROPERTY
U
SciTegic.value.DoubleValue
7.263

@<SCITEGIC>MOL_PROPERTY
W
SciTegic.value.DoubleValue
-64.599

@<SCITEGIC>MOL_PROPERTY
W(PB)
SciTegic.value.DoubleValue
-66.503

@<SCITEGIC>MOL_PROPERTY
W(SA)
SciTegic.value.DoubleValue
1.904

@<SCITEGIC>MOL_PROPERTY
Valence
SciTegic.value.DoubleValue
6.734

@<SCITEGIC>MOL_PROPERTY
Coulomb
SciTegic.value.DoubleValue
-0.068

@<SCITEGIC>MOL_PROPERTY
VdW
SciTegic.value.DoubleValue
0.598

@<SCITEGIC>MOL_PROPERTY
VdW6
SciTegic.value.DoubleValue
-4.819

@<SCITEGIC>MOL_PROPERTY
VdW12
SciTegic.value.DoubleValue
5.417

@<SCITEGIC>MOL_PROPERTY
Bond
SciTegic.value.DoubleValue
0.107

@<SCITEGIC>MOL_PROPERTY
Angle
SciTegic.value.DoubleValue
2.469

@<SCITEGIC>MOL_PROPERTY
Pdih
SciTegic.value.DoubleValue
4.157

@<SCITEGIC>MOL_PROPERTY
Idih
SciTegic.value.DoubleValue
0.001

@<SCITEGIC>MOL_PROPERTY
Tether
SciTegic.value.DoubleValue
0.000

@<TRIPOS>MOLECULE
guest-s18_confgen4.mol2 : confsearch ligand conformer 965
          16          15           1
SMALL
USER_CHARGES
 
@<TRIPOS>ATOM
       1    C1      22.427901   19.623699   21.750624 C.2        1 MOL1         0.6075
       2    O1      23.153268   18.655450   21.863230 O.co2      1 MOL1        -0.6830
       3    O2      22.479586   20.395599   20.813735 O.co2      1 MOL1        -0.6830
       4    C2      21.414370   19.896518   22.858693 C.3        1 MOL1        -0.2050
       5    H1      21.100218   20.945545   22.795964 H          1 MOL1         0.0710
       6    H2      21.935252   19.778386   23.816273 H          1 MOL1         0.0710
       7    C3      20.175442   18.964316   22.825633 C.3        1 MOL1        -0.1947
       8    H3      20.506647   17.917069   22.860269 H          1 MOL1         0.0712
       9    H4      19.575759   19.136330   23.729707 H          1 MOL1         0.0712
      10    C4      19.293382   19.192868   21.579071 C.3        1 MOL1        -0.1921
      11    H5      19.877782   19.003537   20.667834 H          1 MOL1         0.0712
      12    H6      18.973233   20.243243   21.539123 H          1 MOL1         0.0712
      13    C5      18.052443   18.278355   21.588041 C.3        1 MOL1        -0.2936
      14    H7      18.344902   17.220129   21.596740 H          1 MOL1         0.0724
      15    H8      17.437315   18.452690   20.695662 H          1 MOL1         0.0724
      16    H9      17.429601   18.469550   22.471743 H          1 MOL1         0.0724
@<TRIPOS>BOND
    1     1     2    1
    2     1     3    2
    3     1     4    1
    4     4     5    1
    5     4     6    1
    6     4     7    1
    7     7     8    1
    8     7     9    1
    9     7    10    1
   10    10    11    1
   11    10    12    1
   12    10    13    1
   13    13    14    1
   14    13    15    1
   15    13    16    1
@<TRIPOS>SUBSTRUCTURE
       1 MOL1            1 RESIDUE      1      MOL     
@<SCITEGIC>MOL_PROPERTY
VConf Rank
SciTegic.value.IntegerValue
965

@<SCITEGIC>MOL_PROPERTY
Conf_Id
SciTegic.value.IntegerValue
19

@<SCITEGIC>MOL_PROPERTY
Delta U+W
SciTegic.value.DoubleValue
0.048

@<SCITEGIC>MOL_PROPERTY
U+W
SciTegic.value.DoubleValue
-56.856

@<SCITEGIC>MOL_PROPERTY
Grad RMS
SciTegic.value.DoubleValue
0.000000

@<SCITEGIC>MOL_PROPERTY
U
SciTegic.value.DoubleValue
8.276

@<SCITEGIC>MOL_PROPERTY
W
SciTegic.value.DoubleValue
-65.132

@<SCITEGIC>MOL_PROPERTY
W(PB)
SciTegic.value.DoubleValue
-67.031

@<SCITEGIC>MOL_PROPERTY
W(SA)
SciTegic.value.DoubleValue
1.899

@<SCITEGIC>MOL_PROPERTY
Valence
SciTegic.value.DoubleValue
6.513

@<SCITEGIC>MOL_PROPERTY
Coulomb
SciTegic.value.DoubleValue
1.428

@<SCITEGIC>MOL_PROPERTY
VdW
SciTegic.value.DoubleValue
0.335

@<SCITEGIC>MOL_PROPERTY
VdW6
SciTegic.value.DoubleValue
-5.021

@<SCITEGIC>MOL_PROPERTY
VdW12
SciTegic.value.DoubleValue
5.356

@<SCITEGIC>MOL_PROPERTY
Bond
SciTegic.value.DoubleValue
0.092

@<SCITEGIC>MOL_PROPERTY
Angle
SciTegic.value.DoubleValue
2.417

@<SCITEGIC>MOL_PROPERTY
Pdih
SciTegic.value.DoubleValue
4.003

@<SCITEGIC>MOL_PROPERTY
Idih
SciTegic.value.DoubleValue
0.001

@<SCITEGIC>MOL_PROPERTY
Tether
SciTegic.value.DoubleValue
0.000

@<TRIPOS>MOLECULE
guest-s18_confgen4.mol2 : confsearch ligand conformer 966
          16          15           1
SMALL
USER_CHARGES
 
@<TRIPOS>ATOM
       1    C1      21.940292   18.166048   21.535786 C.2        1 MOL1         0.6075
       2    O1      21.871971   16.966051   21.357792 O.co2      1 MOL1        -0.6830
       3    O2      22.774309   18.692849   22.245123 O.co2      1 MOL1        -0.6830
       4    C2      20.938253   19.059590   20.809841 C.3        1 MOL1        -0.2050
       5    H1      20.886490   18.716954   19.769573 H          1 MOL1         0.0710
       6    H2      21.332896   20.082741   20.787376 H          1 MOL1         0.0710
       7    C3      19.516548   19.048198   21.429251 C.3        1 MOL1        -0.1947
       8    H3      18.835475   19.601496   20.768525 H          1 MOL1         0.0712
       9    H4      19.145985   18.014503   21.471454 H          1 MOL1         0.0712
      10    C4      19.478188   19.675456   22.839665 C.3        1 MOL1        -0.1921
      11    H5      19.860552   20.704749   22.798046 H          1 MOL1         0.0712
      12    H6      20.140990   19.116941   23.515296 H          1 MOL1         0.0712
      13    C5      18.049182   19.682058   23.417807 C.3        1 MOL1        -0.2936
      14    H7      17.369921   20.263199   22.780395 H          1 MOL1         0.0724
      15    H8      18.039720   20.129914   24.420031 H          1 MOL1         0.0724
      16    H9      17.654026   18.660931   23.499058 H          1 MOL1         0.0724
@<TRIPOS>BOND
    1     1     2    1
    2     1     3    2
    3     1     4    1
    4     4     5    1
    5     4     6    1
    6     4     7    1
    7     7     8    1
    8     7     9    1
    9     7    10    1
   10    10    11    1
   11    10    12    1
   12    10    13    1
   13    13    14    1
   14    13    15    1
   15    13    16    1
@<TRIPOS>SUBSTRUCTURE
       1 MOL1            1 RESIDUE      1      MOL     
@<SCITEGIC>MOL_PROPERTY
VConf Rank
SciTegic.value.IntegerValue
966

@<SCITEGIC>MOL_PROPERTY
Conf_Id
SciTegic.value.IntegerValue
20

@<SCITEGIC>MOL_PROPERTY
Delta U+W
SciTegic.value.DoubleValue
-0.010

@<SCITEGIC>MOL_PROPERTY
U+W
SciTegic.value.DoubleValue
-56.914

@<SCITEGIC>MOL_PROPERTY
Grad RMS
SciTegic.value.DoubleValue
0.000000

@<SCITEGIC>MOL_PROPERTY
U
SciTegic.value.DoubleValue
8.277

@<SCITEGIC>MOL_PROPERTY
W
SciTegic.value.DoubleValue
-65.191

@<SCITEGIC>MOL_PROPERTY
W(PB)
SciTegic.value.DoubleValue
-67.081

@<SCITEGIC>MOL_PROPERTY
W(SA)
SciTegic.value.DoubleValue
1.890

@<SCITEGIC>MOL_PROPERTY
Valence
SciTegic.value.DoubleValue
6.513

@<SCITEGIC>MOL_PROPERTY
Coulomb
SciTegic.value.DoubleValue
1.429

@<SCITEGIC>MOL_PROPERTY
VdW
SciTegic.value.DoubleValue
0.335

@<SCITEGIC>MOL_PROPERTY
VdW6
SciTegic.value.DoubleValue
-5.021

@<SCITEGIC>MOL_PROPERTY
VdW12
SciTegic.value.DoubleValue
5.356

@<SCITEGIC>MOL_PROPERTY
Bond
SciTegic.value.DoubleValue
0.092

@<SCITEGIC>MOL_PROPERTY
Angle
SciTegic.value.DoubleValue
2.417

@<SCITEGIC>MOL_PROPERTY
Pdih
SciTegic.value.DoubleValue
4.002

@<SCITEGIC>MOL_PROPERTY
Idih
SciTegic.value.DoubleValue
0.001

@<SCITEGIC>MOL_PROPERTY
Tether
SciTegic.value.DoubleValue
0.000

@<TRIPOS>MOLECULE
guest-s18_confgen4.mol2 : confsearch ligand conformer 967
          16          15           1
SMALL
USER_CHARGES
 
@<TRIPOS>ATOM
       1    C1      20.804839   17.909977   20.701311 C.2        1 MOL1         0.6075
       2    O1      20.486267   16.752834   20.510740 O.co2      1 MOL1        -0.6830
       3    O2      21.957860   18.279994   20.800956 O.co2      1 MOL1        -0.6830
       4    C2      19.697266   18.956849   20.785494 C.3        1 MOL1        -0.2050
       5    H1      19.049833   18.816664   19.911962 H          1 MOL1         0.0710
       6    H2      20.145042   19.951953   20.682965 H          1 MOL1         0.0710
       7    C3      18.839670   18.872865   22.077839 C.3        1 MOL1        -0.1947
       8    H3      18.023304   19.605094   22.016526 H          1 MOL1         0.0712
       9    H4      18.363437   17.883598   22.121496 H          1 MOL1         0.0712
      10    C4      19.633149   19.103685   23.385931 C.3        1 MOL1        -0.1921
      11    H5      20.432159   18.354685   23.476369 H          1 MOL1         0.0712
      12    H6      18.960304   18.942422   24.239396 H          1 MOL1         0.0712
      13    C5      20.237766   20.520094   23.489211 C.3        1 MOL1        -0.2936
      14    H7      21.009461   20.680088   22.725421 H          1 MOL1         0.0724
      15    H8      20.707354   20.666040   24.470561 H          1 MOL1         0.0724
      16    H9      19.463891   21.288906   23.366285 H          1 MOL1         0.0724
@<TRIPOS>BOND
    1     1     2    1
    2     1     3    2
    3     1     4    1
    4     4     5    1
    5     4     6    1
    6     4     7    1
    7     7     8    1
    8     7     9    1
    9     7    10    1
   10    10    11    1
   11    10    12    1
   12    10    13    1
   13    13    14    1
   14    13    15    1
   15    13    16    1
@<TRIPOS>SUBSTRUCTURE
       1 MOL1            1 RESIDUE      1      MOL     
@<SCITEGIC>MOL_PROPERTY
VConf Rank
SciTegic.value.IntegerValue
967

@<SCITEGIC>MOL_PROPERTY
Conf_Id
SciTegic.value.IntegerValue
37

@<SCITEGIC>MOL_PROPERTY
Delta U+W
SciTegic.value.DoubleValue
1.063

@<SCITEGIC>MOL_PROPERTY
U+W
SciTegic.value.DoubleValue
-55.841

@<SCITEGIC>MOL_PROPERTY
Grad RMS
SciTegic.value.DoubleValue
0.000000

@<SCITEGIC>MOL_PROPERTY
U
SciTegic.value.DoubleValue
9.719

@<SCITEGIC>MOL_PROPERTY
W
SciTegic.value.DoubleValue
-65.560

@<SCITEGIC>MOL_PROPERTY
W(PB)
SciTegic.value.DoubleValue
-67.414

@<SCITEGIC>MOL_PROPERTY
W(SA)
SciTegic.value.DoubleValue
1.854

@<SCITEGIC>MOL_PROPERTY
Valence
SciTegic.value.DoubleValue
7.002

@<SCITEGIC>MOL_PROPERTY
Coulomb
SciTegic.value.DoubleValue
2.402

@<SCITEGIC>MOL_PROPERTY
VdW
SciTegic.value.DoubleValue
0.314

@<SCITEGIC>MOL_PROPERTY
VdW6
SciTegic.value.DoubleValue
-5.861

@<SCITEGIC>MOL_PROPERTY
VdW12
SciTegic.value.DoubleValue
6.175

@<SCITEGIC>MOL_PROPERTY
Bond
SciTegic.value.DoubleValue
0.134

@<SCITEGIC>MOL_PROPERTY
Angle
SciTegic.value.DoubleValue
2.733

@<SCITEGIC>MOL_PROPERTY
Pdih
SciTegic.value.DoubleValue
4.133

@<SCITEGIC>MOL_PROPERTY
Idih
SciTegic.value.DoubleValue
0.002

@<SCITEGIC>MOL_PROPERTY
Tether
SciTegic.value.DoubleValue
0.000

@<TRIPOS>MOLECULE
guest-s18_confgen4.mol2 : confsearch ligand conformer 968
          16          15           1
SMALL
USER_CHARGES
 
@<TRIPOS>ATOM
       1    C1      18.990804   17.472127   22.904746 C.2        1 MOL1         0.6075
       2    O1      18.262357   17.541966   23.874938 O.co2      1 MOL1        -0.6830
       3    O2      18.663765   16.950491   21.857253 O.co2      1 MOL1        -0.6830
       4    C2      20.402788   18.039719   23.022595 C.3        1 MOL1        -0.2050
       5    H1      21.004544   17.662480   22.187833 H          1 MOL1         0.0710
       6    H2      20.845100   17.625011   23.935972 H          1 MOL1         0.0710
       7    C3      20.461757   19.590701   23.083059 C.3        1 MOL1        -0.1947
       8    H3      19.894408   19.931347   23.960231 H          1 MOL1         0.0712
       9    H4      21.501125   19.905436   23.247458 H          1 MOL1         0.0712
      10    C4      19.908480   20.299545   21.823925 C.3        1 MOL1        -0.1921
      11    H5      19.917055   21.384361   21.997791 H          1 MOL1         0.0712
      12    H6      18.857272   20.019738   21.668148 H          1 MOL1         0.0712
      13    C5      20.719925   19.993464   20.547089 C.3        1 MOL1        -0.2936
      14    H7      21.782186   20.231421   20.688671 H          1 MOL1         0.0724
      15    H8      20.348473   20.590547   19.704251 H          1 MOL1         0.0724
      16    H9      20.636259   18.935793   20.266340 H          1 MOL1         0.0724
@<TRIPOS>BOND
    1     1     2    1
    2     1     3    2
    3     1     4    1
    4     4     5    1
    5     4     6    1
    6     4     7    1
    7     7     8    1
    8     7     9    1
    9     7    10    1
   10    10    11    1
   11    10    12    1
   12    10    13    1
   13    13    14    1
   14    13    15    1
   15    13    16    1
@<TRIPOS>SUBSTRUCTURE
       1 MOL1            1 RESIDUE      1      MOL     
@<SCITEGIC>MOL_PROPERTY
VConf Rank
SciTegic.value.IntegerValue
968

@<SCITEGIC>MOL_PROPERTY
Conf_Id
SciTegic.value.IntegerValue
39

@<SCITEGIC>MOL_PROPERTY
Delta U+W
SciTegic.value.DoubleValue
1.129

@<SCITEGIC>MOL_PROPERTY
U+W
SciTegic.value.DoubleValue
-55.775

@<SCITEGIC>MOL_PROPERTY
Grad RMS
SciTegic.value.DoubleValue
0.000000

@<SCITEGIC>MOL_PROPERTY
U
SciTegic.value.DoubleValue
9.718

@<SCITEGIC>MOL_PROPERTY
W
SciTegic.value.DoubleValue
-65.493

@<SCITEGIC>MOL_PROPERTY
W(PB)
SciTegic.value.DoubleValue
-67.361

@<SCITEGIC>MOL_PROPERTY
W(SA)
SciTegic.value.DoubleValue
1.869

@<SCITEGIC>MOL_PROPERTY
Valence
SciTegic.value.DoubleValue
7.002

@<SCITEGIC>MOL_PROPERTY
Coulomb
SciTegic.value.DoubleValue
2.402

@<SCITEGIC>MOL_PROPERTY
VdW
SciTegic.value.DoubleValue
0.314

@<SCITEGIC>MOL_PROPERTY
VdW6
SciTegic.value.DoubleValue
-5.861

@<SCITEGIC>MOL_PROPERTY
VdW12
SciTegic.value.DoubleValue
6.175

@<SCITEGIC>MOL_PROPERTY
Bond
SciTegic.value.DoubleValue
0.134

@<SCITEGIC>MOL_PROPERTY
Angle
SciTegic.value.DoubleValue
2.734

@<SCITEGIC>MOL_PROPERTY
Pdih
SciTegic.value.DoubleValue
4.133

@<SCITEGIC>MOL_PROPERTY
Idih
SciTegic.value.DoubleValue
0.002

@<SCITEGIC>MOL_PROPERTY
Tether
SciTegic.value.DoubleValue
0.000

@<TRIPOS>MOLECULE
guest-s18_confgen4.mol2 : confsearch ligand conformer 969
          16          15           1
SMALL
USER_CHARGES
 
@<TRIPOS>ATOM
       1    C1      20.604696   17.299106   22.826649 C.2        1 MOL1         0.6075
       2    O1      20.262902   16.428274   22.050989 O.co2      1 MOL1        -0.6830
       3    O2      20.498316   17.199181   24.033238 O.co2      1 MOL1        -0.6830
       4    C2      21.284898   18.543679   22.259180 C.3        1 MOL1        -0.2050
       5    H1      21.371653   18.438078   21.170924 H          1 MOL1         0.0710
       6    H2      22.306748   18.545218   22.656129 H          1 MOL1         0.0710
       7    C3      20.602950   19.894519   22.615778 C.3        1 MOL1        -0.1947
       8    H3      20.332670   19.907924   23.680817 H          1 MOL1         0.0712
       9    H4      21.343929   20.694127   22.481508 H          1 MOL1         0.0712
      10    C4      19.368751   20.244694   21.749930 C.3        1 MOL1        -0.1921
      11    H5      19.642621   20.228299   20.685995 H          1 MOL1         0.0712
      12    H6      19.068245   21.277299   21.975128 H          1 MOL1         0.0712
      13    C5      18.156903   19.320069   21.988221 C.3        1 MOL1        -0.2936
      14    H7      18.351503   18.304353   21.622910 H          1 MOL1         0.0724
      15    H8      17.274703   19.698569   21.456028 H          1 MOL1         0.0724
      16    H9      17.909802   19.261430   23.056318 H          1 MOL1         0.0724
@<TRIPOS>BOND
    1     1     2    1
    2     1     3    2
    3     1     4    1
    4     4     5    1
    5     4     6    1
    6     4     7    1
    7     7     8    1
    8     7     9    1
    9     7    10    1
   10    10    11    1
   11    10    12    1
   12    10    13    1
   13    13    14    1
   14    13    15    1
   15    13    16    1
@<TRIPOS>SUBSTRUCTURE
       1 MOL1            1 RESIDUE      1      MOL     
@<SCITEGIC>MOL_PROPERTY
VConf Rank
SciTegic.value.IntegerValue
969

@<SCITEGIC>MOL_PROPERTY
Conf_Id
SciTegic.value.IntegerValue
47

@<SCITEGIC>MOL_PROPERTY
Delta U+W
SciTegic.value.DoubleValue
2.301

@<SCITEGIC>MOL_PROPERTY
U+W
SciTegic.value.DoubleValue
-54.603

@<SCITEGIC>MOL_PROPERTY
Grad RMS
SciTegic.value.DoubleValue
0.000000

@<SCITEGIC>MOL_PROPERTY
U
SciTegic.value.DoubleValue
11.258

@<SCITEGIC>MOL_PROPERTY
W
SciTegic.value.DoubleValue
-65.861

@<SCITEGIC>MOL_PROPERTY
W(PB)
SciTegic.value.DoubleValue
-67.702

@<SCITEGIC>MOL_PROPERTY
W(SA)
SciTegic.value.DoubleValue
1.841

@<SCITEGIC>MOL_PROPERTY
Valence
SciTegic.value.DoubleValue
8.169

@<SCITEGIC>MOL_PROPERTY
Coulomb
SciTegic.value.DoubleValue
2.735

@<SCITEGIC>MOL_PROPERTY
VdW
SciTegic.value.DoubleValue
0.355

@<SCITEGIC>MOL_PROPERTY
VdW6
SciTegic.value.DoubleValue
-6.245

@<SCITEGIC>MOL_PROPERTY
VdW12
SciTegic.value.DoubleValue
6.600

@<SCITEGIC>MOL_PROPERTY
Bond
SciTegic.value.DoubleValue
0.149

@<SCITEGIC>MOL_PROPERTY
Angle
SciTegic.value.DoubleValue
3.168

@<SCITEGIC>MOL_PROPERTY
Pdih
SciTegic.value.DoubleValue
4.840

@<SCITEGIC>MOL_PROPERTY
Idih
SciTegic.value.DoubleValue
0.011

@<SCITEGIC>MOL_PROPERTY
Tether
SciTegic.value.DoubleValue
0.000

@<TRIPOS>MOLECULE
guest-s18_confgen4.mol2 : confsearch ligand conformer 970
          16          15           1
SMALL
USER_CHARGES
 
@<TRIPOS>ATOM
       1    C1      21.584914   18.696897   21.322754 C.2        1 MOL1         0.6075
       2    O1      21.919631   19.670888   20.677415 O.co2      1 MOL1        -0.6830
       3    O2      21.575730   17.567927   20.873130 O.co2      1 MOL1        -0.6830
       4    C2      21.244648   18.887611   22.799749 C.3        1 MOL1        -0.2050
       5    H1      22.152497   19.272719   23.278551 H          1 MOL1         0.0710
       6    H2      21.044972   17.907344   23.249399 H          1 MOL1         0.0710
       7    C3      20.068682   19.862146   23.090216 C.3        1 MOL1        -0.1947
       8    H3      20.154026   20.194905   24.133501 H          1 MOL1         0.0712
       9    H4      20.171077   20.766616   22.474594 H          1 MOL1         0.0712
      10    C4      18.659579   19.249475   22.904143 C.3        1 MOL1        -0.1921
      11    H5      17.917127   19.963816   23.285949 H          1 MOL1         0.0712
      12    H6      18.561917   18.344623   23.519721 H          1 MOL1         0.0712
      13    C5      18.311386   18.919679   21.437759 C.3        1 MOL1        -0.2936
      14    H7      17.258408   18.622300   21.350743 H          1 MOL1         0.0724
      15    H8      18.920553   18.089714   21.059507 H          1 MOL1         0.0724
      16    H9      18.473008   19.790357   20.788815 H          1 MOL1         0.0724
@<TRIPOS>BOND
    1     1     2    1
    2     1     3    2
    3     1     4    1
    4     4     5    1
    5     4     6    1
    6     4     7    1
    7     7     8    1
    8     7     9    1
    9     7    10    1
   10    10    11    1
   11    10    12    1
   12    10    13    1
   13    13    14    1
   14    13    15    1
   15    13    16    1
@<TRIPOS>SUBSTRUCTURE
       1 MOL1            1 RESIDUE      1      MOL     
@<SCITEGIC>MOL_PROPERTY
VConf Rank
SciTegic.value.IntegerValue
970

@<SCITEGIC>MOL_PROPERTY
Conf_Id
SciTegic.value.IntegerValue
45

@<SCITEGIC>MOL_PROPERTY
Delta U+W
SciTegic.value.DoubleValue
2.303

@<SCITEGIC>MOL_PROPERTY
U+W
SciTegic.value.DoubleValue
-54.601

@<SCITEGIC>MOL_PROPERTY
Grad RMS
SciTegic.value.DoubleValue
0.000000

@<SCITEGIC>MOL_PROPERTY
U
SciTegic.value.DoubleValue
11.258

@<SCITEGIC>MOL_PROPERTY
W
SciTegic.value.DoubleValue
-65.860

@<SCITEGIC>MOL_PROPERTY
W(PB)
SciTegic.value.DoubleValue
-67.709

@<SCITEGIC>MOL_PROPERTY
W(SA)
SciTegic.value.DoubleValue
1.849

@<SCITEGIC>MOL_PROPERTY
Valence
SciTegic.value.DoubleValue
8.169

@<SCITEGIC>MOL_PROPERTY
Coulomb
SciTegic.value.DoubleValue
2.735

@<SCITEGIC>MOL_PROPERTY
VdW
SciTegic.value.DoubleValue
0.355

@<SCITEGIC>MOL_PROPERTY
VdW6
SciTegic.value.DoubleValue
-6.245

@<SCITEGIC>MOL_PROPERTY
VdW12
SciTegic.value.DoubleValue
6.600

@<SCITEGIC>MOL_PROPERTY
Bond
SciTegic.value.DoubleValue
0.149

@<SCITEGIC>MOL_PROPERTY
Angle
SciTegic.value.DoubleValue
3.168

@<SCITEGIC>MOL_PROPERTY
Pdih
SciTegic.value.DoubleValue
4.840

@<SCITEGIC>MOL_PROPERTY
Idih
SciTegic.value.DoubleValue
0.011

@<SCITEGIC>MOL_PROPERTY
Tether
SciTegic.value.DoubleValue
0.000

@<TRIPOS>MOLECULE
guest-s18_confgen4.mol2 : confsearch ligand conformer 971
          16          15           1
SMALL
USER_CHARGES
 
@<TRIPOS>ATOM
       1    C1      18.520759   19.844849   24.144269 C.2        1 MOL1         0.6075
       2    O1      19.326545   19.408640   24.943147 O.co2      1 MOL1        -0.6830
       3    O2      17.481546   20.378779   24.476333 O.co2      1 MOL1        -0.6830
       4    C2      18.799221   19.731065   22.644466 C.3        1 MOL1        -0.2050
       5    H1      18.776470   20.745682   22.229502 H          1 MOL1         0.0710
       6    H2      17.961923   19.182686   22.196835 H          1 MOL1         0.0710
       7    C3      20.137594   19.041437   22.268281 C.3        1 MOL1        -0.1947
       8    H3      20.972237   19.592051   22.723984 H          1 MOL1         0.0712
       9    H4      20.156840   18.027445   22.691269 H          1 MOL1         0.0712
      10    C4      20.336092   18.969962   20.739638 C.3        1 MOL1        -0.1921
      11    H5      20.318808   19.983552   20.315566 H          1 MOL1         0.0712
      12    H6      19.502926   18.418010   20.282819 H          1 MOL1         0.0712
      13    C5      21.666840   18.284128   20.372374 C.3        1 MOL1        -0.2936
      14    H7      22.520383   18.833613   20.790706 H          1 MOL1         0.0724
      15    H8      21.792259   18.241564   19.282603 H          1 MOL1         0.0724
      16    H9      21.698486   17.256519   20.757714 H          1 MOL1         0.0724
@<TRIPOS>BOND
    1     1     2    1
    2     1     3    2
    3     1     4    1
    4     4     5    1
    5     4     6    1
    6     4     7    1
    7     7     8    1
    8     7     9    1
    9     7    10    1
   10    10    11    1
   11    10    12    1
   12    10    13    1
   13    13    14    1
   14    13    15    1
   15    13    16    1
@<TRIPOS>SUBSTRUCTURE
       1 MOL1            1 RESIDUE      1      MOL     
@<SCITEGIC>MOL_PROPERTY
VConf Rank
SciTegic.value.IntegerValue
971

@<SCITEGIC>MOL_PROPERTY
Conf_Id
SciTegic.value.IntegerValue
0

@<SCITEGIC>MOL_PROPERTY
Delta U+W
SciTegic.value.DoubleValue
0.000

@<SCITEGIC>MOL_PROPERTY
U+W
SciTegic.value.DoubleValue
-56.904

@<SCITEGIC>MOL_PROPERTY
Grad RMS
SciTegic.value.DoubleValue
0.000000

@<SCITEGIC>MOL_PROPERTY
U
SciTegic.value.DoubleValue
7.329

@<SCITEGIC>MOL_PROPERTY
W
SciTegic.value.DoubleValue
-64.233

@<SCITEGIC>MOL_PROPERTY
W(PB)
SciTegic.value.DoubleValue
-66.148

@<SCITEGIC>MOL_PROPERTY
W(SA)
SciTegic.value.DoubleValue
1.915

@<SCITEGIC>MOL_PROPERTY
Valence
SciTegic.value.DoubleValue
6.755

@<SCITEGIC>MOL_PROPERTY
Coulomb
SciTegic.value.DoubleValue
-0.421

@<SCITEGIC>MOL_PROPERTY
VdW
SciTegic.value.DoubleValue
0.995

@<SCITEGIC>MOL_PROPERTY
VdW6
SciTegic.value.DoubleValue
-4.495

@<SCITEGIC>MOL_PROPERTY
VdW12
SciTegic.value.DoubleValue
5.490

@<SCITEGIC>MOL_PROPERTY
Bond
SciTegic.value.DoubleValue
0.106

@<SCITEGIC>MOL_PROPERTY
Angle
SciTegic.value.DoubleValue
2.715

@<SCITEGIC>MOL_PROPERTY
Pdih
SciTegic.value.DoubleValue
3.934

@<SCITEGIC>MOL_PROPERTY
Idih
SciTegic.value.DoubleValue
0.000

@<SCITEGIC>MOL_PROPERTY
Tether
SciTegic.value.DoubleValue
0.000

@<TRIPOS>MOLECULE
guest-s18_confgen4.mol2 : confsearch ligand conformer 972
          16          15           1
SMALL
USER_CHARGES
 
@<TRIPOS>ATOM
       1    C1      17.707828   19.725947   20.646926 C.2        1 MOL1         0.6075
       2    O1      17.674089   19.393987   19.478805 O.co2      1 MOL1        -0.6830
       3    O2      16.725978   19.772844   21.360798 O.co2      1 MOL1        -0.6830
       4    C2      19.058822   20.085896   21.255067 C.3        1 MOL1        -0.2050
       5    H1      18.894266   20.852475   22.021962 H          1 MOL1         0.0710
       6    H2      19.675965   20.540007   20.470358 H          1 MOL1         0.0710
       7    C3      19.788184   18.865246   21.868342 C.3        1 MOL1        -0.1947
       8    H3      19.152776   18.414338   22.643254 H          1 MOL1         0.0712
       9    H4      19.934453   18.101818   21.091595 H          1 MOL1         0.0712
      10    C4      21.151237   19.256630   22.476180 C.3        1 MOL1        -0.1921
      11    H5      21.005317   20.019566   23.253467 H          1 MOL1         0.0712
      12    H6      21.787187   19.707004   21.701410 H          1 MOL1         0.0712
      13    C5      21.871350   18.037033   23.084555 C.3        1 MOL1        -0.2936
      14    H7      22.058322   17.270246   22.321306 H          1 MOL1         0.0724
      15    H8      21.270665   17.585102   23.884811 H          1 MOL1         0.0724
      16    H9      22.838306   18.332456   23.512189 H          1 MOL1         0.0724
@<TRIPOS>BOND
    1     1     2    1
    2     1     3    2
    3     1     4    1
    4     4     5    1
    5     4     6    1
    6     4     7    1
    7     7     8    1
    8     7     9    1
    9     7    10    1
   10    10    11    1
   11    10    12    1
   12    10    13    1
   13    13    14    1
   14    13    15    1
   15    13    16    1
@<TRIPOS>SUBSTRUCTURE
       1 MOL1            1 RESIDUE      1      MOL     
@<SCITEGIC>MOL_PROPERTY
VConf Rank
SciTegic.value.IntegerValue
972

@<SCITEGIC>MOL_PROPERTY
Conf_Id
SciTegic.value.IntegerValue
22

@<SCITEGIC>MOL_PROPERTY
Delta U+W
SciTegic.value.DoubleValue
-1.185

@<SCITEGIC>MOL_PROPERTY
U+W
SciTegic.value.DoubleValue
-58.089

@<SCITEGIC>MOL_PROPERTY
Grad RMS
SciTegic.value.DoubleValue
0.000000

@<SCITEGIC>MOL_PROPERTY
U
SciTegic.value.DoubleValue
6.298

@<SCITEGIC>MOL_PROPERTY
W
SciTegic.value.DoubleValue
-64.387

@<SCITEGIC>MOL_PROPERTY
W(PB)
SciTegic.value.DoubleValue
-66.329

@<SCITEGIC>MOL_PROPERTY
W(SA)
SciTegic.value.DoubleValue
1.942

@<SCITEGIC>MOL_PROPERTY
Valence
SciTegic.value.DoubleValue
6.246

@<SCITEGIC>MOL_PROPERTY
Coulomb
SciTegic.value.DoubleValue
-0.408

@<SCITEGIC>MOL_PROPERTY
VdW
SciTegic.value.DoubleValue
0.460

@<SCITEGIC>MOL_PROPERTY
VdW6
SciTegic.value.DoubleValue
-4.207

@<SCITEGIC>MOL_PROPERTY
VdW12
SciTegic.value.DoubleValue
4.667

@<SCITEGIC>MOL_PROPERTY
Bond
SciTegic.value.DoubleValue
0.072

@<SCITEGIC>MOL_PROPERTY
Angle
SciTegic.value.DoubleValue
2.246

@<SCITEGIC>MOL_PROPERTY
Pdih
SciTegic.value.DoubleValue
3.928

@<SCITEGIC>MOL_PROPERTY
Idih
SciTegic.value.DoubleValue
0.001

@<SCITEGIC>MOL_PROPERTY
Tether
SciTegic.value.DoubleValue
0.000

@<TRIPOS>MOLECULE
guest-s18_confgen4.mol2 : confsearch ligand conformer 973
          16          15           1
SMALL
USER_CHARGES
 
@<TRIPOS>ATOM
       1    C1      20.875658   17.814667   24.013139 C.2        1 MOL1         0.6075
       2    O1      21.869763   17.120073   23.940402 O.co2      1 MOL1        -0.6830
       3    O2      20.025319   17.682365   24.870680 O.co2      1 MOL1        -0.6830
       4    C2      20.674834   18.897805   22.959073 C.3        1 MOL1        -0.2050
       5    H1      21.662487   19.267094   22.657854 H          1 MOL1         0.0710
       6    H2      20.146516   19.732490   23.433730 H          1 MOL1         0.0710
       7    C3      19.892540   18.392246   21.719146 C.3        1 MOL1        -0.1947
       8    H3      20.400492   17.503722   21.319224 H          1 MOL1         0.0712
       9    H4      18.889849   18.064759   22.026832 H          1 MOL1         0.0712
      10    C4      19.775294   19.445954   20.593819 C.3        1 MOL1        -0.1921
      11    H5      19.308170   18.976068   19.717284 H          1 MOL1         0.0712
      12    H6      20.778183   19.764927   20.277829 H          1 MOL1         0.0712
      13    C5      18.941974   20.680224   21.000130 C.3        1 MOL1        -0.2936
      14    H7      19.431126   21.248110   21.801391 H          1 MOL1         0.0724
      15    H8      17.943780   20.383300   21.347540 H          1 MOL1         0.0724
      16    H9      18.814732   21.355769   20.144293 H          1 MOL1         0.0724
@<TRIPOS>BOND
    1     1     2    1
    2     1     3    2
    3     1     4    1
    4     4     5    1
    5     4     6    1
    6     4     7    1
    7     7     8    1
    8     7     9    1
    9     7    10    1
   10    10    11    1
   11    10    12    1
   12    10    13    1
   13    13    14    1
   14    13    15    1
   15    13    16    1
@<TRIPOS>SUBSTRUCTURE
       1 MOL1            1 RESIDUE      1      MOL     
@<SCITEGIC>MOL_PROPERTY
VConf Rank
SciTegic.value.IntegerValue
973

@<SCITEGIC>MOL_PROPERTY
Conf_Id
SciTegic.value.IntegerValue
36

@<SCITEGIC>MOL_PROPERTY
Delta U+W
SciTegic.value.DoubleValue
-0.427

@<SCITEGIC>MOL_PROPERTY
U+W
SciTegic.value.DoubleValue
-57.331

@<SCITEGIC>MOL_PROPERTY
Grad RMS
SciTegic.value.DoubleValue
0.000000

@<SCITEGIC>MOL_PROPERTY
U
SciTegic.value.DoubleValue
7.263

@<SCITEGIC>MOL_PROPERTY
W
SciTegic.value.DoubleValue
-64.594

@<SCITEGIC>MOL_PROPERTY
W(PB)
SciTegic.value.DoubleValue
-66.513

@<SCITEGIC>MOL_PROPERTY
W(SA)
SciTegic.value.DoubleValue
1.920

@<SCITEGIC>MOL_PROPERTY
Valence
SciTegic.value.DoubleValue
6.734

@<SCITEGIC>MOL_PROPERTY
Coulomb
SciTegic.value.DoubleValue
-0.068

@<SCITEGIC>MOL_PROPERTY
VdW
SciTegic.value.DoubleValue
0.598

@<SCITEGIC>MOL_PROPERTY
VdW6
SciTegic.value.DoubleValue
-4.819

@<SCITEGIC>MOL_PROPERTY
VdW12
SciTegic.value.DoubleValue
5.417

@<SCITEGIC>MOL_PROPERTY
Bond
SciTegic.value.DoubleValue
0.107

@<SCITEGIC>MOL_PROPERTY
Angle
SciTegic.value.DoubleValue
2.469

@<SCITEGIC>MOL_PROPERTY
Pdih
SciTegic.value.DoubleValue
4.157

@<SCITEGIC>MOL_PROPERTY
Idih
SciTegic.value.DoubleValue
0.001

@<SCITEGIC>MOL_PROPERTY
Tether
SciTegic.value.DoubleValue
0.000

@<TRIPOS>MOLECULE
guest-s18_confgen4.mol2 : confsearch ligand conformer 974
          16          15           1
SMALL
USER_CHARGES
 
@<TRIPOS>ATOM
       1    C1      21.267093   18.849078   24.206745 C.2        1 MOL1         0.6075
       2    O1      21.609730   19.922973   24.659854 O.co2      1 MOL1        -0.6830
       3    O2      21.771113   17.792073   24.530318 O.co2      1 MOL1        -0.6830
       4    C2      20.158254   18.828178   23.160508 C.3        1 MOL1        -0.2050
       5    H1      19.466277   19.646419   23.390217 H          1 MOL1         0.0710
       6    H2      19.601574   17.890088   23.273027 H          1 MOL1         0.0710
       7    C3      20.696056   18.959785   21.711907 C.3        1 MOL1        -0.1947
       8    H3      21.214701   19.921902   21.599448 H          1 MOL1         0.0712
       9    H4      21.450172   18.178667   21.542810 H          1 MOL1         0.0712
      10    C4      19.596215   18.830205   20.633035 C.3        1 MOL1        -0.1921
      11    H5      19.085256   17.863100   20.737952 H          1 MOL1         0.0712
      12    H6      20.071965   18.824391   19.642612 H          1 MOL1         0.0712
      13    C5      18.559456   19.972927   20.680459 C.3        1 MOL1        -0.2936
      14    H7      17.978003   19.948363   21.610562 H          1 MOL1         0.0724
      15    H8      17.853092   19.884889   19.844812 H          1 MOL1         0.0724
      16    H9      19.050332   20.952100   20.606215 H          1 MOL1         0.0724
@<TRIPOS>BOND
    1     1     2    1
    2     1     3    2
    3     1     4    1
    4     4     5    1
    5     4     6    1
    6     4     7    1
    7     7     8    1
    8     7     9    1
    9     7    10    1
   10    10    11    1
   11    10    12    1
   12    10    13    1
   13    13    14    1
   14    13    15    1
   15    13    16    1
@<TRIPOS>SUBSTRUCTURE
       1 MOL1            1 RESIDUE      1      MOL     
@<SCITEGIC>MOL_PROPERTY
VConf Rank
SciTegic.value.IntegerValue
974

@<SCITEGIC>MOL_PROPERTY
Conf_Id
SciTegic.value.IntegerValue
17

@<SCITEGIC>MOL_PROPERTY
Delta U+W
SciTegic.value.DoubleValue
-0.432

@<SCITEGIC>MOL_PROPERTY
U+W
SciTegic.value.DoubleValue
-57.336

@<SCITEGIC>MOL_PROPERTY
Grad RMS
SciTegic.value.DoubleValue
0.000000

@<SCITEGIC>MOL_PROPERTY
U
SciTegic.value.DoubleValue
7.263

@<SCITEGIC>MOL_PROPERTY
W
SciTegic.value.DoubleValue
-64.599

@<SCITEGIC>MOL_PROPERTY
W(PB)
SciTegic.value.DoubleValue
-66.503

@<SCITEGIC>MOL_PROPERTY
W(SA)
SciTegic.value.DoubleValue
1.904

@<SCITEGIC>MOL_PROPERTY
Valence
SciTegic.value.DoubleValue
6.734

@<SCITEGIC>MOL_PROPERTY
Coulomb
SciTegic.value.DoubleValue
-0.068

@<SCITEGIC>MOL_PROPERTY
VdW
SciTegic.value.DoubleValue
0.598

@<SCITEGIC>MOL_PROPERTY
VdW6
SciTegic.value.DoubleValue
-4.819

@<SCITEGIC>MOL_PROPERTY
VdW12
SciTegic.value.DoubleValue
5.417

@<SCITEGIC>MOL_PROPERTY
Bond
SciTegic.value.DoubleValue
0.107

@<SCITEGIC>MOL_PROPERTY
Angle
SciTegic.value.DoubleValue
2.469

@<SCITEGIC>MOL_PROPERTY
Pdih
SciTegic.value.DoubleValue
4.157

@<SCITEGIC>MOL_PROPERTY
Idih
SciTegic.value.DoubleValue
0.001

@<SCITEGIC>MOL_PROPERTY
Tether
SciTegic.value.DoubleValue
0.000

@<TRIPOS>MOLECULE
guest-s18_confgen4.mol2 : confsearch ligand conformer 975
          16          15           1
SMALL
USER_CHARGES
 
@<TRIPOS>ATOM
       1    C1      18.915242   21.162015   21.988949 C.2        1 MOL1         0.6075
       2    O1      18.493813   21.420746   20.879085 O.co2      1 MOL1        -0.6830
       3    O2      18.231591   21.202135   22.992578 O.co2      1 MOL1        -0.6830
       4    C2      20.388722   20.790209   22.130766 C.3        1 MOL1        -0.2050
       5    H1      20.686416   20.929940   23.177158 H          1 MOL1         0.0710
       6    H2      20.967054   21.508857   21.538052 H          1 MOL1         0.0710
       7    C3      20.724388   19.348890   21.667126 C.3        1 MOL1        -0.1947
       8    H3      20.394954   19.214801   20.627359 H          1 MOL1         0.0712
       9    H4      21.814932   19.217589   21.672693 H          1 MOL1         0.0712
      10    C4      20.077696   18.270894   22.563729 C.3        1 MOL1        -0.1921
      11    H5      18.984227   18.379750   22.549648 H          1 MOL1         0.0712
      12    H6      20.398197   18.413826   23.604991 H          1 MOL1         0.0712
      13    C5      20.454475   16.849348   22.101570 C.3        1 MOL1        -0.2936
      14    H7      20.117505   16.669132   21.072287 H          1 MOL1         0.0724
      15    H8      19.986412   16.095839   22.748298 H          1 MOL1         0.0724
      16    H9      21.541477   16.699311   22.138051 H          1 MOL1         0.0724
@<TRIPOS>BOND
    1     1     2    1
    2     1     3    2
    3     1     4    1
    4     4     5    1
    5     4     6    1
    6     4     7    1
    7     7     8    1
    8     7     9    1
    9     7    10    1
   10    10    11    1
   11    10    12    1
   12    10    13    1
   13    13    14    1
   14    13    15    1
   15    13    16    1
@<TRIPOS>SUBSTRUCTURE
       1 MOL1            1 RESIDUE      1      MOL     
@<SCITEGIC>MOL_PROPERTY
VConf Rank
SciTegic.value.IntegerValue
975

@<SCITEGIC>MOL_PROPERTY
Conf_Id
SciTegic.value.IntegerValue
19

@<SCITEGIC>MOL_PROPERTY
Delta U+W
SciTegic.value.DoubleValue
0.048

@<SCITEGIC>MOL_PROPERTY
U+W
SciTegic.value.DoubleValue
-56.856

@<SCITEGIC>MOL_PROPERTY
Grad RMS
SciTegic.value.DoubleValue
0.000000

@<SCITEGIC>MOL_PROPERTY
U
SciTegic.value.DoubleValue
8.276

@<SCITEGIC>MOL_PROPERTY
W
SciTegic.value.DoubleValue
-65.132

@<SCITEGIC>MOL_PROPERTY
W(PB)
SciTegic.value.DoubleValue
-67.031

@<SCITEGIC>MOL_PROPERTY
W(SA)
SciTegic.value.DoubleValue
1.899

@<SCITEGIC>MOL_PROPERTY
Valence
SciTegic.value.DoubleValue
6.513

@<SCITEGIC>MOL_PROPERTY
Coulomb
SciTegic.value.DoubleValue
1.428

@<SCITEGIC>MOL_PROPERTY
VdW
SciTegic.value.DoubleValue
0.335

@<SCITEGIC>MOL_PROPERTY
VdW6
SciTegic.value.DoubleValue
-5.021

@<SCITEGIC>MOL_PROPERTY
VdW12
SciTegic.value.DoubleValue
5.356

@<SCITEGIC>MOL_PROPERTY
Bond
SciTegic.value.DoubleValue
0.092

@<SCITEGIC>MOL_PROPERTY
Angle
SciTegic.value.DoubleValue
2.417

@<SCITEGIC>MOL_PROPERTY
Pdih
SciTegic.value.DoubleValue
4.003

@<SCITEGIC>MOL_PROPERTY
Idih
SciTegic.value.DoubleValue
0.001

@<SCITEGIC>MOL_PROPERTY
Tether
SciTegic.value.DoubleValue
0.000

@<TRIPOS>MOLECULE
guest-s18_confgen4.mol2 : confsearch ligand conformer 976
          16          15           1
SMALL
USER_CHARGES
 
@<TRIPOS>ATOM
       1    C1      22.192294   18.843052   22.385607 C.2        1 MOL1         0.6075
       2    O1      22.734267   18.310045   21.437709 O.co2      1 MOL1        -0.6830
       3    O2      22.346707   18.483963   23.536030 O.co2      1 MOL1        -0.6830
       4    C2      21.287777   20.042619   22.116559 C.3        1 MOL1        -0.2050
       5    H1      21.814876   20.700335   21.415267 H          1 MOL1         0.0710
       6    H2      21.166257   20.606324   23.049595 H          1 MOL1         0.0710
       7    C3      19.900416   19.669744   21.532403 C.3        1 MOL1        -0.1947
       8    H3      19.376626   20.590660   21.242375 H          1 MOL1         0.0712
       9    H4      20.037968   19.081580   20.614381 H          1 MOL1         0.0712
      10    C4      19.027284   18.881439   22.532606 C.3        1 MOL1        -0.1921
      11    H5      18.900913   19.465464   23.454736 H          1 MOL1         0.0712
      12    H6      19.532669   17.947175   22.814494 H          1 MOL1         0.0712
      13    C5      17.642789   18.553193   21.939498 C.3        1 MOL1        -0.2936
      14    H7      17.098883   19.470811   21.679579 H          1 MOL1         0.0724
      15    H8      17.035724   17.992514   22.662152 H          1 MOL1         0.0724
      16    H9      17.739348   17.942761   21.032029 H          1 MOL1         0.0724
@<TRIPOS>BOND
    1     1     2    1
    2     1     3    2
    3     1     4    1
    4     4     5    1
    5     4     6    1
    6     4     7    1
    7     7     8    1
    8     7     9    1
    9     7    10    1
   10    10    11    1
   11    10    12    1
   12    10    13    1
   13    13    14    1
   14    13    15    1
   15    13    16    1
@<TRIPOS>SUBSTRUCTURE
       1 MOL1            1 RESIDUE      1      MOL     
@<SCITEGIC>MOL_PROPERTY
VConf Rank
SciTegic.value.IntegerValue
976

@<SCITEGIC>MOL_PROPERTY
Conf_Id
SciTegic.value.IntegerValue
20

@<SCITEGIC>MOL_PROPERTY
Delta U+W
SciTegic.value.DoubleValue
-0.010

@<SCITEGIC>MOL_PROPERTY
U+W
SciTegic.value.DoubleValue
-56.914

@<SCITEGIC>MOL_PROPERTY
Grad RMS
SciTegic.value.DoubleValue
0.000000

@<SCITEGIC>MOL_PROPERTY
U
SciTegic.value.DoubleValue
8.277

@<SCITEGIC>MOL_PROPERTY
W
SciTegic.value.DoubleValue
-65.191

@<SCITEGIC>MOL_PROPERTY
W(PB)
SciTegic.value.DoubleValue
-67.081

@<SCITEGIC>MOL_PROPERTY
W(SA)
SciTegic.value.DoubleValue
1.890

@<SCITEGIC>MOL_PROPERTY
Valence
SciTegic.value.DoubleValue
6.513

@<SCITEGIC>MOL_PROPERTY
Coulomb
SciTegic.value.DoubleValue
1.429

@<SCITEGIC>MOL_PROPERTY
VdW
SciTegic.value.DoubleValue
0.335

@<SCITEGIC>MOL_PROPERTY
VdW6
SciTegic.value.DoubleValue
-5.021

@<SCITEGIC>MOL_PROPERTY
VdW12
SciTegic.value.DoubleValue
5.356

@<SCITEGIC>MOL_PROPERTY
Bond
SciTegic.value.DoubleValue
0.092

@<SCITEGIC>MOL_PROPERTY
Angle
SciTegic.value.DoubleValue
2.417

@<SCITEGIC>MOL_PROPERTY
Pdih
SciTegic.value.DoubleValue
4.002

@<SCITEGIC>MOL_PROPERTY
Idih
SciTegic.value.DoubleValue
0.001

@<SCITEGIC>MOL_PROPERTY
Tether
SciTegic.value.DoubleValue
0.000

@<TRIPOS>MOLECULE
guest-s18_confgen4.mol2 : confsearch ligand conformer 977
          16          15           1
SMALL
USER_CHARGES
 
@<TRIPOS>ATOM
       1    C1      18.319768   18.922388   23.648656 C.2        1 MOL1         0.6075
       2    O1      17.207870   19.398459   23.531083 O.co2      1 MOL1        -0.6830
       3    O2      18.975668   18.995418   24.668834 O.co2      1 MOL1        -0.6830
       4    C2      18.907010   18.163672   22.461541 C.3        1 MOL1        -0.2050
       5    H1      18.151531   17.441232   22.131068 H          1 MOL1         0.0710
       6    H2      19.765658   17.577476   22.808450 H          1 MOL1         0.0710
       7    C3      19.309277   19.068286   21.264656 C.3        1 MOL1        -0.1947
       8    H3      19.644080   18.435578   20.431614 H          1 MOL1         0.0712
       9    H4      18.415958   19.599565   20.908174 H          1 MOL1         0.0712
      10    C4      20.410478   20.105119   21.590730 C.3        1 MOL1        -0.1921
      11    H5      20.073378   20.767383   22.400278 H          1 MOL1         0.0712
      12    H6      20.563307   20.745382   20.711051 H          1 MOL1         0.0712
      13    C5      21.758434   19.460197   21.977426 C.3        1 MOL1        -0.2936
      14    H7      21.679261   18.909368   22.923369 H          1 MOL1         0.0724
      15    H8      22.529412   20.230843   22.106100 H          1 MOL1         0.0724
      16    H9      22.100511   18.765382   21.199428 H          1 MOL1         0.0724
@<TRIPOS>BOND
    1     1     2    1
    2     1     3    2
    3     1     4    1
    4     4     5    1
    5     4     6    1
    6     4     7    1
    7     7     8    1
    8     7     9    1
    9     7    10    1
   10    10    11    1
   11    10    12    1
   12    10    13    1
   13    13    14    1
   14    13    15    1
   15    13    16    1
@<TRIPOS>SUBSTRUCTURE
       1 MOL1            1 RESIDUE      1      MOL     
@<SCITEGIC>MOL_PROPERTY
VConf Rank
SciTegic.value.IntegerValue
977

@<SCITEGIC>MOL_PROPERTY
Conf_Id
SciTegic.value.IntegerValue
37

@<SCITEGIC>MOL_PROPERTY
Delta U+W
SciTegic.value.DoubleValue
1.063

@<SCITEGIC>MOL_PROPERTY
U+W
SciTegic.value.DoubleValue
-55.841

@<SCITEGIC>MOL_PROPERTY
Grad RMS
SciTegic.value.DoubleValue
0.000000

@<SCITEGIC>MOL_PROPERTY
U
SciTegic.value.DoubleValue
9.719

@<SCITEGIC>MOL_PROPERTY
W
SciTegic.value.DoubleValue
-65.560

@<SCITEGIC>MOL_PROPERTY
W(PB)
SciTegic.value.DoubleValue
-67.414

@<SCITEGIC>MOL_PROPERTY
W(SA)
SciTegic.value.DoubleValue
1.854

@<SCITEGIC>MOL_PROPERTY
Valence
SciTegic.value.DoubleValue
7.002

@<SCITEGIC>MOL_PROPERTY
Coulomb
SciTegic.value.DoubleValue
2.402

@<SCITEGIC>MOL_PROPERTY
VdW
SciTegic.value.DoubleValue
0.314

@<SCITEGIC>MOL_PROPERTY
VdW6
SciTegic.value.DoubleValue
-5.861

@<SCITEGIC>MOL_PROPERTY
VdW12
SciTegic.value.DoubleValue
6.175

@<SCITEGIC>MOL_PROPERTY
Bond
SciTegic.value.DoubleValue
0.134

@<SCITEGIC>MOL_PROPERTY
Angle
SciTegic.value.DoubleValue
2.733

@<SCITEGIC>MOL_PROPERTY
Pdih
SciTegic.value.DoubleValue
4.133

@<SCITEGIC>MOL_PROPERTY
Idih
SciTegic.value.DoubleValue
0.002

@<SCITEGIC>MOL_PROPERTY
Tether
SciTegic.value.DoubleValue
0.000

@<TRIPOS>MOLECULE
guest-s18_confgen4.mol2 : confsearch ligand conformer 978
          16          15           1
SMALL
USER_CHARGES
 
@<TRIPOS>ATOM
       1    C1      22.066044   18.576963   22.938091 C.2        1 MOL1         0.6075
       2    O1      22.649010   17.566508   22.597626 O.co2      1 MOL1        -0.6830
       3    O2      22.599594   19.666111   23.011449 O.co2      1 MOL1        -0.6830
       4    C2      20.594489   18.462498   23.326897 C.3        1 MOL1        -0.2050
       5    H1      20.298975   19.374282   23.858469 H          1 MOL1         0.0710
       6    H2      20.511535   17.641855   24.049077 H          1 MOL1         0.0710
       7    C3      19.640094   18.191854   22.131673 C.3        1 MOL1        -0.1947
       8    H3      19.930686   17.245151   21.655581 H          1 MOL1         0.0712
       9    H4      18.620002   18.045053   22.511454 H          1 MOL1         0.0712
      10    C4      19.628368   19.307424   21.059591 C.3        1 MOL1        -0.1921
      11    H5      18.991908   18.986166   20.223625 H          1 MOL1         0.0712
      12    H6      20.637884   19.440200   20.646256 H          1 MOL1         0.0712
      13    C5      19.105840   20.658440   21.592657 C.3        1 MOL1        -0.2936
      14    H7      18.111399   20.546109   22.043805 H          1 MOL1         0.0724
      15    H8      19.027047   21.388183   20.776491 H          1 MOL1         0.0724
      16    H9      19.783426   21.077354   22.347558 H          1 MOL1         0.0724
@<TRIPOS>BOND
    1     1     2    1
    2     1     3    2
    3     1     4    1
    4     4     5    1
    5     4     6    1
    6     4     7    1
    7     7     8    1
    8     7     9    1
    9     7    10    1
   10    10    11    1
   11    10    12    1
   12    10    13    1
   13    13    14    1
   14    13    15    1
   15    13    16    1
@<TRIPOS>SUBSTRUCTURE
       1 MOL1            1 RESIDUE      1      MOL     
@<SCITEGIC>MOL_PROPERTY
VConf Rank
SciTegic.value.IntegerValue
978

@<SCITEGIC>MOL_PROPERTY
Conf_Id
SciTegic.value.IntegerValue
39

@<SCITEGIC>MOL_PROPERTY
Delta U+W
SciTegic.value.DoubleValue
1.129

@<SCITEGIC>MOL_PROPERTY
U+W
SciTegic.value.DoubleValue
-55.775

@<SCITEGIC>MOL_PROPERTY
Grad RMS
SciTegic.value.DoubleValue
0.000000

@<SCITEGIC>MOL_PROPERTY
U
SciTegic.value.DoubleValue
9.718

@<SCITEGIC>MOL_PROPERTY
W
SciTegic.value.DoubleValue
-65.493

@<SCITEGIC>MOL_PROPERTY
W(PB)
SciTegic.value.DoubleValue
-67.361

@<SCITEGIC>MOL_PROPERTY
W(SA)
SciTegic.value.DoubleValue
1.869

@<SCITEGIC>MOL_PROPERTY
Valence
SciTegic.value.DoubleValue
7.002

@<SCITEGIC>MOL_PROPERTY
Coulomb
SciTegic.value.DoubleValue
2.402

@<SCITEGIC>MOL_PROPERTY
VdW
SciTegic.value.DoubleValue
0.314

@<SCITEGIC>MOL_PROPERTY
VdW6
SciTegic.value.DoubleValue
-5.861

@<SCITEGIC>MOL_PROPERTY
VdW12
SciTegic.value.DoubleValue
6.175

@<SCITEGIC>MOL_PROPERTY
Bond
SciTegic.value.DoubleValue
0.134

@<SCITEGIC>MOL_PROPERTY
Angle
SciTegic.value.DoubleValue
2.734

@<SCITEGIC>MOL_PROPERTY
Pdih
SciTegic.value.DoubleValue
4.133

@<SCITEGIC>MOL_PROPERTY
Idih
SciTegic.value.DoubleValue
0.002

@<SCITEGIC>MOL_PROPERTY
Tether
SciTegic.value.DoubleValue
0.000

@<TRIPOS>MOLECULE
guest-s18_confgen4.mol2 : confsearch ligand conformer 979
          16          15           1
SMALL
USER_CHARGES
 
@<TRIPOS>ATOM
       1    C1      18.049817   18.741013   22.938316 C.2        1 MOL1         0.6075
       2    O1      18.067326   18.130766   23.989084 O.co2      1 MOL1        -0.6830
       3    O2      17.346727   18.430934   21.996682 O.co2      1 MOL1        -0.6830
       4    C2      18.887277   20.014023   22.829869 C.3        1 MOL1        -0.2050
       5    H1      19.394157   20.190280   23.786418 H          1 MOL1         0.0710
       6    H2      18.178537   20.839281   22.694273 H          1 MOL1         0.0710
       7    C3      19.915782   20.035434   21.664236 C.3        1 MOL1        -0.1947
       8    H3      19.447039   19.659354   20.744244 H          1 MOL1         0.0712
       9    H4      20.178858   21.082792   21.463527 H          1 MOL1         0.0712
      10    C4      21.228301   19.264774   21.945200 C.3        1 MOL1        -0.1921
      11    H5      21.692705   19.642334   22.866616 H          1 MOL1         0.0712
      12    H6      21.936888   19.478014   21.132965 H          1 MOL1         0.0712
      13    C5      21.045022   17.736140   22.045057 C.3        1 MOL1        -0.2936
      14    H7      20.477649   17.459604   22.942060 H          1 MOL1         0.0724
      15    H8      22.020087   17.235627   22.104264 H          1 MOL1         0.0724
      16    H9      20.515118   17.344448   21.166929 H          1 MOL1         0.0724
@<TRIPOS>BOND
    1     1     2    1
    2     1     3    2
    3     1     4    1
    4     4     5    1
    5     4     6    1
    6     4     7    1
    7     7     8    1
    8     7     9    1
    9     7    10    1
   10    10    11    1
   11    10    12    1
   12    10    13    1
   13    13    14    1
   14    13    15    1
   15    13    16    1
@<TRIPOS>SUBSTRUCTURE
       1 MOL1            1 RESIDUE      1      MOL     
@<SCITEGIC>MOL_PROPERTY
VConf Rank
SciTegic.value.IntegerValue
979

@<SCITEGIC>MOL_PROPERTY
Conf_Id
SciTegic.value.IntegerValue
47

@<SCITEGIC>MOL_PROPERTY
Delta U+W
SciTegic.value.DoubleValue
2.301

@<SCITEGIC>MOL_PROPERTY
U+W
SciTegic.value.DoubleValue
-54.603

@<SCITEGIC>MOL_PROPERTY
Grad RMS
SciTegic.value.DoubleValue
0.000000

@<SCITEGIC>MOL_PROPERTY
U
SciTegic.value.DoubleValue
11.258

@<SCITEGIC>MOL_PROPERTY
W
SciTegic.value.DoubleValue
-65.861

@<SCITEGIC>MOL_PROPERTY
W(PB)
SciTegic.value.DoubleValue
-67.702

@<SCITEGIC>MOL_PROPERTY
W(SA)
SciTegic.value.DoubleValue
1.841

@<SCITEGIC>MOL_PROPERTY
Valence
SciTegic.value.DoubleValue
8.169

@<SCITEGIC>MOL_PROPERTY
Coulomb
SciTegic.value.DoubleValue
2.735

@<SCITEGIC>MOL_PROPERTY
VdW
SciTegic.value.DoubleValue
0.355

@<SCITEGIC>MOL_PROPERTY
VdW6
SciTegic.value.DoubleValue
-6.245

@<SCITEGIC>MOL_PROPERTY
VdW12
SciTegic.value.DoubleValue
6.600

@<SCITEGIC>MOL_PROPERTY
Bond
SciTegic.value.DoubleValue
0.149

@<SCITEGIC>MOL_PROPERTY
Angle
SciTegic.value.DoubleValue
3.168

@<SCITEGIC>MOL_PROPERTY
Pdih
SciTegic.value.DoubleValue
4.840

@<SCITEGIC>MOL_PROPERTY
Idih
SciTegic.value.DoubleValue
0.011

@<SCITEGIC>MOL_PROPERTY
Tether
SciTegic.value.DoubleValue
0.000

@<TRIPOS>MOLECULE
guest-s18_confgen4.mol2 : confsearch ligand conformer 980
          16          15           1
SMALL
USER_CHARGES
 
@<TRIPOS>ATOM
       1    C1      21.362017   18.623675   21.026695 C.2        1 MOL1         0.6075
       2    O1      22.270250   19.417189   21.177053 O.co2      1 MOL1        -0.6830
       3    O2      20.936086   18.293625   19.937444 O.co2      1 MOL1        -0.6830
       4    C2      20.786102   17.937728   22.264219 C.3        1 MOL1        -0.2050
       5    H1      21.610527   17.374585   22.716926 H          1 MOL1         0.0710
       6    H2      20.038987   17.199656   21.947918 H          1 MOL1         0.0710
       7    C3      20.180805   18.892166   23.331763 C.3        1 MOL1        -0.1947
       8    H3      20.142177   18.351349   24.287001 H          1 MOL1         0.0712
       9    H4      20.852697   19.746363   23.494401 H          1 MOL1         0.0712
      10    C4      18.751100   19.393470   23.015223 C.3        1 MOL1        -0.1921
      11    H5      18.364823   19.921436   23.898023 H          1 MOL1         0.0712
      12    H6      18.083029   18.536669   22.851506 H          1 MOL1         0.0712
      13    C5      18.678173   20.347199   21.804699 C.3        1 MOL1        -0.2936
      14    H7      17.672281   20.777148   21.714737 H          1 MOL1         0.0724
      15    H8      18.896524   19.820685   20.867626 H          1 MOL1         0.0724
      16    H9      19.392577   21.174071   21.910713 H          1 MOL1         0.0724
@<TRIPOS>BOND
    1     1     2    1
    2     1     3    2
    3     1     4    1
    4     4     5    1
    5     4     6    1
    6     4     7    1
    7     7     8    1
    8     7     9    1
    9     7    10    1
   10    10    11    1
   11    10    12    1
   12    10    13    1
   13    13    14    1
   14    13    15    1
   15    13    16    1
@<TRIPOS>SUBSTRUCTURE
       1 MOL1            1 RESIDUE      1      MOL     
@<SCITEGIC>MOL_PROPERTY
VConf Rank
SciTegic.value.IntegerValue
980

@<SCITEGIC>MOL_PROPERTY
Conf_Id
SciTegic.value.IntegerValue
45

@<SCITEGIC>MOL_PROPERTY
Delta U+W
SciTegic.value.DoubleValue
2.303

@<SCITEGIC>MOL_PROPERTY
U+W
SciTegic.value.DoubleValue
-54.601

@<SCITEGIC>MOL_PROPERTY
Grad RMS
SciTegic.value.DoubleValue
0.000000

@<SCITEGIC>MOL_PROPERTY
U
SciTegic.value.DoubleValue
11.258

@<SCITEGIC>MOL_PROPERTY
W
SciTegic.value.DoubleValue
-65.860

@<SCITEGIC>MOL_PROPERTY
W(PB)
SciTegic.value.DoubleValue
-67.709

@<SCITEGIC>MOL_PROPERTY
W(SA)
SciTegic.value.DoubleValue
1.849

@<SCITEGIC>MOL_PROPERTY
Valence
SciTegic.value.DoubleValue
8.169

@<SCITEGIC>MOL_PROPERTY
Coulomb
SciTegic.value.DoubleValue
2.735

@<SCITEGIC>MOL_PROPERTY
VdW
SciTegic.value.DoubleValue
0.355

@<SCITEGIC>MOL_PROPERTY
VdW6
SciTegic.value.DoubleValue
-6.245

@<SCITEGIC>MOL_PROPERTY
VdW12
SciTegic.value.DoubleValue
6.600

@<SCITEGIC>MOL_PROPERTY
Bond
SciTegic.value.DoubleValue
0.149

@<SCITEGIC>MOL_PROPERTY
Angle
SciTegic.value.DoubleValue
3.168

@<SCITEGIC>MOL_PROPERTY
Pdih
SciTegic.value.DoubleValue
4.840

@<SCITEGIC>MOL_PROPERTY
Idih
SciTegic.value.DoubleValue
0.011

@<SCITEGIC>MOL_PROPERTY
Tether
SciTegic.value.DoubleValue
0.000

@<TRIPOS>MOLECULE
guest-s18_confgen4.mol2 : confsearch ligand conformer 981
          16          15           1
SMALL
USER_CHARGES
 
@<TRIPOS>ATOM
       1    C1      21.963038   18.469711   20.104159 C.2        1 MOL1         0.6075
       2    O1      22.879821   18.818023   20.822466 O.co2      1 MOL1        -0.6830
       3    O2      22.130322   18.016161   18.989878 O.co2      1 MOL1        -0.6830
       4    C2      20.520577   18.596108   20.597335 C.3        1 MOL1        -0.2050
       5    H1      20.070738   17.597204   20.552661 H          1 MOL1         0.0710
       6    H2      19.982051   19.222835   19.876664 H          1 MOL1         0.0710
       7    C3      20.356159   19.180968   22.025360 C.3        1 MOL1        -0.1947
       8    H3      20.902231   18.552042   22.742107 H          1 MOL1         0.0712
       9    H4      20.813437   20.179348   22.065405 H          1 MOL1         0.0712
      10    C4      18.872683   19.272560   22.440290 C.3        1 MOL1        -0.1921
      11    H5      18.414616   18.274443   22.402364 H          1 MOL1         0.0712
      12    H6      18.325757   19.902722   21.725262 H          1 MOL1         0.0712
      13    C5      18.715918   19.854057   23.859243 C.3        1 MOL1        -0.2936
      14    H7      19.227627   19.225587   24.599951 H          1 MOL1         0.0724
      15    H8      17.655842   19.912331   24.138503 H          1 MOL1         0.0724
      16    H9      19.138110   20.865880   23.917859 H          1 MOL1         0.0724
@<TRIPOS>BOND
    1     1     2    1
    2     1     3    2
    3     1     4    1
    4     4     5    1
    5     4     6    1
    6     4     7    1
    7     7     8    1
    8     7     9    1
    9     7    10    1
   10    10    11    1
   11    10    12    1
   12    10    13    1
   13    13    14    1
   14    13    15    1
   15    13    16    1
@<TRIPOS>SUBSTRUCTURE
       1 MOL1            1 RESIDUE      1      MOL     
@<SCITEGIC>MOL_PROPERTY
VConf Rank
SciTegic.value.IntegerValue
981

@<SCITEGIC>MOL_PROPERTY
Conf_Id
SciTegic.value.IntegerValue
0

@<SCITEGIC>MOL_PROPERTY
Delta U+W
SciTegic.value.DoubleValue
0.000

@<SCITEGIC>MOL_PROPERTY
U+W
SciTegic.value.DoubleValue
-56.904

@<SCITEGIC>MOL_PROPERTY
Grad RMS
SciTegic.value.DoubleValue
0.000000

@<SCITEGIC>MOL_PROPERTY
U
SciTegic.value.DoubleValue
7.329

@<SCITEGIC>MOL_PROPERTY
W
SciTegic.value.DoubleValue
-64.233

@<SCITEGIC>MOL_PROPERTY
W(PB)
SciTegic.value.DoubleValue
-66.148

@<SCITEGIC>MOL_PROPERTY
W(SA)
SciTegic.value.DoubleValue
1.915

@<SCITEGIC>MOL_PROPERTY
Valence
SciTegic.value.DoubleValue
6.755

@<SCITEGIC>MOL_PROPERTY
Coulomb
SciTegic.value.DoubleValue
-0.421

@<SCITEGIC>MOL_PROPERTY
VdW
SciTegic.value.DoubleValue
0.995

@<SCITEGIC>MOL_PROPERTY
VdW6
SciTegic.value.DoubleValue
-4.495

@<SCITEGIC>MOL_PROPERTY
VdW12
SciTegic.value.DoubleValue
5.490

@<SCITEGIC>MOL_PROPERTY
Bond
SciTegic.value.DoubleValue
0.106

@<SCITEGIC>MOL_PROPERTY
Angle
SciTegic.value.DoubleValue
2.715

@<SCITEGIC>MOL_PROPERTY
Pdih
SciTegic.value.DoubleValue
3.934

@<SCITEGIC>MOL_PROPERTY
Idih
SciTegic.value.DoubleValue
0.000

@<SCITEGIC>MOL_PROPERTY
Tether
SciTegic.value.DoubleValue
0.000

@<TRIPOS>MOLECULE
guest-s18_confgen4.mol2 : confsearch ligand conformer 982
          16          15           1
SMALL
USER_CHARGES
 
@<TRIPOS>ATOM
       1    C1      21.153313   19.884631   19.566977 C.2        1 MOL1         0.6075
       2    O1      22.356756   20.047525   19.599120 O.co2      1 MOL1        -0.6830
       3    O2      20.551706   19.512718   18.579255 O.co2      1 MOL1        -0.6830
       4    C2      20.356767   20.143663   20.840947 C.3        1 MOL1        -0.2050
       5    H1      19.363650   20.509819   20.553724 H          1 MOL1         0.0710
       6    H2      20.851863   20.950633   21.394597 H          1 MOL1         0.0710
       7    C3      20.224076   18.886221   21.734980 C.3        1 MOL1        -0.1947
       8    H3      19.738007   18.083696   21.162930 H          1 MOL1         0.0712
       9    H4      21.226293   18.524484   22.003790 H          1 MOL1         0.0712
      10    C4      19.414533   19.175454   23.016209 C.3        1 MOL1        -0.1921
      11    H5      18.411990   19.536574   22.747812 H          1 MOL1         0.0712
      12    H6      19.900643   19.977508   23.588874 H          1 MOL1         0.0712
      13    C5      19.286581   17.919723   23.901008 C.3        1 MOL1        -0.2936
      14    H7      20.274825   17.554845   24.210378 H          1 MOL1         0.0724
      15    H8      18.775197   17.110646   23.363093 H          1 MOL1         0.0724
      16    H9      18.708544   18.142454   24.807327 H          1 MOL1         0.0724
@<TRIPOS>BOND
    1     1     2    1
    2     1     3    2
    3     1     4    1
    4     4     5    1
    5     4     6    1
    6     4     7    1
    7     7     8    1
    8     7     9    1
    9     7    10    1
   10    10    11    1
   11    10    12    1
   12    10    13    1
   13    13    14    1
   14    13    15    1
   15    13    16    1
@<TRIPOS>SUBSTRUCTURE
       1 MOL1            1 RESIDUE      1      MOL     
@<SCITEGIC>MOL_PROPERTY
VConf Rank
SciTegic.value.IntegerValue
982

@<SCITEGIC>MOL_PROPERTY
Conf_Id
SciTegic.value.IntegerValue
22

@<SCITEGIC>MOL_PROPERTY
Delta U+W
SciTegic.value.DoubleValue
-1.185

@<SCITEGIC>MOL_PROPERTY
U+W
SciTegic.value.DoubleValue
-58.089

@<SCITEGIC>MOL_PROPERTY
Grad RMS
SciTegic.value.DoubleValue
0.000000

@<SCITEGIC>MOL_PROPERTY
U
SciTegic.value.DoubleValue
6.298

@<SCITEGIC>MOL_PROPERTY
W
SciTegic.value.DoubleValue
-64.387

@<SCITEGIC>MOL_PROPERTY
W(PB)
SciTegic.value.DoubleValue
-66.329

@<SCITEGIC>MOL_PROPERTY
W(SA)
SciTegic.value.DoubleValue
1.942

@<SCITEGIC>MOL_PROPERTY
Valence
SciTegic.value.DoubleValue
6.246

@<SCITEGIC>MOL_PROPERTY
Coulomb
SciTegic.value.DoubleValue
-0.408

@<SCITEGIC>MOL_PROPERTY
VdW
SciTegic.value.DoubleValue
0.460

@<SCITEGIC>MOL_PROPERTY
VdW6
SciTegic.value.DoubleValue
-4.207

@<SCITEGIC>MOL_PROPERTY
VdW12
SciTegic.value.DoubleValue
4.667

@<SCITEGIC>MOL_PROPERTY
Bond
SciTegic.value.DoubleValue
0.072

@<SCITEGIC>MOL_PROPERTY
Angle
SciTegic.value.DoubleValue
2.246

@<SCITEGIC>MOL_PROPERTY
Pdih
SciTegic.value.DoubleValue
3.928

@<SCITEGIC>MOL_PROPERTY
Idih
SciTegic.value.DoubleValue
0.001

@<SCITEGIC>MOL_PROPERTY
Tether
SciTegic.value.DoubleValue
0.000

@<TRIPOS>MOLECULE
guest-s18_confgen4.mol2 : confsearch ligand conformer 983
          16          15           1
SMALL
USER_CHARGES
 
@<TRIPOS>ATOM
       1    C1      21.855224   20.079196   20.488052 C.2        1 MOL1         0.6075
       2    O1      22.966258   20.320358   20.916350 O.co2      1 MOL1        -0.6830
       3    O2      21.407193   20.568210   19.470167 O.co2      1 MOL1        -0.6830
       4    C2      20.968057   19.126760   21.282012 C.3        1 MOL1        -0.2050
       5    H1      21.613750   18.386021   21.768789 H          1 MOL1         0.0710
       6    H2      20.334462   18.587167   20.568911 H          1 MOL1         0.0710
       7    C3      20.099326   19.855578   22.339899 C.3        1 MOL1        -0.1947
       8    H3      20.756852   20.455336   22.984398 H          1 MOL1         0.0712
       9    H4      19.426868   20.564147   21.836870 H          1 MOL1         0.0712
      10    C4      19.275681   18.894485   23.227772 C.3        1 MOL1        -0.1921
      11    H5      18.778760   19.478919   24.014420 H          1 MOL1         0.0712
      12    H6      19.949006   18.193349   23.740046 H          1 MOL1         0.0712
      13    C5      18.205721   18.106517   22.442135 C.3        1 MOL1        -0.2936
      14    H7      18.663735   17.420720   21.718473 H          1 MOL1         0.0724
      15    H8      17.537669   18.786698   21.897791 H          1 MOL1         0.0724
      16    H9      17.592154   17.506112   23.126282 H          1 MOL1         0.0724
@<TRIPOS>BOND
    1     1     2    1
    2     1     3    2
    3     1     4    1
    4     4     5    1
    5     4     6    1
    6     4     7    1
    7     7     8    1
    8     7     9    1
    9     7    10    1
   10    10    11    1
   11    10    12    1
   12    10    13    1
   13    13    14    1
   14    13    15    1
   15    13    16    1
@<TRIPOS>SUBSTRUCTURE
       1 MOL1            1 RESIDUE      1      MOL     
@<SCITEGIC>MOL_PROPERTY
VConf Rank
SciTegic.value.IntegerValue
983

@<SCITEGIC>MOL_PROPERTY
Conf_Id
SciTegic.value.IntegerValue
36

@<SCITEGIC>MOL_PROPERTY
Delta U+W
SciTegic.value.DoubleValue
-0.427

@<SCITEGIC>MOL_PROPERTY
U+W
SciTegic.value.DoubleValue
-57.331

@<SCITEGIC>MOL_PROPERTY
Grad RMS
SciTegic.value.DoubleValue
0.000000

@<SCITEGIC>MOL_PROPERTY
U
SciTegic.value.DoubleValue
7.263

@<SCITEGIC>MOL_PROPERTY
W
SciTegic.value.DoubleValue
-64.594

@<SCITEGIC>MOL_PROPERTY
W(PB)
SciTegic.value.DoubleValue
-66.513

@<SCITEGIC>MOL_PROPERTY
W(SA)
SciTegic.value.DoubleValue
1.920

@<SCITEGIC>MOL_PROPERTY
Valence
SciTegic.value.DoubleValue
6.734

@<SCITEGIC>MOL_PROPERTY
Coulomb
SciTegic.value.DoubleValue
-0.068

@<SCITEGIC>MOL_PROPERTY
VdW
SciTegic.value.DoubleValue
0.598

@<SCITEGIC>MOL_PROPERTY
VdW6
SciTegic.value.DoubleValue
-4.819

@<SCITEGIC>MOL_PROPERTY
VdW12
SciTegic.value.DoubleValue
5.417

@<SCITEGIC>MOL_PROPERTY
Bond
SciTegic.value.DoubleValue
0.107

@<SCITEGIC>MOL_PROPERTY
Angle
SciTegic.value.DoubleValue
2.469

@<SCITEGIC>MOL_PROPERTY
Pdih
SciTegic.value.DoubleValue
4.157

@<SCITEGIC>MOL_PROPERTY
Idih
SciTegic.value.DoubleValue
0.001

@<SCITEGIC>MOL_PROPERTY
Tether
SciTegic.value.DoubleValue
0.000

@<TRIPOS>MOLECULE
guest-s18_confgen4.mol2 : confsearch ligand conformer 984
          16          15           1
SMALL
USER_CHARGES
 
@<TRIPOS>ATOM
       1    C1      21.969957   17.516158   21.802774 C.2        1 MOL1         0.6075
       2    O1      21.892707   16.626737   22.626741 O.co2      1 MOL1        -0.6830
       3    O2      23.000719   17.817664   21.234777 O.co2      1 MOL1        -0.6830
       4    C2      20.709658   18.310512   21.478396 C.3        1 MOL1        -0.2050
       5    H1      19.853775   17.632281   21.571047 H          1 MOL1         0.0710
       6    H2      20.764903   18.623075   20.428721 H          1 MOL1         0.0710
       7    C3      20.526276   19.547731   22.395269 C.3        1 MOL1        -0.1947
       8    H3      20.429376   19.219146   23.439276 H          1 MOL1         0.0712
       9    H4      21.436167   20.161815   22.345993 H          1 MOL1         0.0712
      10    C4      19.313300   20.425301   22.009304 C.3        1 MOL1        -0.1921
      11    H5      19.415849   20.763669   20.968934 H          1 MOL1         0.0712
      12    H6      19.319618   21.330299   22.632399 H          1 MOL1         0.0712
      13    C5      17.959507   19.705958   22.190185 C.3        1 MOL1        -0.2936
      14    H7      17.861587   18.856922   21.502192 H          1 MOL1         0.0724
      15    H8      17.129097   20.394799   21.987885 H          1 MOL1         0.0724
      16    H9      17.846791   19.333072   23.216587 H          1 MOL1         0.0724
@<TRIPOS>BOND
    1     1     2    1
    2     1     3    2
    3     1     4    1
    4     4     5    1
    5     4     6    1
    6     4     7    1
    7     7     8    1
    8     7     9    1
    9     7    10    1
   10    10    11    1
   11    10    12    1
   12    10    13    1
   13    13    14    1
   14    13    15    1
   15    13    16    1
@<TRIPOS>SUBSTRUCTURE
       1 MOL1            1 RESIDUE      1      MOL     
@<SCITEGIC>MOL_PROPERTY
VConf Rank
SciTegic.value.IntegerValue
984

@<SCITEGIC>MOL_PROPERTY
Conf_Id
SciTegic.value.IntegerValue
17

@<SCITEGIC>MOL_PROPERTY
Delta U+W
SciTegic.value.DoubleValue
-0.432

@<SCITEGIC>MOL_PROPERTY
U+W
SciTegic.value.DoubleValue
-57.336

@<SCITEGIC>MOL_PROPERTY
Grad RMS
SciTegic.value.DoubleValue
0.000000

@<SCITEGIC>MOL_PROPERTY
U
SciTegic.value.DoubleValue
7.263

@<SCITEGIC>MOL_PROPERTY
W
SciTegic.value.DoubleValue
-64.599

@<SCITEGIC>MOL_PROPERTY
W(PB)
SciTegic.value.DoubleValue
-66.503

@<SCITEGIC>MOL_PROPERTY
W(SA)
SciTegic.value.DoubleValue
1.904

@<SCITEGIC>MOL_PROPERTY
Valence
SciTegic.value.DoubleValue
6.734

@<SCITEGIC>MOL_PROPERTY
Coulomb
SciTegic.value.DoubleValue
-0.068

@<SCITEGIC>MOL_PROPERTY
VdW
SciTegic.value.DoubleValue
0.598

@<SCITEGIC>MOL_PROPERTY
VdW6
SciTegic.value.DoubleValue
-4.819

@<SCITEGIC>MOL_PROPERTY
VdW12
SciTegic.value.DoubleValue
5.417

@<SCITEGIC>MOL_PROPERTY
Bond
SciTegic.value.DoubleValue
0.107

@<SCITEGIC>MOL_PROPERTY
Angle
SciTegic.value.DoubleValue
2.469

@<SCITEGIC>MOL_PROPERTY
Pdih
SciTegic.value.DoubleValue
4.157

@<SCITEGIC>MOL_PROPERTY
Idih
SciTegic.value.DoubleValue
0.001

@<SCITEGIC>MOL_PROPERTY
Tether
SciTegic.value.DoubleValue
0.000

@<TRIPOS>MOLECULE
guest-s18_confgen4.mol2 : confsearch ligand conformer 985
          16          15           1
SMALL
USER_CHARGES
 
@<TRIPOS>ATOM
       1    C1      22.238590   19.994863   21.421684 C.2        1 MOL1         0.6075
       2    O1      23.013586   19.140817   21.039153 O.co2      1 MOL1        -0.6830
       3    O2      22.012001   21.018811   20.808129 O.co2      1 MOL1        -0.6830
       4    C2      21.530931   19.778808   22.756611 C.3        1 MOL1        -0.2050
       5    H1      21.161909   20.746283   23.118410 H          1 MOL1         0.0710
       6    H2      22.284683   19.437883   23.476237 H          1 MOL1         0.0710
       7    C3      20.370415   18.751779   22.697875 C.3        1 MOL1        -0.1947
       8    H3      20.748621   17.796866   22.307076 H          1 MOL1         0.0712
       9    H4      20.014843   18.557005   23.718752 H          1 MOL1         0.0712
      10    C4      19.188710   19.239862   21.832121 C.3        1 MOL1        -0.1921
      11    H5      19.528512   19.418576   20.802403 H          1 MOL1         0.0712
      12    H6      18.819669   20.200784   22.216587 H          1 MOL1         0.0712
      13    C5      18.036180   18.216228   21.818197 C.3        1 MOL1        -0.2936
      14    H7      18.370855   17.254030   21.408786 H          1 MOL1         0.0724
      15    H8      17.205474   18.577827   21.198286 H          1 MOL1         0.0724
      16    H9      17.652123   18.042862   22.832032 H          1 MOL1         0.0724
@<TRIPOS>BOND
    1     1     2    1
    2     1     3    2
    3     1     4    1
    4     4     5    1
    5     4     6    1
    6     4     7    1
    7     7     8    1
    8     7     9    1
    9     7    10    1
   10    10    11    1
   11    10    12    1
   12    10    13    1
   13    13    14    1
   14    13    15    1
   15    13    16    1
@<TRIPOS>SUBSTRUCTURE
       1 MOL1            1 RESIDUE      1      MOL     
@<SCITEGIC>MOL_PROPERTY
VConf Rank
SciTegic.value.IntegerValue
985

@<SCITEGIC>MOL_PROPERTY
Conf_Id
SciTegic.value.IntegerValue
19

@<SCITEGIC>MOL_PROPERTY
Delta U+W
SciTegic.value.DoubleValue
0.048

@<SCITEGIC>MOL_PROPERTY
U+W
SciTegic.value.DoubleValue
-56.856

@<SCITEGIC>MOL_PROPERTY
Grad RMS
SciTegic.value.DoubleValue
0.000000

@<SCITEGIC>MOL_PROPERTY
U
SciTegic.value.DoubleValue
8.276

@<SCITEGIC>MOL_PROPERTY
W
SciTegic.value.DoubleValue
-65.132

@<SCITEGIC>MOL_PROPERTY
W(PB)
SciTegic.value.DoubleValue
-67.031

@<SCITEGIC>MOL_PROPERTY
W(SA)
SciTegic.value.DoubleValue
1.899

@<SCITEGIC>MOL_PROPERTY
Valence
SciTegic.value.DoubleValue
6.513

@<SCITEGIC>MOL_PROPERTY
Coulomb
SciTegic.value.DoubleValue
1.428

@<SCITEGIC>MOL_PROPERTY
VdW
SciTegic.value.DoubleValue
0.335

@<SCITEGIC>MOL_PROPERTY
VdW6
SciTegic.value.DoubleValue
-5.021

@<SCITEGIC>MOL_PROPERTY
VdW12
SciTegic.value.DoubleValue
5.356

@<SCITEGIC>MOL_PROPERTY
Bond
SciTegic.value.DoubleValue
0.092

@<SCITEGIC>MOL_PROPERTY
Angle
SciTegic.value.DoubleValue
2.417

@<SCITEGIC>MOL_PROPERTY
Pdih
SciTegic.value.DoubleValue
4.003

@<SCITEGIC>MOL_PROPERTY
Idih
SciTegic.value.DoubleValue
0.001

@<SCITEGIC>MOL_PROPERTY
Tether
SciTegic.value.DoubleValue
0.000

@<TRIPOS>MOLECULE
guest-s18_confgen4.mol2 : confsearch ligand conformer 986
          16          15           1
SMALL
USER_CHARGES
 
@<TRIPOS>ATOM
       1    C1      20.360376   17.984907   20.096178 C.2        1 MOL1         0.6075
       2    O1      20.743147   16.847312   20.285134 O.co2      1 MOL1        -0.6830
       3    O2      20.929041   18.771653   19.365485 O.co2      1 MOL1        -0.6830
       4    C2      19.083388   18.440448   20.797093 C.3        1 MOL1        -0.2050
       5    H1      18.340465   17.643120   20.676390 H          1 MOL1         0.0710
       6    H2      18.691253   19.321039   20.273764 H          1 MOL1         0.0710
       7    C3      19.266829   18.752174   22.305145 C.3        1 MOL1        -0.1947
       8    H3      18.280946   18.934357   22.753924 H          1 MOL1         0.0712
       9    H4      19.686586   17.871327   22.810651 H          1 MOL1         0.0712
      10    C4      20.172577   19.978030   22.552306 C.3        1 MOL1        -0.1921
      11    H5      19.758249   20.855078   22.036072 H          1 MOL1         0.0712
      12    H6      21.169074   19.798722   22.125028 H          1 MOL1         0.0712
      13    C5      20.310737   20.285957   24.056448 C.3        1 MOL1        -0.2936
      14    H7      19.332398   20.503704   24.504615 H          1 MOL1         0.0724
      15    H8      20.957756   21.158590   24.214550 H          1 MOL1         0.0724
      16    H9      20.751976   19.435259   24.592238 H          1 MOL1         0.0724
@<TRIPOS>BOND
    1     1     2    1
    2     1     3    2
    3     1     4    1
    4     4     5    1
    5     4     6    1
    6     4     7    1
    7     7     8    1
    8     7     9    1
    9     7    10    1
   10    10    11    1
   11    10    12    1
   12    10    13    1
   13    13    14    1
   14    13    15    1
   15    13    16    1
@<TRIPOS>SUBSTRUCTURE
       1 MOL1            1 RESIDUE      1      MOL     
@<SCITEGIC>MOL_PROPERTY
VConf Rank
SciTegic.value.IntegerValue
986

@<SCITEGIC>MOL_PROPERTY
Conf_Id
SciTegic.value.IntegerValue
20

@<SCITEGIC>MOL_PROPERTY
Delta U+W
SciTegic.value.DoubleValue
-0.010

@<SCITEGIC>MOL_PROPERTY
U+W
SciTegic.value.DoubleValue
-56.914

@<SCITEGIC>MOL_PROPERTY
Grad RMS
SciTegic.value.DoubleValue
0.000000

@<SCITEGIC>MOL_PROPERTY
U
SciTegic.value.DoubleValue
8.277

@<SCITEGIC>MOL_PROPERTY
W
SciTegic.value.DoubleValue
-65.191

@<SCITEGIC>MOL_PROPERTY
W(PB)
SciTegic.value.DoubleValue
-67.081

@<SCITEGIC>MOL_PROPERTY
W(SA)
SciTegic.value.DoubleValue
1.890

@<SCITEGIC>MOL_PROPERTY
Valence
SciTegic.value.DoubleValue
6.513

@<SCITEGIC>MOL_PROPERTY
Coulomb
SciTegic.value.DoubleValue
1.429

@<SCITEGIC>MOL_PROPERTY
VdW
SciTegic.value.DoubleValue
0.335

@<SCITEGIC>MOL_PROPERTY
VdW6
SciTegic.value.DoubleValue
-5.021

@<SCITEGIC>MOL_PROPERTY
VdW12
SciTegic.value.DoubleValue
5.356

@<SCITEGIC>MOL_PROPERTY
Bond
SciTegic.value.DoubleValue
0.092

@<SCITEGIC>MOL_PROPERTY
Angle
SciTegic.value.DoubleValue
2.417

@<SCITEGIC>MOL_PROPERTY
Pdih
SciTegic.value.DoubleValue
4.002

@<SCITEGIC>MOL_PROPERTY
Idih
SciTegic.value.DoubleValue
0.001

@<SCITEGIC>MOL_PROPERTY
Tether
SciTegic.value.DoubleValue
0.000

@<TRIPOS>MOLECULE
guest-s18_confgen4.mol2 : confsearch ligand conformer 987
          16          15           1
SMALL
USER_CHARGES
 
@<TRIPOS>ATOM
       1    C1      17.752261   19.144863   22.574674 C.2        1 MOL1         0.6075
       2    O1      16.913470   18.954303   21.716244 O.co2      1 MOL1        -0.6830
       3    O2      17.676888   20.033522   23.399844 O.co2      1 MOL1        -0.6830
       4    C2      18.945382   18.195057   22.638511 C.3        1 MOL1        -0.2050
       5    H1      18.548664   17.173088   22.629858 H          1 MOL1         0.0710
       6    H2      19.447101   18.324655   23.604290 H          1 MOL1         0.0710
       7    C3      19.955048   18.362823   21.470132 C.3        1 MOL1        -0.1947
       8    H3      20.732385   17.591225   21.552317 H          1 MOL1         0.0712
       9    H4      19.432344   18.173672   20.522316 H          1 MOL1         0.0712
      10    C4      20.625633   19.755528   21.401729 C.3        1 MOL1        -0.1921
      11    H5      19.859611   20.534632   21.284238 H          1 MOL1         0.0712
      12    H6      21.253109   19.800699   20.500973 H          1 MOL1         0.0712
      13    C5      21.499906   20.071316   22.633950 C.3        1 MOL1        -0.2936
      14    H7      20.890541   20.158147   23.542588 H          1 MOL1         0.0724
      15    H8      22.027167   21.024130   22.496099 H          1 MOL1         0.0724
      16    H9      22.252090   19.288089   22.794699 H          1 MOL1         0.0724
@<TRIPOS>BOND
    1     1     2    1
    2     1     3    2
    3     1     4    1
    4     4     5    1
    5     4     6    1
    6     4     7    1
    7     7     8    1
    8     7     9    1
    9     7    10    1
   10    10    11    1
   11    10    12    1
   12    10    13    1
   13    13    14    1
   14    13    15    1
   15    13    16    1
@<TRIPOS>SUBSTRUCTURE
       1 MOL1            1 RESIDUE      1      MOL     
@<SCITEGIC>MOL_PROPERTY
VConf Rank
SciTegic.value.IntegerValue
987

@<SCITEGIC>MOL_PROPERTY
Conf_Id
SciTegic.value.IntegerValue
37

@<SCITEGIC>MOL_PROPERTY
Delta U+W
SciTegic.value.DoubleValue
1.063

@<SCITEGIC>MOL_PROPERTY
U+W
SciTegic.value.DoubleValue
-55.841

@<SCITEGIC>MOL_PROPERTY
Grad RMS
SciTegic.value.DoubleValue
0.000000

@<SCITEGIC>MOL_PROPERTY
U
SciTegic.value.DoubleValue
9.719

@<SCITEGIC>MOL_PROPERTY
W
SciTegic.value.DoubleValue
-65.560

@<SCITEGIC>MOL_PROPERTY
W(PB)
SciTegic.value.DoubleValue
-67.414

@<SCITEGIC>MOL_PROPERTY
W(SA)
SciTegic.value.DoubleValue
1.854

@<SCITEGIC>MOL_PROPERTY
Valence
SciTegic.value.DoubleValue
7.002

@<SCITEGIC>MOL_PROPERTY
Coulomb
SciTegic.value.DoubleValue
2.402

@<SCITEGIC>MOL_PROPERTY
VdW
SciTegic.value.DoubleValue
0.314

@<SCITEGIC>MOL_PROPERTY
VdW6
SciTegic.value.DoubleValue
-5.861

@<SCITEGIC>MOL_PROPERTY
VdW12
SciTegic.value.DoubleValue
6.175

@<SCITEGIC>MOL_PROPERTY
Bond
SciTegic.value.DoubleValue
0.134

@<SCITEGIC>MOL_PROPERTY
Angle
SciTegic.value.DoubleValue
2.733

@<SCITEGIC>MOL_PROPERTY
Pdih
SciTegic.value.DoubleValue
4.133

@<SCITEGIC>MOL_PROPERTY
Idih
SciTegic.value.DoubleValue
0.002

@<SCITEGIC>MOL_PROPERTY
Tether
SciTegic.value.DoubleValue
0.000

@<TRIPOS>MOLECULE
guest-s18_confgen4.mol2 : confsearch ligand conformer 988
          16          15           1
SMALL
USER_CHARGES
 
@<TRIPOS>ATOM
       1    C1      21.387164   18.504807   23.803240 C.2        1 MOL1         0.6075
       2    O1      22.362766   19.127968   24.172912 O.co2      1 MOL1        -0.6830
       3    O2      20.551530   18.055706   24.562400 O.co2      1 MOL1        -0.6830
       4    C2      21.223673   18.244185   22.308217 C.3        1 MOL1        -0.2050
       5    H1      20.471787   17.459169   22.167981 H          1 MOL1         0.0710
       6    H2      22.172521   17.833402   21.943766 H          1 MOL1         0.0710
       7    C3      20.859153   19.505900   21.478833 C.3        1 MOL1        -0.1947
       8    H3      21.658544   20.250130   21.599037 H          1 MOL1         0.0712
       9    H4      20.841017   19.243086   20.412544 H          1 MOL1         0.0712
      10    C4      19.509265   20.155499   21.865894 C.3        1 MOL1        -0.1921
      11    H5      19.383366   21.079488   21.284928 H          1 MOL1         0.0712
      12    H6      19.527310   20.455064   22.923028 H          1 MOL1         0.0712
      13    C5      18.295846   19.236703   21.609241 C.3        1 MOL1        -0.2936
      14    H7      18.274478   18.894063   20.566549 H          1 MOL1         0.0724
      15    H8      17.359367   19.773454   21.808656 H          1 MOL1         0.0724
      16    H9      18.318510   18.355525   22.263074 H          1 MOL1         0.0724
@<TRIPOS>BOND
    1     1     2    1
    2     1     3    2
    3     1     4    1
    4     4     5    1
    5     4     6    1
    6     4     7    1
    7     7     8    1
    8     7     9    1
    9     7    10    1
   10    10    11    1
   11    10    12    1
   12    10    13    1
   13    13    14    1
   14    13    15    1
   15    13    16    1
@<TRIPOS>SUBSTRUCTURE
       1 MOL1            1 RESIDUE      1      MOL     
@<SCITEGIC>MOL_PROPERTY
VConf Rank
SciTegic.value.IntegerValue
988

@<SCITEGIC>MOL_PROPERTY
Conf_Id
SciTegic.value.IntegerValue
39

@<SCITEGIC>MOL_PROPERTY
Delta U+W
SciTegic.value.DoubleValue
1.129

@<SCITEGIC>MOL_PROPERTY
U+W
SciTegic.value.DoubleValue
-55.775

@<SCITEGIC>MOL_PROPERTY
Grad RMS
SciTegic.value.DoubleValue
0.000000

@<SCITEGIC>MOL_PROPERTY
U
SciTegic.value.DoubleValue
9.718

@<SCITEGIC>MOL_PROPERTY
W
SciTegic.value.DoubleValue
-65.493

@<SCITEGIC>MOL_PROPERTY
W(PB)
SciTegic.value.DoubleValue
-67.361

@<SCITEGIC>MOL_PROPERTY
W(SA)
SciTegic.value.DoubleValue
1.869

@<SCITEGIC>MOL_PROPERTY
Valence
SciTegic.value.DoubleValue
7.002

@<SCITEGIC>MOL_PROPERTY
Coulomb
SciTegic.value.DoubleValue
2.402

@<SCITEGIC>MOL_PROPERTY
VdW
SciTegic.value.DoubleValue
0.314

@<SCITEGIC>MOL_PROPERTY
VdW6
SciTegic.value.DoubleValue
-5.861

@<SCITEGIC>MOL_PROPERTY
VdW12
SciTegic.value.DoubleValue
6.175

@<SCITEGIC>MOL_PROPERTY
Bond
SciTegic.value.DoubleValue
0.134

@<SCITEGIC>MOL_PROPERTY
Angle
SciTegic.value.DoubleValue
2.734

@<SCITEGIC>MOL_PROPERTY
Pdih
SciTegic.value.DoubleValue
4.133

@<SCITEGIC>MOL_PROPERTY
Idih
SciTegic.value.DoubleValue
0.002

@<SCITEGIC>MOL_PROPERTY
Tether
SciTegic.value.DoubleValue
0.000

@<TRIPOS>MOLECULE
guest-s18_confgen4.mol2 : confsearch ligand conformer 989
          16          15           1
SMALL
USER_CHARGES
 
@<TRIPOS>ATOM
       1    C1      21.650535   18.410223   22.950534 C.2        1 MOL1         0.6075
       2    O1      22.551885   18.672182   22.178675 O.co2      1 MOL1        -0.6830
       3    O2      21.483427   17.307679   23.433888 O.co2      1 MOL1        -0.6830
       4    C2      20.736919   19.547218   23.404632 C.3        1 MOL1        -0.2050
       5    H1      21.071810   20.481898   22.938583 H          1 MOL1         0.0710
       6    H2      20.897166   19.660103   24.483208 H          1 MOL1         0.0710
       7    C3      19.220804   19.327367   23.139978 C.3        1 MOL1        -0.1947
       8    H3      18.935185   18.305333   23.425301 H          1 MOL1         0.0712
       9    H4      18.659861   19.995756   23.807099 H          1 MOL1         0.0712
      10    C4      18.768113   19.620147   21.689146 C.3        1 MOL1        -0.1921
      11    H5      19.057203   20.641972   21.407133 H          1 MOL1         0.0712
      12    H6      17.670294   19.589747   21.655085 H          1 MOL1         0.0712
      13    C5      19.317129   18.620094   20.650511 C.3        1 MOL1        -0.2936
      14    H7      20.401572   18.727903   20.526579 H          1 MOL1         0.0724
      15    H8      18.854455   18.792021   19.670132 H          1 MOL1         0.0724
      16    H9      19.104932   17.585176   20.949255 H          1 MOL1         0.0724
@<TRIPOS>BOND
    1     1     2    1
    2     1     3    2
    3     1     4    1
    4     4     5    1
    5     4     6    1
    6     4     7    1
    7     7     8    1
    8     7     9    1
    9     7    10    1
   10    10    11    1
   11    10    12    1
   12    10    13    1
   13    13    14    1
   14    13    15    1
   15    13    16    1
@<TRIPOS>SUBSTRUCTURE
       1 MOL1            1 RESIDUE      1      MOL     
@<SCITEGIC>MOL_PROPERTY
VConf Rank
SciTegic.value.IntegerValue
989

@<SCITEGIC>MOL_PROPERTY
Conf_Id
SciTegic.value.IntegerValue
47

@<SCITEGIC>MOL_PROPERTY
Delta U+W
SciTegic.value.DoubleValue
2.301

@<SCITEGIC>MOL_PROPERTY
U+W
SciTegic.value.DoubleValue
-54.603

@<SCITEGIC>MOL_PROPERTY
Grad RMS
SciTegic.value.DoubleValue
0.000000

@<SCITEGIC>MOL_PROPERTY
U
SciTegic.value.DoubleValue
11.258

@<SCITEGIC>MOL_PROPERTY
W
SciTegic.value.DoubleValue
-65.861

@<SCITEGIC>MOL_PROPERTY
W(PB)
SciTegic.value.DoubleValue
-67.702

@<SCITEGIC>MOL_PROPERTY
W(SA)
SciTegic.value.DoubleValue
1.841

@<SCITEGIC>MOL_PROPERTY
Valence
SciTegic.value.DoubleValue
8.169

@<SCITEGIC>MOL_PROPERTY
Coulomb
SciTegic.value.DoubleValue
2.735

@<SCITEGIC>MOL_PROPERTY
VdW
SciTegic.value.DoubleValue
0.355

@<SCITEGIC>MOL_PROPERTY
VdW6
SciTegic.value.DoubleValue
-6.245

@<SCITEGIC>MOL_PROPERTY
VdW12
SciTegic.value.DoubleValue
6.600

@<SCITEGIC>MOL_PROPERTY
Bond
SciTegic.value.DoubleValue
0.149

@<SCITEGIC>MOL_PROPERTY
Angle
SciTegic.value.DoubleValue
3.168

@<SCITEGIC>MOL_PROPERTY
Pdih
SciTegic.value.DoubleValue
4.840

@<SCITEGIC>MOL_PROPERTY
Idih
SciTegic.value.DoubleValue
0.011

@<SCITEGIC>MOL_PROPERTY
Tether
SciTegic.value.DoubleValue
0.000

@<TRIPOS>MOLECULE
guest-s18_confgen4.mol2 : confsearch ligand conformer 990
          16          15           1
SMALL
USER_CHARGES
 
@<TRIPOS>ATOM
       1    C1      19.169825   20.108403   20.686853 C.2        1 MOL1         0.6075
       2    O1      20.103635   20.417651   19.973045 O.co2      1 MOL1        -0.6830
       3    O2      18.291816   20.883070   21.012140 O.co2      1 MOL1        -0.6830
       4    C2      19.043446   18.650251   21.124446 C.3        1 MOL1        -0.2050
       5    H1      18.933303   18.060874   20.206703 H          1 MOL1         0.0710
       6    H2      18.111723   18.526824   21.689810 H          1 MOL1         0.0710
       7    C3      20.244915   18.094717   21.939824 C.3        1 MOL1        -0.1947
       8    H3      20.218007   16.998358   21.878782 H          1 MOL1         0.0712
       9    H4      21.189925   18.401010   21.470058 H          1 MOL1         0.0712
      10    C4      20.245550   18.484005   23.437828 C.3        1 MOL1        -0.1921
      11    H5      21.036631   17.914045   23.944414 H          1 MOL1         0.0712
      12    H6      19.298547   18.177790   23.903285 H          1 MOL1         0.0712
      13    C5      20.486706   19.986542   23.691818 C.3        1 MOL1        -0.2936
      14    H7      20.615768   20.178665   24.764758 H          1 MOL1         0.0724
      15    H8      19.638233   20.590905   23.348539 H          1 MOL1         0.0724
      16    H9      21.390123   20.333906   23.173643 H          1 MOL1         0.0724
@<TRIPOS>BOND
    1     1     2    1
    2     1     3    2
    3     1     4    1
    4     4     5    1
    5     4     6    1
    6     4     7    1
    7     7     8    1
    8     7     9    1
    9     7    10    1
   10    10    11    1
   11    10    12    1
   12    10    13    1
   13    13    14    1
   14    13    15    1
   15    13    16    1
@<TRIPOS>SUBSTRUCTURE
       1 MOL1            1 RESIDUE      1      MOL     
@<SCITEGIC>MOL_PROPERTY
VConf Rank
SciTegic.value.IntegerValue
990

@<SCITEGIC>MOL_PROPERTY
Conf_Id
SciTegic.value.IntegerValue
45

@<SCITEGIC>MOL_PROPERTY
Delta U+W
SciTegic.value.DoubleValue
2.303

@<SCITEGIC>MOL_PROPERTY
U+W
SciTegic.value.DoubleValue
-54.601

@<SCITEGIC>MOL_PROPERTY
Grad RMS
SciTegic.value.DoubleValue
0.000000

@<SCITEGIC>MOL_PROPERTY
U
SciTegic.value.DoubleValue
11.258

@<SCITEGIC>MOL_PROPERTY
W
SciTegic.value.DoubleValue
-65.860

@<SCITEGIC>MOL_PROPERTY
W(PB)
SciTegic.value.DoubleValue
-67.709

@<SCITEGIC>MOL_PROPERTY
W(SA)
SciTegic.value.DoubleValue
1.849

@<SCITEGIC>MOL_PROPERTY
Valence
SciTegic.value.DoubleValue
8.169

@<SCITEGIC>MOL_PROPERTY
Coulomb
SciTegic.value.DoubleValue
2.735

@<SCITEGIC>MOL_PROPERTY
VdW
SciTegic.value.DoubleValue
0.355

@<SCITEGIC>MOL_PROPERTY
VdW6
SciTegic.value.DoubleValue
-6.245

@<SCITEGIC>MOL_PROPERTY
VdW12
SciTegic.value.DoubleValue
6.600

@<SCITEGIC>MOL_PROPERTY
Bond
SciTegic.value.DoubleValue
0.149

@<SCITEGIC>MOL_PROPERTY
Angle
SciTegic.value.DoubleValue
3.168

@<SCITEGIC>MOL_PROPERTY
Pdih
SciTegic.value.DoubleValue
4.840

@<SCITEGIC>MOL_PROPERTY
Idih
SciTegic.value.DoubleValue
0.011

@<SCITEGIC>MOL_PROPERTY
Tether
SciTegic.value.DoubleValue
0.000

@<TRIPOS>MOLECULE
guest-s18_confgen4.mol2 : confsearch ligand conformer 991
          16          15           1
SMALL
USER_CHARGES
 
@<TRIPOS>ATOM
       1    C1      22.585369   18.464167   22.627815 C.2        1 MOL1         0.6075
       2    O1      22.319435   18.258243   23.795998 O.co2      1 MOL1        -0.6830
       3    O2      23.705562   18.347135   22.173081 O.co2      1 MOL1        -0.6830
       4    C2      21.480271   18.892067   21.660575 C.3        1 MOL1        -0.2050
       5    H1      21.454961   18.157497   20.846986 H          1 MOL1         0.0710
       6    H2      21.783849   19.848835   21.219441 H          1 MOL1         0.0710
       7    C3      20.066793   19.029116   22.286391 C.3        1 MOL1        -0.1947
       8    H3      19.770395   18.069146   22.731449 H          1 MOL1         0.0712
       9    H4      20.099622   19.762235   23.104271 H          1 MOL1         0.0712
      10    C4      19.016876   19.463217   21.242126 C.3        1 MOL1        -0.1921
      11    H5      18.981788   18.729937   20.424466 H          1 MOL1         0.0712
      12    H6      19.311203   20.424041   20.797503 H          1 MOL1         0.0712
      13    C5      17.615321   19.597573   21.869607 C.3        1 MOL1        -0.2936
      14    H7      17.282197   18.641753   22.294937 H          1 MOL1         0.0724
      15    H8      16.881248   19.906663   21.114133 H          1 MOL1         0.0724
      16    H9      17.614036   20.348355   22.670728 H          1 MOL1         0.0724
@<TRIPOS>BOND
    1     1     2    1
    2     1     3    2
    3     1     4    1
    4     4     5    1
    5     4     6    1
    6     4     7    1
    7     7     8    1
    8     7     9    1
    9     7    10    1
   10    10    11    1
   11    10    12    1
   12    10    13    1
   13    13    14    1
   14    13    15    1
   15    13    16    1
@<TRIPOS>SUBSTRUCTURE
       1 MOL1            1 RESIDUE      1      MOL     
@<SCITEGIC>MOL_PROPERTY
VConf Rank
SciTegic.value.IntegerValue
991

@<SCITEGIC>MOL_PROPERTY
Conf_Id
SciTegic.value.IntegerValue
0

@<SCITEGIC>MOL_PROPERTY
Delta U+W
SciTegic.value.DoubleValue
0.000

@<SCITEGIC>MOL_PROPERTY
U+W
SciTegic.value.DoubleValue
-56.904

@<SCITEGIC>MOL_PROPERTY
Grad RMS
SciTegic.value.DoubleValue
0.000000

@<SCITEGIC>MOL_PROPERTY
U
SciTegic.value.DoubleValue
7.329

@<SCITEGIC>MOL_PROPERTY
W
SciTegic.value.DoubleValue
-64.233

@<SCITEGIC>MOL_PROPERTY
W(PB)
SciTegic.value.DoubleValue
-66.148

@<SCITEGIC>MOL_PROPERTY
W(SA)
SciTegic.value.DoubleValue
1.915

@<SCITEGIC>MOL_PROPERTY
Valence
SciTegic.value.DoubleValue
6.755

@<SCITEGIC>MOL_PROPERTY
Coulomb
SciTegic.value.DoubleValue
-0.421

@<SCITEGIC>MOL_PROPERTY
VdW
SciTegic.value.DoubleValue
0.995

@<SCITEGIC>MOL_PROPERTY
VdW6
SciTegic.value.DoubleValue
-4.495

@<SCITEGIC>MOL_PROPERTY
VdW12
SciTegic.value.DoubleValue
5.490

@<SCITEGIC>MOL_PROPERTY
Bond
SciTegic.value.DoubleValue
0.106

@<SCITEGIC>MOL_PROPERTY
Angle
SciTegic.value.DoubleValue
2.715

@<SCITEGIC>MOL_PROPERTY
Pdih
SciTegic.value.DoubleValue
3.934

@<SCITEGIC>MOL_PROPERTY
Idih
SciTegic.value.DoubleValue
0.000

@<SCITEGIC>MOL_PROPERTY
Tether
SciTegic.value.DoubleValue
0.000

@<TRIPOS>MOLECULE
guest-s18_confgen4.mol2 : confsearch ligand conformer 992
          16          15           1
SMALL
USER_CHARGES
 
@<TRIPOS>ATOM
       1    C1      19.453046   21.105663   23.728839 C.2        1 MOL1         0.6075
       2    O1      18.391248   20.975550   24.304597 O.co2      1 MOL1        -0.6830
       3    O2      20.421811   21.649404   24.220453 O.co2      1 MOL1        -0.6830
       4    C2      19.582481   20.539588   22.319091 C.3        1 MOL1        -0.2050
       5    H1      20.278987   21.175186   21.758963 H          1 MOL1         0.0710
       6    H2      18.604898   20.619514   21.828382 H          1 MOL1         0.0710
       7    C3      20.069658   19.069747   22.302172 C.3        1 MOL1        -0.1947
       8    H3      21.043158   19.004108   22.807681 H          1 MOL1         0.0712
       9    H4      19.369029   18.448414   22.877164 H          1 MOL1         0.0712
      10    C4      20.191879   18.521845   20.865013 C.3        1 MOL1        -0.1921
      11    H5      20.892965   19.142523   20.289883 H          1 MOL1         0.0712
      12    H6      19.218406   18.586721   20.359367 H          1 MOL1         0.0712
      13    C5      20.677107   17.058775   20.855904 C.3        1 MOL1        -0.2936
      14    H7      19.977286   16.409467   21.398232 H          1 MOL1         0.0724
      15    H8      21.664205   16.969372   21.328257 H          1 MOL1         0.0724
      16    H9      20.758579   16.684714   19.827026 H          1 MOL1         0.0724
@<TRIPOS>BOND
    1     1     2    1
    2     1     3    2
    3     1     4    1
    4     4     5    1
    5     4     6    1
    6     4     7    1
    7     7     8    1
    8     7     9    1
    9     7    10    1
   10    10    11    1
   11    10    12    1
   12    10    13    1
   13    13    14    1
   14    13    15    1
   15    13    16    1
@<TRIPOS>SUBSTRUCTURE
       1 MOL1            1 RESIDUE      1      MOL     
@<SCITEGIC>MOL_PROPERTY
VConf Rank
SciTegic.value.IntegerValue
992

@<SCITEGIC>MOL_PROPERTY
Conf_Id
SciTegic.value.IntegerValue
22

@<SCITEGIC>MOL_PROPERTY
Delta U+W
SciTegic.value.DoubleValue
-1.185

@<SCITEGIC>MOL_PROPERTY
U+W
SciTegic.value.DoubleValue
-58.089

@<SCITEGIC>MOL_PROPERTY
Grad RMS
SciTegic.value.DoubleValue
0.000000

@<SCITEGIC>MOL_PROPERTY
U
SciTegic.value.DoubleValue
6.298

@<SCITEGIC>MOL_PROPERTY
W
SciTegic.value.DoubleValue
-64.387

@<SCITEGIC>MOL_PROPERTY
W(PB)
SciTegic.value.DoubleValue
-66.329

@<SCITEGIC>MOL_PROPERTY
W(SA)
SciTegic.value.DoubleValue
1.942

@<SCITEGIC>MOL_PROPERTY
Valence
SciTegic.value.DoubleValue
6.246

@<SCITEGIC>MOL_PROPERTY
Coulomb
SciTegic.value.DoubleValue
-0.408

@<SCITEGIC>MOL_PROPERTY
VdW
SciTegic.value.DoubleValue
0.460

@<SCITEGIC>MOL_PROPERTY
VdW6
SciTegic.value.DoubleValue
-4.207

@<SCITEGIC>MOL_PROPERTY
VdW12
SciTegic.value.DoubleValue
4.667

@<SCITEGIC>MOL_PROPERTY
Bond
SciTegic.value.DoubleValue
0.072

@<SCITEGIC>MOL_PROPERTY
Angle
SciTegic.value.DoubleValue
2.246

@<SCITEGIC>MOL_PROPERTY
Pdih
SciTegic.value.DoubleValue
3.928

@<SCITEGIC>MOL_PROPERTY
Idih
SciTegic.value.DoubleValue
0.001

@<SCITEGIC>MOL_PROPERTY
Tether
SciTegic.value.DoubleValue
0.000

@<TRIPOS>MOLECULE
guest-s18_confgen4.mol2 : confsearch ligand conformer 993
          16          15           1
SMALL
USER_CHARGES
 
@<TRIPOS>ATOM
       1    C1      19.565141   16.599649   22.229733 C.2        1 MOL1         0.6075
       2    O1      18.631908   16.144601   22.860606 O.co2      1 MOL1        -0.6830
       3    O2      20.572386   15.970768   21.972977 O.co2      1 MOL1        -0.6830
       4    C2      19.475410   18.044688   21.751840 C.3        1 MOL1        -0.2050
       5    H1      18.422866   18.268858   21.540977 H          1 MOL1         0.0710
       6    H2      20.019692   18.117656   20.803394 H          1 MOL1         0.0710
       7    C3      20.040533   19.055211   22.783574 C.3        1 MOL1        -0.1947
       8    H3      19.534705   18.897276   23.746186 H          1 MOL1         0.0712
       9    H4      21.105829   18.847367   22.954609 H          1 MOL1         0.0712
      10    C4      19.857566   20.531627   22.362709 C.3        1 MOL1        -0.1921
      11    H5      20.181661   21.177563   23.190379 H          1 MOL1         0.0712
      12    H6      18.791129   20.742805   22.203034 H          1 MOL1         0.0712
      13    C5      20.656401   20.906986   21.096256 C.3        1 MOL1        -0.2936
      14    H7      20.288735   20.366043   20.215357 H          1 MOL1         0.0724
      15    H8      21.722609   20.677487   21.221878 H          1 MOL1         0.0724
      16    H9      20.564147   21.980989   20.888857 H          1 MOL1         0.0724
@<TRIPOS>BOND
    1     1     2    1
    2     1     3    2
    3     1     4    1
    4     4     5    1
    5     4     6    1
    6     4     7    1
    7     7     8    1
    8     7     9    1
    9     7    10    1
   10    10    11    1
   11    10    12    1
   12    10    13    1
   13    13    14    1
   14    13    15    1
   15    13    16    1
@<TRIPOS>SUBSTRUCTURE
       1 MOL1            1 RESIDUE      1      MOL     
@<SCITEGIC>MOL_PROPERTY
VConf Rank
SciTegic.value.IntegerValue
993

@<SCITEGIC>MOL_PROPERTY
Conf_Id
SciTegic.value.IntegerValue
36

@<SCITEGIC>MOL_PROPERTY
Delta U+W
SciTegic.value.DoubleValue
-0.427

@<SCITEGIC>MOL_PROPERTY
U+W
SciTegic.value.DoubleValue
-57.331

@<SCITEGIC>MOL_PROPERTY
Grad RMS
SciTegic.value.DoubleValue
0.000000

@<SCITEGIC>MOL_PROPERTY
U
SciTegic.value.DoubleValue
7.263

@<SCITEGIC>MOL_PROPERTY
W
SciTegic.value.DoubleValue
-64.594

@<SCITEGIC>MOL_PROPERTY
W(PB)
SciTegic.value.DoubleValue
-66.513

@<SCITEGIC>MOL_PROPERTY
W(SA)
SciTegic.value.DoubleValue
1.920

@<SCITEGIC>MOL_PROPERTY
Valence
SciTegic.value.DoubleValue
6.734

@<SCITEGIC>MOL_PROPERTY
Coulomb
SciTegic.value.DoubleValue
-0.068

@<SCITEGIC>MOL_PROPERTY
VdW
SciTegic.value.DoubleValue
0.598

@<SCITEGIC>MOL_PROPERTY
VdW6
SciTegic.value.DoubleValue
-4.819

@<SCITEGIC>MOL_PROPERTY
VdW12
SciTegic.value.DoubleValue
5.417

@<SCITEGIC>MOL_PROPERTY
Bond
SciTegic.value.DoubleValue
0.107

@<SCITEGIC>MOL_PROPERTY
Angle
SciTegic.value.DoubleValue
2.469

@<SCITEGIC>MOL_PROPERTY
Pdih
SciTegic.value.DoubleValue
4.157

@<SCITEGIC>MOL_PROPERTY
Idih
SciTegic.value.DoubleValue
0.001

@<SCITEGIC>MOL_PROPERTY
Tether
SciTegic.value.DoubleValue
0.000

@<TRIPOS>MOLECULE
guest-s18_confgen4.mol2 : confsearch ligand conformer 994
          16          15           1
SMALL
USER_CHARGES
 
@<TRIPOS>ATOM
       1    C1      18.008804   19.746856   20.405458 C.2        1 MOL1         0.6075
       2    O1      18.385800   19.828545   19.253435 O.co2      1 MOL1        -0.6830
       3    O2      16.972380   20.235626   20.809097 O.co2      1 MOL1        -0.6830
       4    C2      18.893726   19.008278   21.403451 C.3        1 MOL1        -0.2050
       5    H1      19.402420   18.200328   20.865341 H          1 MOL1         0.0710
       6    H2      18.244452   18.541124   22.153636 H          1 MOL1         0.0710
       7    C3      19.925732   19.937191   22.094161 C.3        1 MOL1        -0.1947
       8    H3      20.597254   20.365796   21.337414 H          1 MOL1         0.0712
       9    H4      19.391037   20.782308   22.549471 H          1 MOL1         0.0712
      10    C4      20.756775   19.227860   23.188065 C.3        1 MOL1        -0.1921
      11    H5      20.085965   18.809301   23.951087 H          1 MOL1         0.0712
      12    H6      21.379908   19.975204   23.698446 H          1 MOL1         0.0712
      13    C5      21.669965   18.114188   22.632412 C.3        1 MOL1        -0.2936
      14    H7      21.083719   17.287557   22.211961 H          1 MOL1         0.0724
      15    H8      22.300825   17.701656   23.430435 H          1 MOL1         0.0724
      16    H9      22.330523   18.503322   21.846608 H          1 MOL1         0.0724
@<TRIPOS>BOND
    1     1     2    1
    2     1     3    2
    3     1     4    1
    4     4     5    1
    5     4     6    1
    6     4     7    1
    7     7     8    1
    8     7     9    1
    9     7    10    1
   10    10    11    1
   11    10    12    1
   12    10    13    1
   13    13    14    1
   14    13    15    1
   15    13    16    1
@<TRIPOS>SUBSTRUCTURE
       1 MOL1            1 RESIDUE      1      MOL     
@<SCITEGIC>MOL_PROPERTY
VConf Rank
SciTegic.value.IntegerValue
994

@<SCITEGIC>MOL_PROPERTY
Conf_Id
SciTegic.value.IntegerValue
17

@<SCITEGIC>MOL_PROPERTY
Delta U+W
SciTegic.value.DoubleValue
-0.432

@<SCITEGIC>MOL_PROPERTY
U+W
SciTegic.value.DoubleValue
-57.336

@<SCITEGIC>MOL_PROPERTY
Grad RMS
SciTegic.value.DoubleValue
0.000000

@<SCITEGIC>MOL_PROPERTY
U
SciTegic.value.DoubleValue
7.263

@<SCITEGIC>MOL_PROPERTY
W
SciTegic.value.DoubleValue
-64.599

@<SCITEGIC>MOL_PROPERTY
W(PB)
SciTegic.value.DoubleValue
-66.503

@<SCITEGIC>MOL_PROPERTY
W(SA)
SciTegic.value.DoubleValue
1.904

@<SCITEGIC>MOL_PROPERTY
Valence
SciTegic.value.DoubleValue
6.734

@<SCITEGIC>MOL_PROPERTY
Coulomb
SciTegic.value.DoubleValue
-0.068

@<SCITEGIC>MOL_PROPERTY
VdW
SciTegic.value.DoubleValue
0.598

@<SCITEGIC>MOL_PROPERTY
VdW6
SciTegic.value.DoubleValue
-4.819

@<SCITEGIC>MOL_PROPERTY
VdW12
SciTegic.value.DoubleValue
5.417

@<SCITEGIC>MOL_PROPERTY
Bond
SciTegic.value.DoubleValue
0.107

@<SCITEGIC>MOL_PROPERTY
Angle
SciTegic.value.DoubleValue
2.469

@<SCITEGIC>MOL_PROPERTY
Pdih
SciTegic.value.DoubleValue
4.157

@<SCITEGIC>MOL_PROPERTY
Idih
SciTegic.value.DoubleValue
0.001

@<SCITEGIC>MOL_PROPERTY
Tether
SciTegic.value.DoubleValue
0.000

@<TRIPOS>MOLECULE
guest-s18_confgen4.mol2 : confsearch ligand conformer 995
          16          15           1
SMALL
USER_CHARGES
 
@<TRIPOS>ATOM
       1    C1      22.044588   18.356538   23.255446 C.2        1 MOL1         0.6075
       2    O1      21.846308   18.160469   24.438064 O.co2      1 MOL1        -0.6830
       3    O2      22.589347   17.553584   22.524170 O.co2      1 MOL1        -0.6830
       4    C2      21.606567   19.693714   22.664185 C.3        1 MOL1        -0.2050
       5    H1      22.148367   19.855794   21.724363 H          1 MOL1         0.0710
       6    H2      21.930062   20.480277   23.356214 H          1 MOL1         0.0710
       7    C3      20.078343   19.809880   22.427391 C.3        1 MOL1        -0.1947
       8    H3      19.548022   19.617119   23.370379 H          1 MOL1         0.0712
       9    H4      19.840260   20.841851   22.135998 H          1 MOL1         0.0712
      10    C4      19.571440   18.843159   21.335291 C.3        1 MOL1        -0.1921
      11    H5      19.786087   17.805277   21.625899 H          1 MOL1         0.0712
      12    H6      20.111331   19.028736   20.396433 H          1 MOL1         0.0712
      13    C5      18.056931   19.002804   21.096292 C.3        1 MOL1        -0.2936
      14    H7      17.490656   18.792308   22.013066 H          1 MOL1         0.0724
      15    H8      17.713027   18.308582   20.318538 H          1 MOL1         0.0724
      16    H9      17.815766   20.023190   20.770612 H          1 MOL1         0.0724
@<TRIPOS>BOND
    1     1     2    1
    2     1     3    2
    3     1     4    1
    4     4     5    1
    5     4     6    1
    6     4     7    1
    7     7     8    1
    8     7     9    1
    9     7    10    1
   10    10    11    1
   11    10    12    1
   12    10    13    1
   13    13    14    1
   14    13    15    1
   15    13    16    1
@<TRIPOS>SUBSTRUCTURE
       1 MOL1            1 RESIDUE      1      MOL     
@<SCITEGIC>MOL_PROPERTY
VConf Rank
SciTegic.value.IntegerValue
995

@<SCITEGIC>MOL_PROPERTY
Conf_Id
SciTegic.value.IntegerValue
19

@<SCITEGIC>MOL_PROPERTY
Delta U+W
SciTegic.value.DoubleValue
0.048

@<SCITEGIC>MOL_PROPERTY
U+W
SciTegic.value.DoubleValue
-56.856

@<SCITEGIC>MOL_PROPERTY
Grad RMS
SciTegic.value.DoubleValue
0.000000

@<SCITEGIC>MOL_PROPERTY
U
SciTegic.value.DoubleValue
8.276

@<SCITEGIC>MOL_PROPERTY
W
SciTegic.value.DoubleValue
-65.132

@<SCITEGIC>MOL_PROPERTY
W(PB)
SciTegic.value.DoubleValue
-67.031

@<SCITEGIC>MOL_PROPERTY
W(SA)
SciTegic.value.DoubleValue
1.899

@<SCITEGIC>MOL_PROPERTY
Valence
SciTegic.value.DoubleValue
6.513

@<SCITEGIC>MOL_PROPERTY
Coulomb
SciTegic.value.DoubleValue
1.428

@<SCITEGIC>MOL_PROPERTY
VdW
SciTegic.value.DoubleValue
0.335

@<SCITEGIC>MOL_PROPERTY
VdW6
SciTegic.value.DoubleValue
-5.021

@<SCITEGIC>MOL_PROPERTY
VdW12
SciTegic.value.DoubleValue
5.356

@<SCITEGIC>MOL_PROPERTY
Bond
SciTegic.value.DoubleValue
0.092

@<SCITEGIC>MOL_PROPERTY
Angle
SciTegic.value.DoubleValue
2.417

@<SCITEGIC>MOL_PROPERTY
Pdih
SciTegic.value.DoubleValue
4.003

@<SCITEGIC>MOL_PROPERTY
Idih
SciTegic.value.DoubleValue
0.001

@<SCITEGIC>MOL_PROPERTY
Tether
SciTegic.value.DoubleValue
0.000

@<TRIPOS>MOLECULE
guest-s18_confgen4.mol2 : confsearch ligand conformer 996
          16          15           1
SMALL
USER_CHARGES
 
@<TRIPOS>ATOM
       1    C1      20.639999   18.272457   24.143374 C.2        1 MOL1         0.6075
       2    O1      19.768814   17.741417   24.803203 O.co2      1 MOL1        -0.6830
       3    O2      21.423424   19.083931   24.595058 O.co2      1 MOL1        -0.6830
       4    C2      20.770267   17.880119   22.674157 C.3        1 MOL1        -0.2050
       5    H1      20.706760   16.786858   22.619549 H          1 MOL1         0.0710
       6    H2      21.772353   18.157331   22.324781 H          1 MOL1         0.0710
       7    C3      19.690648   18.507282   21.754302 C.3        1 MOL1        -0.1947
       8    H3      19.775267   18.064869   20.752469 H          1 MOL1         0.0712
       9    H4      18.692815   18.244991   22.132659 H          1 MOL1         0.0712
      10    C4      19.821854   20.041919   21.645373 C.3        1 MOL1        -0.1921
      11    H5      20.824219   20.303095   21.278729 H          1 MOL1         0.0712
      12    H6      19.718263   20.497471   22.640091 H          1 MOL1         0.0712
      13    C5      18.758956   20.635427   20.699673 C.3        1 MOL1        -0.2936
      14    H7      18.859932   20.223606   19.686944 H          1 MOL1         0.0724
      15    H8      18.865516   21.726061   20.634254 H          1 MOL1         0.0724
      16    H9      17.745711   20.414843   21.060404 H          1 MOL1         0.0724
@<TRIPOS>BOND
    1     1     2    1
    2     1     3    2
    3     1     4    1
    4     4     5    1
    5     4     6    1
    6     4     7    1
    7     7     8    1
    8     7     9    1
    9     7    10    1
   10    10    11    1
   11    10    12    1
   12    10    13    1
   13    13    14    1
   14    13    15    1
   15    13    16    1
@<TRIPOS>SUBSTRUCTURE
       1 MOL1            1 RESIDUE      1      MOL     
@<SCITEGIC>MOL_PROPERTY
VConf Rank
SciTegic.value.IntegerValue
996

@<SCITEGIC>MOL_PROPERTY
Conf_Id
SciTegic.value.IntegerValue
20

@<SCITEGIC>MOL_PROPERTY
Delta U+W
SciTegic.value.DoubleValue
-0.010

@<SCITEGIC>MOL_PROPERTY
U+W
SciTegic.value.DoubleValue
-56.914

@<SCITEGIC>MOL_PROPERTY
Grad RMS
SciTegic.value.DoubleValue
0.000000

@<SCITEGIC>MOL_PROPERTY
U
SciTegic.value.DoubleValue
8.277

@<SCITEGIC>MOL_PROPERTY
W
SciTegic.value.DoubleValue
-65.191

@<SCITEGIC>MOL_PROPERTY
W(PB)
SciTegic.value.DoubleValue
-67.081

@<SCITEGIC>MOL_PROPERTY
W(SA)
SciTegic.value.DoubleValue
1.890

@<SCITEGIC>MOL_PROPERTY
Valence
SciTegic.value.DoubleValue
6.513

@<SCITEGIC>MOL_PROPERTY
Coulomb
SciTegic.value.DoubleValue
1.429

@<SCITEGIC>MOL_PROPERTY
VdW
SciTegic.value.DoubleValue
0.335

@<SCITEGIC>MOL_PROPERTY
VdW6
SciTegic.value.DoubleValue
-5.021

@<SCITEGIC>MOL_PROPERTY
VdW12
SciTegic.value.DoubleValue
5.356

@<SCITEGIC>MOL_PROPERTY
Bond
SciTegic.value.DoubleValue
0.092

@<SCITEGIC>MOL_PROPERTY
Angle
SciTegic.value.DoubleValue
2.417

@<SCITEGIC>MOL_PROPERTY
Pdih
SciTegic.value.DoubleValue
4.002

@<SCITEGIC>MOL_PROPERTY
Idih
SciTegic.value.DoubleValue
0.001

@<SCITEGIC>MOL_PROPERTY
Tether
SciTegic.value.DoubleValue
0.000

@<TRIPOS>MOLECULE
guest-s18_confgen4.mol2 : confsearch ligand conformer 997
          16          15           1
SMALL
USER_CHARGES
 
@<TRIPOS>ATOM
       1    C1      18.167885   20.016295   21.165974 C.2        1 MOL1         0.6075
       2    O1      17.700064   21.100069   21.454704 O.co2      1 MOL1        -0.6830
       3    O2      17.493517   19.021981   20.984681 O.co2      1 MOL1        -0.6830
       4    C2      19.680151   19.909263   20.988940 C.3        1 MOL1        -0.2050
       5    H1      19.986471   20.715408   20.312051 H          1 MOL1         0.0710
       6    H2      19.908569   18.968874   20.474410 H          1 MOL1         0.0710
       7    C3      20.484782   20.018332   22.313081 C.3        1 MOL1        -0.1947
       8    H3      21.558827   20.012098   22.083385 H          1 MOL1         0.0712
       9    H4      20.274186   20.993034   22.774558 H          1 MOL1         0.0712
      10    C4      20.177470   18.902427   23.339875 C.3        1 MOL1        -0.1921
      11    H5      19.111094   18.920511   23.604666 H          1 MOL1         0.0712
      12    H6      20.729512   19.113884   24.265976 H          1 MOL1         0.0712
      13    C5      20.562811   17.493445   22.841153 C.3        1 MOL1        -0.2936
      14    H7      19.944395   17.190839   21.986473 H          1 MOL1         0.0724
      15    H8      20.415128   16.751409   23.636409 H          1 MOL1         0.0724
      16    H9      21.616737   17.457878   22.536125 H          1 MOL1         0.0724
@<TRIPOS>BOND
    1     1     2    1
    2     1     3    2
    3     1     4    1
    4     4     5    1
    5     4     6    1
    6     4     7    1
    7     7     8    1
    8     7     9    1
    9     7    10    1
   10    10    11    1
   11    10    12    1
   12    10    13    1
   13    13    14    1
   14    13    15    1
   15    13    16    1
@<TRIPOS>SUBSTRUCTURE
       1 MOL1            1 RESIDUE      1      MOL     
@<SCITEGIC>MOL_PROPERTY
VConf Rank
SciTegic.value.IntegerValue
997

@<SCITEGIC>MOL_PROPERTY
Conf_Id
SciTegic.value.IntegerValue
37

@<SCITEGIC>MOL_PROPERTY
Delta U+W
SciTegic.value.DoubleValue
1.063

@<SCITEGIC>MOL_PROPERTY
U+W
SciTegic.value.DoubleValue
-55.841

@<SCITEGIC>MOL_PROPERTY
Grad RMS
SciTegic.value.DoubleValue
0.000000

@<SCITEGIC>MOL_PROPERTY
U
SciTegic.value.DoubleValue
9.719

@<SCITEGIC>MOL_PROPERTY
W
SciTegic.value.DoubleValue
-65.560

@<SCITEGIC>MOL_PROPERTY
W(PB)
SciTegic.value.DoubleValue
-67.414

@<SCITEGIC>MOL_PROPERTY
W(SA)
SciTegic.value.DoubleValue
1.854

@<SCITEGIC>MOL_PROPERTY
Valence
SciTegic.value.DoubleValue
7.002

@<SCITEGIC>MOL_PROPERTY
Coulomb
SciTegic.value.DoubleValue
2.402

@<SCITEGIC>MOL_PROPERTY
VdW
SciTegic.value.DoubleValue
0.314

@<SCITEGIC>MOL_PROPERTY
VdW6
SciTegic.value.DoubleValue
-5.861

@<SCITEGIC>MOL_PROPERTY
VdW12
SciTegic.value.DoubleValue
6.175

@<SCITEGIC>MOL_PROPERTY
Bond
SciTegic.value.DoubleValue
0.134

@<SCITEGIC>MOL_PROPERTY
Angle
SciTegic.value.DoubleValue
2.733

@<SCITEGIC>MOL_PROPERTY
Pdih
SciTegic.value.DoubleValue
4.133

@<SCITEGIC>MOL_PROPERTY
Idih
SciTegic.value.DoubleValue
0.002

@<SCITEGIC>MOL_PROPERTY
Tether
SciTegic.value.DoubleValue
0.000

@<TRIPOS>MOLECULE
guest-s18_confgen4.mol2 : confsearch ligand conformer 998
          16          15           1
SMALL
USER_CHARGES
 
@<TRIPOS>ATOM
       1    C1      18.116602   18.736434   21.560725 C.2        1 MOL1         0.6075
       2    O1      17.340761   19.607348   21.219603 O.co2      1 MOL1        -0.6830
       3    O2      18.271782   17.699196   20.947245 O.co2      1 MOL1        -0.6830
       4    C2      18.911446   18.944159   22.847122 C.3        1 MOL1        -0.2050
       5    H1      19.341261   17.983840   23.154200 H          1 MOL1         0.0710
       6    H2      18.197177   19.228300   23.628765 H          1 MOL1         0.0710
       7    C3      20.016734   20.030552   22.743353 C.3        1 MOL1        -0.1947
       8    H3      19.545676   20.989705   22.487454 H          1 MOL1         0.0712
       9    H4      20.479857   20.168482   23.729691 H          1 MOL1         0.0712
      10    C4      21.118926   19.721621   21.702330 C.3        1 MOL1        -0.1921
      11    H5      21.801268   20.580900   21.645956 H          1 MOL1         0.0712
      12    H6      20.672019   19.615749   20.704000 H          1 MOL1         0.0712
      13    C5      21.937383   18.457136   22.039445 C.3        1 MOL1        -0.2936
      14    H7      22.366204   18.522436   23.047867 H          1 MOL1         0.0724
      15    H8      22.763589   18.333896   21.327366 H          1 MOL1         0.0724
      16    H9      21.315611   17.554395   21.985176 H          1 MOL1         0.0724
@<TRIPOS>BOND
    1     1     2    1
    2     1     3    2
    3     1     4    1
    4     4     5    1
    5     4     6    1
    6     4     7    1
    7     7     8    1
    8     7     9    1
    9     7    10    1
   10    10    11    1
   11    10    12    1
   12    10    13    1
   13    13    14    1
   14    13    15    1
   15    13    16    1
@<TRIPOS>SUBSTRUCTURE
       1 MOL1            1 RESIDUE      1      MOL     
@<SCITEGIC>MOL_PROPERTY
VConf Rank
SciTegic.value.IntegerValue
998

@<SCITEGIC>MOL_PROPERTY
Conf_Id
SciTegic.value.IntegerValue
39

@<SCITEGIC>MOL_PROPERTY
Delta U+W
SciTegic.value.DoubleValue
1.129

@<SCITEGIC>MOL_PROPERTY
U+W
SciTegic.value.DoubleValue
-55.775

@<SCITEGIC>MOL_PROPERTY
Grad RMS
SciTegic.value.DoubleValue
0.000000

@<SCITEGIC>MOL_PROPERTY
U
SciTegic.value.DoubleValue
9.718

@<SCITEGIC>MOL_PROPERTY
W
SciTegic.value.DoubleValue
-65.493

@<SCITEGIC>MOL_PROPERTY
W(PB)
SciTegic.value.DoubleValue
-67.361

@<SCITEGIC>MOL_PROPERTY
W(SA)
SciTegic.value.DoubleValue
1.869

@<SCITEGIC>MOL_PROPERTY
Valence
SciTegic.value.DoubleValue
7.002

@<SCITEGIC>MOL_PROPERTY
Coulomb
SciTegic.value.DoubleValue
2.402

@<SCITEGIC>MOL_PROPERTY
VdW
SciTegic.value.DoubleValue
0.314

@<SCITEGIC>MOL_PROPERTY
VdW6
SciTegic.value.DoubleValue
-5.861

@<SCITEGIC>MOL_PROPERTY
VdW12
SciTegic.value.DoubleValue
6.175

@<SCITEGIC>MOL_PROPERTY
Bond
SciTegic.value.DoubleValue
0.134

@<SCITEGIC>MOL_PROPERTY
Angle
SciTegic.value.DoubleValue
2.734

@<SCITEGIC>MOL_PROPERTY
Pdih
SciTegic.value.DoubleValue
4.133

@<SCITEGIC>MOL_PROPERTY
Idih
SciTegic.value.DoubleValue
0.002

@<SCITEGIC>MOL_PROPERTY
Tether
SciTegic.value.DoubleValue
0.000

@<TRIPOS>MOLECULE
guest-s18_confgen4.mol2 : confsearch ligand conformer 999
          16          15           1
SMALL
USER_CHARGES
 
@<TRIPOS>ATOM
       1    C1      20.986303   18.554010   23.857406 C.2        1 MOL1         0.6075
       2    O1      21.779483   17.677271   23.576314 O.co2      1 MOL1        -0.6830
       3    O2      20.258344   18.510462   24.829690 O.co2      1 MOL1        -0.6830
       4    C2      20.968883   19.814300   22.994260 C.3        1 MOL1        -0.2050
       5    H1      21.735001   19.723496   22.214647 H          1 MOL1         0.0710
       6    H2      21.281054   20.638980   23.645568 H          1 MOL1         0.0710
       7    C3      19.594103   20.165587   22.358996 C.3        1 MOL1        -0.1947
       8    H3      18.796662   20.054572   23.106862 H          1 MOL1         0.0712
       9    H4      19.608240   21.229763   22.087366 H          1 MOL1         0.0712
      10    C4      19.244499   19.358203   21.085627 C.3        1 MOL1        -0.1921
      11    H5      20.044964   19.470210   20.341355 H          1 MOL1         0.0712
      12    H6      18.341675   19.793507   20.635392 H          1 MOL1         0.0712
      13    C5      18.985919   17.860055   21.348257 C.3        1 MOL1        -0.2936
      14    H7      19.906200   17.341665   21.643815 H          1 MOL1         0.0724
      15    H8      18.608633   17.370779   20.441045 H          1 MOL1         0.0724
      16    H9      18.241326   17.721958   22.143141 H          1 MOL1         0.0724
@<TRIPOS>BOND
    1     1     2    1
    2     1     3    2
    3     1     4    1
    4     4     5    1
    5     4     6    1
    6     4     7    1
    7     7     8    1
    8     7     9    1
    9     7    10    1
   10    10    11    1
   11    10    12    1
   12    10    13    1
   13    13    14    1
   14    13    15    1
   15    13    16    1
@<TRIPOS>SUBSTRUCTURE
       1 MOL1            1 RESIDUE      1      MOL     
@<SCITEGIC>MOL_PROPERTY
VConf Rank
SciTegic.value.IntegerValue
999

@<SCITEGIC>MOL_PROPERTY
Conf_Id
SciTegic.value.IntegerValue
47

@<SCITEGIC>MOL_PROPERTY
Delta U+W
SciTegic.value.DoubleValue
2.301

@<SCITEGIC>MOL_PROPERTY
U+W
SciTegic.value.DoubleValue
-54.603

@<SCITEGIC>MOL_PROPERTY
Grad RMS
SciTegic.value.DoubleValue
0.000000

@<SCITEGIC>MOL_PROPERTY
U
SciTegic.value.DoubleValue
11.258

@<SCITEGIC>MOL_PROPERTY
W
SciTegic.value.DoubleValue
-65.861

@<SCITEGIC>MOL_PROPERTY
W(PB)
SciTegic.value.DoubleValue
-67.702

@<SCITEGIC>MOL_PROPERTY
W(SA)
SciTegic.value.DoubleValue
1.841

@<SCITEGIC>MOL_PROPERTY
Valence
SciTegic.value.DoubleValue
8.169

@<SCITEGIC>MOL_PROPERTY
Coulomb
SciTegic.value.DoubleValue
2.735

@<SCITEGIC>MOL_PROPERTY
VdW
SciTegic.value.DoubleValue
0.355

@<SCITEGIC>MOL_PROPERTY
VdW6
SciTegic.value.DoubleValue
-6.245

@<SCITEGIC>MOL_PROPERTY
VdW12
SciTegic.value.DoubleValue
6.600

@<SCITEGIC>MOL_PROPERTY
Bond
SciTegic.value.DoubleValue
0.149

@<SCITEGIC>MOL_PROPERTY
Angle
SciTegic.value.DoubleValue
3.168

@<SCITEGIC>MOL_PROPERTY
Pdih
SciTegic.value.DoubleValue
4.840

@<SCITEGIC>MOL_PROPERTY
Idih
SciTegic.value.DoubleValue
0.011

@<SCITEGIC>MOL_PROPERTY
Tether
SciTegic.value.DoubleValue
0.000

@<TRIPOS>MOLECULE
guest-s18_confgen4.mol2 : confsearch ligand conformer 1000
          16          15           1
SMALL
USER_CHARGES
 
@<TRIPOS>ATOM
       1    C1      18.303421   17.938923   21.905088 C.2        1 MOL1         0.6075
       2    O1      18.022096   17.342346   22.925926 O.co2      1 MOL1        -0.6830
       3    O2      18.396131   17.400070   20.819796 O.co2      1 MOL1        -0.6830
       4    C2      18.460224   19.457008   21.972157 C.3        1 MOL1        -0.2050
       5    H1      17.491897   19.853309   22.299325 H          1 MOL1         0.0710
       6    H2      18.630982   19.843179   20.959886 H          1 MOL1         0.0710
       7    C3      19.566873   19.968702   22.936774 C.3        1 MOL1        -0.1947
       8    H3      19.349098   21.018343   23.176111 H          1 MOL1         0.0712
       9    H4      19.514448   19.423739   23.889563 H          1 MOL1         0.0712
      10    C4      21.003919   19.903334   22.365647 C.3        1 MOL1        -0.1921
      11    H5      21.676347   20.431003   23.056083 H          1 MOL1         0.0712
      12    H6      21.051662   20.447649   21.412404 H          1 MOL1         0.0712
      13    C5      21.532872   18.467246   22.170338 C.3        1 MOL1        -0.2936
      14    H7      22.596264   18.483399   21.898851 H          1 MOL1         0.0724
      15    H8      20.995391   17.949452   21.366595 H          1 MOL1         0.0724
      16    H9      21.426530   17.879314   23.091401 H          1 MOL1         0.0724
@<TRIPOS>BOND
    1     1     2    1
    2     1     3    2
    3     1     4    1
    4     4     5    1
    5     4     6    1
    6     4     7    1
    7     7     8    1
    8     7     9    1
    9     7    10    1
   10    10    11    1
   11    10    12    1
   12    10    13    1
   13    13    14    1
   14    13    15    1
   15    13    16    1
@<TRIPOS>SUBSTRUCTURE
       1 MOL1            1 RESIDUE      1      MOL     
@<SCITEGIC>MOL_PROPERTY
VConf Rank
SciTegic.value.IntegerValue
1000

@<SCITEGIC>MOL_PROPERTY
Conf_Id
SciTegic.value.IntegerValue
45

@<SCITEGIC>MOL_PROPERTY
Delta U+W
SciTegic.value.DoubleValue
2.303

@<SCITEGIC>MOL_PROPERTY
U+W
SciTegic.value.DoubleValue
-54.601

@<SCITEGIC>MOL_PROPERTY
Grad RMS
SciTegic.value.DoubleValue
0.000000

@<SCITEGIC>MOL_PROPERTY
U
SciTegic.value.DoubleValue
11.258

@<SCITEGIC>MOL_PROPERTY
W
SciTegic.value.DoubleValue
-65.860

@<SCITEGIC>MOL_PROPERTY
W(PB)
SciTegic.value.DoubleValue
-67.709

@<SCITEGIC>MOL_PROPERTY
W(SA)
SciTegic.value.DoubleValue
1.849

@<SCITEGIC>MOL_PROPERTY
Valence
SciTegic.value.DoubleValue
8.169

@<SCITEGIC>MOL_PROPERTY
Coulomb
SciTegic.value.DoubleValue
2.735

@<SCITEGIC>MOL_PROPERTY
VdW
SciTegic.value.DoubleValue
0.355

@<SCITEGIC>MOL_PROPERTY
VdW6
SciTegic.value.DoubleValue
-6.245

@<SCITEGIC>MOL_PROPERTY
VdW12
SciTegic.value.DoubleValue
6.600

@<SCITEGIC>MOL_PROPERTY
Bond
SciTegic.value.DoubleValue
0.149

@<SCITEGIC>MOL_PROPERTY
Angle
SciTegic.value.DoubleValue
3.168

@<SCITEGIC>MOL_PROPERTY
Pdih
SciTegic.value.DoubleValue
4.840

@<SCITEGIC>MOL_PROPERTY
Idih
SciTegic.value.DoubleValue
0.011

@<SCITEGIC>MOL_PROPERTY
Tether
SciTegic.value.DoubleValue
0.000

