@<TRIPOS>MOLECULE
CD_guest-s19_fast_vm2_single.mol2 : feprocess host+ligand conformer 1
         143         148           2
SMALL
USER_CHARGES
 
@<TRIPOS>ATOM
       1    C1      16.099431   15.109964   21.608693 C.3        1 MOL1         0.2972
       2    H1      15.018828   14.918080   21.621756 H          1 MOL1         0.0751
       3    O1      16.367878   16.522876   21.678166 O.3        1 MOL1        -0.3740
       4    C2      16.759538   14.382557   22.808866 C.3        1 MOL1         0.1003
       5    H2      16.477854   13.325111   22.723121 H          1 MOL1         0.0783
       6    O2      16.274013   14.894763   24.058762 O.3        1 MOL1        -0.5519
       7    H3      16.601627   15.834240   24.126715 H          1 MOL1         0.3769
       8    C3      18.303752   14.459882   22.794646 C.3        1 MOL1         0.1053
       9    H4      18.588458   15.470792   23.104232 H          1 MOL1         0.0783
      10    O3      18.800534   13.505073   23.739555 O.3        1 MOL1        -0.5519
      11    H5      18.220583   13.607591   24.528685 H          1 MOL1         0.3769
      12    C4      18.921252   14.202417   21.394863 C.3        1 MOL1         0.1018
      13    H6      18.970096   13.121517   21.212143 H          1 MOL1         0.0783
      14    C5      18.114234   14.875428   20.254902 C.3        1 MOL1         0.1043
      15    H7      18.280859   15.953680   20.339957 H          1 MOL1         0.0783
      16    O4      16.696245   14.605414   20.394448 O.3        1 MOL1        -0.3740
      17    C6      18.573268   14.454969   18.836335 C.3        1 MOL1         0.0138
      18    H8      19.558231   14.900908   18.641519 H          1 MOL1         0.0794
      19    H9      17.876285   14.878511   18.101401 H          1 MOL1         0.0794
      20    O5      18.645367   13.033157   18.677817 O.3        1 MOL1        -0.5486
      21    H10     19.446600   12.723071   19.151557 H          1 MOL1         0.3769
      22    C7      14.713698   20.243722   20.812078 C.3        1 MOL1         0.2972
      23    H11     14.083525   21.068432   20.456322 H          1 MOL1         0.0751
      24    O6      15.919391   20.731089   21.429480 O.3        1 MOL1        -0.3740
      25    C8      13.940292   19.418849   21.867027 C.3        1 MOL1         0.1003
      26    H12     13.013434   19.069084   21.394194 H          1 MOL1         0.0783
      27    O7      13.617481   20.247971   22.994671 O.3        1 MOL1        -0.5519
      28    H13     14.432027   20.771677   23.194055 H          1 MOL1         0.3769
      29    C9      14.739931   18.175177   22.326740 C.3        1 MOL1         0.1053
      30    H14     15.566705   18.521554   22.958125 H          1 MOL1         0.0783
      31    O8      13.868119   17.328435   23.083184 O.3        1 MOL1        -0.5519
      32    H15     13.513816   17.895692   23.801515 H          1 MOL1         0.3769
      33    C10     15.339493   17.380657   21.136065 C.3        1 MOL1         0.1018
      34    H16     14.529801   16.805953   20.668147 H          1 MOL1         0.0783
      35    C11     15.989882   18.302618   20.065579 C.3        1 MOL1         0.1043
      36    H17     16.902540   18.733691   20.497638 H          1 MOL1         0.0783
      37    O9      15.067142   19.366274   19.725320 O.3        1 MOL1        -0.3740
      38    C12     16.392070   17.593948   18.744854 C.3        1 MOL1         0.0138
      39    H18     17.421568   17.232739   18.836970 H          1 MOL1         0.0794
      40    H19     16.396455   18.337533   17.937069 H          1 MOL1         0.0794
      41    O10     15.528861   16.505465   18.396171 O.3        1 MOL1        -0.5486
      42    H20     15.746774   15.757738   19.000746 H          1 MOL1         0.3769
      43    C13     18.569270   23.969393   21.135073 C.3        1 MOL1         0.2972
      44    H21     18.996625   24.959683   20.932645 H          1 MOL1         0.0751
      45    O11     19.586785   23.025482   21.513657 O.3        1 MOL1        -0.3740
      46    C14     17.511346   24.048321   22.268326 C.3        1 MOL1         0.1003
      47    H22     16.755878   24.778153   21.949704 H          1 MOL1         0.0783
      48    O12     18.101559   24.495387   23.499958 O.3        1 MOL1        -0.5519
      49    H23     18.864094   23.893512   23.696217 H          1 MOL1         0.3769
      50    C15     16.793464   22.690510   22.478096 C.3        1 MOL1         0.1053
      51    H24     17.507977   21.985115   22.924691 H          1 MOL1         0.0783
      52    O13     15.682045   22.881857   23.362027 O.3        1 MOL1        -0.5519
      53    H25     16.053720   23.336961   24.148882 H          1 MOL1         0.3769
      54    C16     16.292258   22.092826   21.138732 C.3        1 MOL1         0.1018
      55    H26     15.432041   22.686849   20.803542 H          1 MOL1         0.0783
      56    C17     17.400580   22.114809   20.046650 C.3        1 MOL1         0.1043
      57    H27     18.201084   21.429746   20.352163 H          1 MOL1         0.0783
      58    O14     17.925094   23.460978   19.949110 O.3        1 MOL1        -0.3740
      59    C18     16.956734   21.682964   18.626792 C.3        1 MOL1         0.0138
      60    H28     17.007489   20.589812   18.561165 H          1 MOL1         0.0794
      61    H29     17.683981   22.074361   17.903010 H          1 MOL1         0.0794
      62    O15     15.639288   22.128765   18.286580 O.3        1 MOL1        -0.5486
      63    H30     15.034663   21.374329   18.460641 H          1 MOL1         0.3769
      64    C19     23.640194   22.662492   22.109482 C.3        1 MOL1         0.2972
      65    H31     24.712036   22.773346   22.318723 H          1 MOL1         0.0751
      66    O16     23.334055   21.370394   21.552398 O.3        1 MOL1        -0.3740
      67    C20     22.819308   22.846975   23.409564 C.3        1 MOL1         0.1003
      68    H32     22.988235   23.872974   23.761602 H          1 MOL1         0.0783
      69    O17     23.244019   21.924673   24.425925 O.3        1 MOL1        -0.5519
      70    H33     23.832903   21.261438   23.988751 H          1 MOL1         0.3769
      71    C21     21.308501   22.682288   23.126483 C.3        1 MOL1         0.1053
      72    H34     21.127740   21.632570   22.859569 H          1 MOL1         0.0783
      73    O18     20.564308   23.017803   24.302624 O.3        1 MOL1        -0.5519
      74    H35     20.994220   22.508207   25.025053 H          1 MOL1         0.3769
      75    C22     20.845788   23.574277   21.947541 C.3        1 MOL1         0.1018
      76    H36     20.738974   24.603407   22.315670 H          1 MOL1         0.0783
      77    C23     21.817354   23.539659   20.729924 C.3        1 MOL1         0.1043
      78    H37     21.685319   22.575180   20.223948 H          1 MOL1         0.0783
      79    O19     23.196161   23.660111   21.167747 O.3        1 MOL1        -0.3740
      80    C24     21.545511   24.641660   19.677966 C.3        1 MOL1         0.0138
      81    H38     20.615728   24.396610   19.147074 H          1 MOL1         0.0794
      82    H39     22.356003   24.624712   18.936996 H          1 MOL1         0.0794
      83    O20     21.440263   25.942117   20.270852 O.3        1 MOL1        -0.5486
      84    H40     21.357097   26.595887   19.542661 H          1 MOL1         0.3769
      85    C25     25.002540   17.768223   20.422711 C.3        1 MOL1         0.2972
      86    H41     25.622957   16.951832   20.033780 H          1 MOL1         0.0751
      87    O21     23.655061   17.315840   20.699163 O.3        1 MOL1        -0.3740
      88    C26     25.648950   18.407373   21.682997 C.3        1 MOL1         0.1003
      89    H42     26.601532   18.848051   21.360806 H          1 MOL1         0.0783
      90    O22     25.921778   17.441450   22.707482 O.3        1 MOL1        -0.5519
      91    H43     25.043351   17.157802   23.065297 H          1 MOL1         0.3769
      92    C27     24.760284   19.554678   22.221520 C.3        1 MOL1         0.1053
      93    H44     23.807799   19.125619   22.561086 H          1 MOL1         0.0783
      94    O23     25.419634   20.200862   23.315193 O.3        1 MOL1        -0.5519
      95    H45     25.802705   19.471585   23.852619 H          1 MOL1         0.3769
      96    C28     24.450753   20.583308   21.105101 C.3        1 MOL1         0.1018
      97    H46     25.342334   21.197524   20.925545 H          1 MOL1         0.0783
      98    C29     24.014822   19.910009   19.774525 C.3        1 MOL1         0.1043
      99    H47     23.009783   19.503763   19.920215 H          1 MOL1         0.0783
     100    O24     24.913904   18.822789   19.439762 O.3        1 MOL1        -0.3740
     101    C30     23.926795   20.884157   18.573365 C.3        1 MOL1         0.0138
     102    H48     22.998426   21.462989   18.662486 H          1 MOL1         0.0794
     103    H49     23.848480   20.292434   17.651632 H          1 MOL1         0.0794
     104    O25     25.043992   21.777471   18.492906 O.3        1 MOL1        -0.5486
     105    H50     24.915181   22.468987   19.178053 H          1 MOL1         0.3769
     106    C31     21.332221   14.040817   21.881118 C.3        1 MOL1         0.2972
     107    H51     20.997914   13.056404   22.232980 H          1 MOL1         0.0751
     108    O26     20.233147   14.810191   21.351647 O.3        1 MOL1        -0.3740
     109    C32     22.035255   14.817684   23.028954 C.3        1 MOL1         0.1003
     110    H52     22.894048   14.208443   23.339872 H          1 MOL1         0.0783
     111    O27     21.186259   15.025446   24.167220 O.3        1 MOL1        -0.5519
     112    H53     20.419676   14.410573   24.079820 H          1 MOL1         0.3769
     113    C33     22.576239   16.177534   22.537477 C.3        1 MOL1         0.1053
     114    H54     21.718698   16.808608   22.269111 H          1 MOL1         0.0783
     115    O28     23.306884   16.775586   23.611274 O.3        1 MOL1        -0.5519
     116    H55     22.716451   16.666750   24.391754 H          1 MOL1         0.3769
     117    C34     23.473063   16.007296   21.284308 C.3        1 MOL1         0.1018
     118    H56     24.425685   15.556478   21.589152 H          1 MOL1         0.0783
     119    C35     22.787145   15.111874   20.213772 C.3        1 MOL1         0.1043
     120    H57     21.938954   15.671593   19.796718 H          1 MOL1         0.0783
     121    O29     22.299506   13.885478   20.819896 O.3        1 MOL1        -0.3740
     122    C36     23.715971   14.736286   19.033603 C.3        1 MOL1         0.0138
     123    H58     23.967936   15.650219   18.478637 H          1 MOL1         0.0794
     124    H59     23.157147   14.086512   18.347144 H          1 MOL1         0.0794
     125    O30     24.914035   14.075204   19.463277 O.3        1 MOL1        -0.5486
     126    H60     25.443619   14.707115   19.990866 H          1 MOL1         0.3769
     127    C1      18.031395   18.439017   23.872084 C.2        1 MOL1         0.6173
     128    O1      17.612060   19.521084   24.238724 O.co2      1 MOL1        -0.6755
     129    O2      17.673762   17.384570   24.365770 O.co2      1 MOL1        -0.6755
     130    C2      18.996681   18.378593   22.738226 C.2        1 MOL1        -0.1504
     131    H1      19.346689   17.389924   22.460477 H          1 MOL1         0.0814
     132    C3      19.434144   19.463625   22.061040 C.2        1 MOL1        -0.1394
     133    H2      19.090437   20.459080   22.333302 H          1 MOL1         0.0817
     134    C4      20.416065   19.399768   20.911281 C.3        1 MOL1        -0.1849
     135    H3      21.310321   18.850193   21.229030 H          1 MOL1         0.0736
     136    H4      20.744120   20.414083   20.652475 H          1 MOL1         0.0736
     137    C5      19.799961   18.724590   19.669598 C.3        1 MOL1        -0.1866
     138    H5      19.488057   17.708566   19.933018 H          1 MOL1         0.0738
     139    H6      18.901349   19.274120   19.365118 H          1 MOL1         0.0738
     140    C6      20.778708   18.654693   18.482202 C.3        1 MOL1        -0.2879
     141    H7      21.663139   18.057028   18.737201 H          1 MOL1         0.0750
     142    H8      20.297232   18.187598   17.613677 H          1 MOL1         0.0750
     143    H9      21.108778   19.658319   18.186502 H          1 MOL1         0.0750
@<TRIPOS>BOND
    1     1     2    1
    2     1     3    1
    3     1     4    1
    4     4     5    1
    5     4     6    1
    6     6     7    1
    7     4     8    1
    8     8     9    1
    9     8    10    1
   10    10    11    1
   11     8    12    1
   12    12    13    1
   13    12    14    1
   14    14    15    1
   15     1    16    1
   16    14    16    1
   17    14    17    1
   18    17    18    1
   19    17    19    1
   20    17    20    1
   21    20    21    1
   22    22    23    1
   23    22    24    1
   24    22    25    1
   25    25    26    1
   26    25    27    1
   27    27    28    1
   28    25    29    1
   29    29    30    1
   30    29    31    1
   31    31    32    1
   32     3    33    1
   33    29    33    1
   34    33    34    1
   35    33    35    1
   36    35    36    1
   37    22    37    1
   38    35    37    1
   39    35    38    1
   40    38    39    1
   41    38    40    1
   42    38    41    1
   43    41    42    1
   44    43    44    1
   45    43    45    1
   46    43    46    1
   47    46    47    1
   48    46    48    1
   49    48    49    1
   50    46    50    1
   51    50    51    1
   52    50    52    1
   53    52    53    1
   54    24    54    1
   55    50    54    1
   56    54    55    1
   57    54    56    1
   58    56    57    1
   59    43    58    1
   60    56    58    1
   61    56    59    1
   62    59    60    1
   63    59    61    1
   64    59    62    1
   65    62    63    1
   66    64    65    1
   67    64    66    1
   68    64    67    1
   69    67    68    1
   70    67    69    1
   71    69    70    1
   72    67    71    1
   73    71    72    1
   74    71    73    1
   75    73    74    1
   76    45    75    1
   77    71    75    1
   78    75    76    1
   79    75    77    1
   80    77    78    1
   81    64    79    1
   82    77    79    1
   83    77    80    1
   84    80    81    1
   85    80    82    1
   86    80    83    1
   87    83    84    1
   88    85    86    1
   89    85    87    1
   90    85    88    1
   91    88    89    1
   92    88    90    1
   93    90    91    1
   94    88    92    1
   95    92    93    1
   96    92    94    1
   97    94    95    1
   98    66    96    1
   99    92    96    1
  100    96    97    1
  101    96    98    1
  102    98    99    1
  103    85   100    1
  104    98   100    1
  105    98   101    1
  106   101   102    1
  107   101   103    1
  108   101   104    1
  109   104   105    1
  110   106   107    1
  111    12   108    1
  112   106   108    1
  113   106   109    1
  114   109   110    1
  115   109   111    1
  116   111   112    1
  117   109   113    1
  118   113   114    1
  119   113   115    1
  120   115   116    1
  121    87   117    1
  122   113   117    1
  123   117   118    1
  124   117   119    1
  125   119   120    1
  126   106   121    1
  127   119   121    1
  128   119   122    1
  129   122   123    1
  130   122   124    1
  131   122   125    1
  132   125   126    1
  133   127   128    1
  134   127   129    2
  135   127   130    1
  136   130   131    1
  137   130   132    2
  138   132   133    1
  139   132   134    1
  140   134   135    1
  141   134   136    1
  142   134   137    1
  143   137   138    1
  144   137   139    1
  145   137   140    1
  146   140   141    1
  147   140   142    1
  148   140   143    1
@<TRIPOS>SUBSTRUCTURE
       1 MOL1            1 RESIDUE      1      MOL     
       2 MOL1          143 RESIDUE      1      MOL     
@<SCITEGIC>MOL_PROPERTY
feprocess Rank
SciTegic.value.IntegerValue
1

@<SCITEGIC>MOL_PROPERTY
Conf_Id
SciTegic.value.IntegerValue
1

@<SCITEGIC>MOL_PROPERTY
Probability
SciTegic.value.DoubleValue
100.00

@<SCITEGIC>MOL_PROPERTY
G
SciTegic.value.DoubleValue
504.494

@<SCITEGIC>MOL_PROPERTY
E
SciTegic.value.DoubleValue
321.659

@<SCITEGIC>MOL_PROPERTY
-TS
SciTegic.value.DoubleValue
182.834

@<SCITEGIC>MOL_PROPERTY
U+W
SciTegic.value.DoubleValue
195.571

@<SCITEGIC>MOL_PROPERTY
U
SciTegic.value.DoubleValue
275.520

@<SCITEGIC>MOL_PROPERTY
W
SciTegic.value.DoubleValue
-79.948

@<SCITEGIC>MOL_PROPERTY
W(PB)
SciTegic.value.DoubleValue
-85.894

@<SCITEGIC>MOL_PROPERTY
W(SA)
SciTegic.value.DoubleValue
5.945

@<SCITEGIC>MOL_PROPERTY
Valence
SciTegic.value.DoubleValue
149.376

@<SCITEGIC>MOL_PROPERTY
Coulomb
SciTegic.value.DoubleValue
153.593

@<SCITEGIC>MOL_PROPERTY
VdW
SciTegic.value.DoubleValue
-27.449

@<SCITEGIC>MOL_PROPERTY
VdW6
SciTegic.value.DoubleValue
-182.476

@<SCITEGIC>MOL_PROPERTY
VdW12
SciTegic.value.DoubleValue
155.027

@<SCITEGIC>MOL_PROPERTY
Bond
SciTegic.value.DoubleValue
4.749

@<SCITEGIC>MOL_PROPERTY
Angle
SciTegic.value.DoubleValue
14.935

@<SCITEGIC>MOL_PROPERTY
Pdih
SciTegic.value.DoubleValue
129.689

@<SCITEGIC>MOL_PROPERTY
Idih
SciTegic.value.DoubleValue
0.003

@<SCITEGIC>MOL_PROPERTY
Tether
SciTegic.value.DoubleValue
0.000

