VeraChem MOL file


 25 24  0  0  0  0  0  0  0  0999 V2000     
   20.1601   19.3401   27.8084 C   0  0  0  0  0  0  0  0  0  0  0  0
   21.2157   19.7050   28.2872 O   0  5  0  0  0  0  0  0  0  0  0  0
   19.0777   19.5690   28.3112 O   0  0  0  0  0  0  0  0  0  0  0  0
   20.1941   18.5724   26.4918 C   0  0  0  0  0  0  0  0  0  0  0  0
   19.3547   17.8667   26.4872 H   0  0  0  0  0  0  0  0  0  0  0  0
   21.1164   17.9795   26.4670 H   0  0  0  0  0  0  0  0  0  0  0  0
   20.1206   19.4991   25.2533 C   0  0  0  0  0  0  0  0  0  0  0  0
   19.1984   20.0950   25.3002 H   0  0  0  0  0  0  0  0  0  0  0  0
   20.9600   20.2078   25.2799 H   0  0  0  0  0  0  0  0  0  0  0  0
   20.1566   18.6986   23.9334 C   0  0  0  0  0  0  0  0  0  0  0  0
   19.3171   17.9902   23.9106 H   0  0  0  0  0  0  0  0  0  0  0  0
   21.0790   18.1032   23.8902 H   0  0  0  0  0  0  0  0  0  0  0  0
   20.0829   19.6250   22.7006 C   0  0  0  0  0  0  0  0  0  0  0  0
   19.1606   20.2204   22.7437 H   0  0  0  0  0  0  0  0  0  0  0  0
   20.9223   20.3334   22.7232 H   0  0  0  0  0  0  0  0  0  0  0  0
   20.1189   18.8252   21.3804 C   0  0  0  0  0  0  0  0  0  0  0  0
   19.2795   18.1167   21.3574 H   0  0  0  0  0  0  0  0  0  0  0  0
   21.0412   18.2297   21.3370 H   0  0  0  0  0  0  0  0  0  0  0  0
   20.0451   19.7510   20.1480 C   0  0  0  0  0  0  0  0  0  0  0  0
   19.1228   20.3470   20.1870 H   0  0  0  0  0  0  0  0  0  0  0  0
   20.8844   20.4600   20.1665 H   0  0  0  0  0  0  0  0  0  0  0  0
   20.0813   18.9486   18.8317 C   0  0  0  0  0  0  0  0  0  0  0  0
   19.2340   18.2529   18.7723 H   0  0  0  0  0  0  0  0  0  0  0  0
   20.0280   19.6221   17.9664 H   0  0  0  0  0  0  0  0  0  0  0  0
   21.0089   18.3668   18.7516 H   0  0  0  0  0  0  0  0  0  0  0  0
  1  2  1  0  0  0  0
  1  3  2  0  0  0  0
  1  4  1  0  0  0  0
  4  5  1  0  0  0  0
  4  6  1  0  0  0  0
  4  7  1  0  0  0  0
  7  8  1  0  0  0  0
  7  9  1  0  0  0  0
  7 10  1  0  0  0  0
 10 11  1  0  0  0  0
 10 12  1  0  0  0  0
 10 13  1  0  0  0  0
 13 14  1  0  0  0  0
 13 15  1  0  0  0  0
 13 16  1  0  0  0  0
 16 17  1  0  0  0  0
 16 18  1  0  0  0  0
 16 19  1  0  0  0  0
 19 20  1  0  0  0  0
 19 21  1  0  0  0  0
 19 22  1  0  0  0  0
 22 23  1  0  0  0  0
 22 24  1  0  0  0  0
 22 25  1  0  0  0  0
M  END
> <VM2 Rank>
1

> <Conf_Id>
348

> <Probability>
25.22

> <Sum Probability>
25.22

> <Delta G>
0.000

> <G>
-7.962

> <E>
-32.361

> <-TS>
24.399

> <U+W>
-52.928

> <U>
5.617

> <W>
-58.544

> <W(PB)>
-61.064

> <W(SA)>
2.520

> <Valence>
7.531

> <Coulomb>
-2.818

> <VdW>
0.904

> <VdW6>
-7.640

> <VdW12>
8.544

> <Bond>
0.115

> <Angle>
2.271

> <Pdih>
5.144

> <Idih>
0.001

> <Tether>
0.000

$$$$
VeraChem MOL file


 25 24  0  0  0  0  0  0  0  0999 V2000     
   20.1314   19.7075   27.5208 C   0  0  0  0  0  0  0  0  0  0  0  0
   20.9465   19.3334   28.3409 O   0  5  0  0  0  0  0  0  0  0  0  0
   19.0292   20.1289   27.8110 O   0  0  0  0  0  0  0  0  0  0  0  0
   20.5034   19.6202   26.0450 C   0  0  0  0  0  0  0  0  0  0  0  0
   21.5850   19.7777   25.9570 H   0  0  0  0  0  0  0  0  0  0  0  0
   20.0101   20.4507   25.5276 H   0  0  0  0  0  0  0  0  0  0  0  0
   20.1061   18.2641   25.4059 C   0  0  0  0  0  0  0  0  0  0  0  0
   20.5416   17.4515   26.0039 H   0  0  0  0  0  0  0  0  0  0  0  0
   19.0159   18.1386   25.4596 H   0  0  0  0  0  0  0  0  0  0  0  0
   20.5788   18.1094   23.9408 C   0  0  0  0  0  0  0  0  0  0  0  0
   20.3595   17.0848   23.6103 H   0  0  0  0  0  0  0  0  0  0  0  0
   21.6702   18.2246   23.8921 H   0  0  0  0  0  0  0  0  0  0  0  0
   19.9056   19.1060   22.9691 C   0  0  0  0  0  0  0  0  0  0  0  0
   18.8136   19.0255   23.0589 H   0  0  0  0  0  0  0  0  0  0  0  0
   20.1753   20.1348   23.2409 H   0  0  0  0  0  0  0  0  0  0  0  0
   20.3226   18.8454   21.5054 C   0  0  0  0  0  0  0  0  0  0  0  0
   20.0498   17.8194   21.2226 H   0  0  0  0  0  0  0  0  0  0  0  0
   21.4150   18.9219   21.4162 H   0  0  0  0  0  0  0  0  0  0  0  0
   19.6554   19.8415   20.5338 C   0  0  0  0  0  0  0  0  0  0  0  0
   18.5624   19.7668   20.6196 H   0  0  0  0  0  0  0  0  0  0  0  0
   19.9279   20.8691   20.8117 H   0  0  0  0  0  0  0  0  0  0  0  0
   20.0740   19.5777   19.0734 C   0  0  0  0  0  0  0  0  0  0  0  0
   19.7848   18.5664   18.7585 H   0  0  0  0  0  0  0  0  0  0  0  0
   19.5907   20.2945   18.3969 H   0  0  0  0  0  0  0  0  0  0  0  0
   21.1607   19.6769   18.9523 H   0  0  0  0  0  0  0  0  0  0  0  0
  1  2  1  0  0  0  0
  1  3  2  0  0  0  0
  1  4  1  0  0  0  0
  4  5  1  0  0  0  0
  4  6  1  0  0  0  0
  4  7  1  0  0  0  0
  7  8  1  0  0  0  0
  7  9  1  0  0  0  0
  7 10  1  0  0  0  0
 10 11  1  0  0  0  0
 10 12  1  0  0  0  0
 10 13  1  0  0  0  0
 13 14  1  0  0  0  0
 13 15  1  0  0  0  0
 13 16  1  0  0  0  0
 16 17  1  0  0  0  0
 16 18  1  0  0  0  0
 16 19  1  0  0  0  0
 19 20  1  0  0  0  0
 19 21  1  0  0  0  0
 19 22  1  0  0  0  0
 22 23  1  0  0  0  0
 22 24  1  0  0  0  0
 22 25  1  0  0  0  0
M  END
> <VM2 Rank>
2

> <Conf_Id>
1026

> <Probability>
5.98

> <Sum Probability>
31.20

> <Delta G>
0.858

> <G>
-7.105

> <E>
-31.612

> <-TS>
24.508

> <U+W>
-52.180

> <U>
6.575

> <W>
-58.755

> <W(PB)>
-61.293

> <W(SA)>
2.538

> <Valence>
8.050

> <Coulomb>
-2.490

> <VdW>
1.015

> <VdW6>
-8.339

> <VdW12>
9.354

> <Bond>
0.157

> <Angle>
2.513

> <Pdih>
5.379

> <Idih>
0.001

> <Tether>
0.000

$$$$
VeraChem MOL file


 25 24  0  0  0  0  0  0  0  0999 V2000     
   20.1304   19.1679   27.7051 C   0  0  0  0  0  0  0  0  0  0  0  0
   21.2276   19.2435   28.2218 O   0  5  0  0  0  0  0  0  0  0  0  0
   19.2270   18.4812   28.1400 O   0  0  0  0  0  0  0  0  0  0  0  0
   19.8806   19.9606   26.4271 C   0  0  0  0  0  0  0  0  0  0  0  0
   20.4729   20.8822   26.4766 H   0  0  0  0  0  0  0  0  0  0  0  0
   18.8242   20.2545   26.4096 H   0  0  0  0  0  0  0  0  0  0  0  0
   20.2355   19.1650   25.1468 C   0  0  0  0  0  0  0  0  0  0  0  0
   21.2925   18.8669   25.1861 H   0  0  0  0  0  0  0  0  0  0  0  0
   19.6440   18.2393   25.1192 H   0  0  0  0  0  0  0  0  0  0  0  0
   19.9741   19.9884   23.8671 C   0  0  0  0  0  0  0  0  0  0  0  0
   20.5657   20.9136   23.8990 H   0  0  0  0  0  0  0  0  0  0  0  0
   18.9169   20.2854   23.8311 H   0  0  0  0  0  0  0  0  0  0  0  0
   20.3288   19.1926   22.5924 C   0  0  0  0  0  0  0  0  0  0  0  0
   21.3866   18.8981   22.6262 H   0  0  0  0  0  0  0  0  0  0  0  0
   19.7384   18.2674   22.5702 H   0  0  0  0  0  0  0  0  0  0  0  0
   20.0631   20.0172   21.3117 C   0  0  0  0  0  0  0  0  0  0  0  0
   20.6050   20.9703   21.3814 H   0  0  0  0  0  0  0  0  0  0  0  0
   18.9958   20.2702   21.2490 H   0  0  0  0  0  0  0  0  0  0  0  0
   20.5009   19.2974   20.0148 C   0  0  0  0  0  0  0  0  0  0  0  0
   20.3885   19.9921   19.1710 H   0  0  0  0  0  0  0  0  0  0  0  0
   21.5697   19.0485   20.0713 H   0  0  0  0  0  0  0  0  0  0  0  0
   19.6850   18.0202   19.7192 C   0  0  0  0  0  0  0  0  0  0  0  0
   18.6098   18.2393   19.6877 H   0  0  0  0  0  0  0  0  0  0  0  0
   19.9723   17.5975   18.7477 H   0  0  0  0  0  0  0  0  0  0  0  0
   19.8575   17.2492   20.4805 H   0  0  0  0  0  0  0  0  0  0  0  0
  1  2  1  0  0  0  0
  1  3  2  0  0  0  0
  1  4  1  0  0  0  0
  4  5  1  0  0  0  0
  4  6  1  0  0  0  0
  4  7  1  0  0  0  0
  7  8  1  0  0  0  0
  7  9  1  0  0  0  0
  7 10  1  0  0  0  0
 10 11  1  0  0  0  0
 10 12  1  0  0  0  0
 10 13  1  0  0  0  0
 13 14  1  0  0  0  0
 13 15  1  0  0  0  0
 13 16  1  0  0  0  0
 16 17  1  0  0  0  0
 16 18  1  0  0  0  0
 16 19  1  0  0  0  0
 19 20  1  0  0  0  0
 19 21  1  0  0  0  0
 19 22  1  0  0  0  0
 22 23  1  0  0  0  0
 22 24  1  0  0  0  0
 22 25  1  0  0  0  0
M  END
> <VM2 Rank>
3

> <Conf_Id>
755

> <Probability>
5.49

> <Sum Probability>
36.70

> <Delta G>
0.908

> <G>
-7.054

> <E>
-31.562

> <-TS>
24.508

> <U+W>
-52.129

> <U>
6.630

> <W>
-58.759

> <W(PB)>
-61.280

> <W(SA)>
2.521

> <Valence>
8.032

> <Coulomb>
-2.441

> <VdW>
1.039

> <VdW6>
-8.257

> <VdW12>
9.295

> <Bond>
0.146

> <Angle>
2.498

> <Pdih>
5.387

> <Idih>
0.001

> <Tether>
0.000

$$$$
VeraChem MOL file


 25 24  0  0  0  0  0  0  0  0999 V2000     
   20.0216   19.1704   27.6698 C   0  0  0  0  0  0  0  0  0  0  0  0
   21.0606   19.2684   28.2924 O   0  5  0  0  0  0  0  0  0  0  0  0
   18.9411   19.5175   28.1041 O   0  0  0  0  0  0  0  0  0  0  0  0
   20.0803   18.6011   26.2569 C   0  0  0  0  0  0  0  0  0  0  0  0
   19.1421   18.0663   26.0660 H   0  0  0  0  0  0  0  0  0  0  0  0
   20.8886   17.8609   26.2211 H   0  0  0  0  0  0  0  0  0  0  0  0
   20.3041   19.6898   25.1786 C   0  0  0  0  0  0  0  0  0  0  0  0
   19.4936   20.4297   25.2360 H   0  0  0  0  0  0  0  0  0  0  0  0
   21.2400   20.2246   25.3922 H   0  0  0  0  0  0  0  0  0  0  0  0
   20.3598   19.0886   23.7574 C   0  0  0  0  0  0  0  0  0  0  0  0
   19.4239   18.5506   23.5583 H   0  0  0  0  0  0  0  0  0  0  0  0
   21.1726   18.3515   23.7024 H   0  0  0  0  0  0  0  0  0  0  0  0
   20.5792   20.1801   22.6845 C   0  0  0  0  0  0  0  0  0  0  0  0
   19.7401   20.8890   22.7000 H   0  0  0  0  0  0  0  0  0  0  0  0
   21.4780   20.7572   22.9414 H   0  0  0  0  0  0  0  0  0  0  0  0
   20.7528   19.6144   21.2548 C   0  0  0  0  0  0  0  0  0  0  0  0
   21.5947   18.9089   21.2379 H   0  0  0  0  0  0  0  0  0  0  0  0
   21.0269   20.4407   20.5847 H   0  0  0  0  0  0  0  0  0  0  0  0
   19.4835   18.9241   20.7062 C   0  0  0  0  0  0  0  0  0  0  0  0
   19.2364   18.0459   21.3168 H   0  0  0  0  0  0  0  0  0  0  0  0
   18.6293   19.6120   20.7728 H   0  0  0  0  0  0  0  0  0  0  0  0
   19.6699   18.4795   19.2414 C   0  0  0  0  0  0  0  0  0  0  0  0
   20.5017   17.7688   19.1498 H   0  0  0  0  0  0  0  0  0  0  0  0
   18.7620   17.9886   18.8677 H   0  0  0  0  0  0  0  0  0  0  0  0
   19.8810   19.3399   18.5929 H   0  0  0  0  0  0  0  0  0  0  0  0
  1  2  1  0  0  0  0
  1  3  2  0  0  0  0
  1  4  1  0  0  0  0
  4  5  1  0  0  0  0
  4  6  1  0  0  0  0
  4  7  1  0  0  0  0
  7  8  1  0  0  0  0
  7  9  1  0  0  0  0
  7 10  1  0  0  0  0
 10 11  1  0  0  0  0
 10 12  1  0  0  0  0
 10 13  1  0  0  0  0
 13 14  1  0  0  0  0
 13 15  1  0  0  0  0
 13 16  1  0  0  0  0
 16 17  1  0  0  0  0
 16 18  1  0  0  0  0
 16 19  1  0  0  0  0
 19 20  1  0  0  0  0
 19 21  1  0  0  0  0
 19 22  1  0  0  0  0
 22 23  1  0  0  0  0
 22 24  1  0  0  0  0
 22 25  1  0  0  0  0
M  END
> <VM2 Rank>
4

> <Conf_Id>
887

> <Probability>
5.41

> <Sum Probability>
42.11

> <Delta G>
0.918

> <G>
-7.045

> <E>
-31.544

> <-TS>
24.499

> <U+W>
-52.112

> <U>
6.583

> <W>
-58.695

> <W(PB)>
-61.195

> <W(SA)>
2.500

> <Valence>
8.068

> <Coulomb>
-2.516

> <VdW>
1.031

> <VdW6>
-8.305

> <VdW12>
9.336

> <Bond>
0.150

> <Angle>
2.522

> <Pdih>
5.396

> <Idih>
0.001

> <Tether>
0.000

$$$$
VeraChem MOL file


 25 24  0  0  0  0  0  0  0  0999 V2000     
   20.3737   19.6428   27.4433 C   0  0  0  0  0  0  0  0  0  0  0  0
   21.5153   20.0321   27.5914 O   0  5  0  0  0  0  0  0  0  0  0  0
   19.4211   20.1083   28.0369 O   0  0  0  0  0  0  0  0  0  0  0  0
   20.1198   18.5219   26.4417 C   0  0  0  0  0  0  0  0  0  0  0  0
   19.2737   17.9262   26.8047 H   0  0  0  0  0  0  0  0  0  0  0  0
   20.9988   17.8661   26.4341 H   0  0  0  0  0  0  0  0  0  0  0  0
   19.8321   19.0459   25.0131 C   0  0  0  0  0  0  0  0  0  0  0  0
   18.9554   19.7078   25.0393 H   0  0  0  0  0  0  0  0  0  0  0  0
   20.6833   19.6547   24.6808 H   0  0  0  0  0  0  0  0  0  0  0  0
   19.5832   17.8893   24.0174 C   0  0  0  0  0  0  0  0  0  0  0  0
   18.7804   17.2489   24.4076 H   0  0  0  0  0  0  0  0  0  0  0  0
   20.4798   17.2579   23.9508 H   0  0  0  0  0  0  0  0  0  0  0  0
   19.1821   18.3696   22.6024 C   0  0  0  0  0  0  0  0  0  0  0  0
   18.9054   17.4918   22.0027 H   0  0  0  0  0  0  0  0  0  0  0  0
   18.2826   18.9969   22.6681 H   0  0  0  0  0  0  0  0  0  0  0  0
   20.3046   19.1428   21.8721 C   0  0  0  0  0  0  0  0  0  0  0  0
   21.2192   18.5344   21.8562 H   0  0  0  0  0  0  0  0  0  0  0  0
   20.5417   20.0648   22.4186 H   0  0  0  0  0  0  0  0  0  0  0  0
   19.9012   19.5035   20.4268 C   0  0  0  0  0  0  0  0  0  0  0  0
   19.6696   18.5870   19.8666 H   0  0  0  0  0  0  0  0  0  0  0  0
   18.9854   20.1105   20.4388 H   0  0  0  0  0  0  0  0  0  0  0  0
   21.0199   20.2779   19.7010 C   0  0  0  0  0  0  0  0  0  0  0  0
   21.9397   19.6809   19.6475 H   0  0  0  0  0  0  0  0  0  0  0  0
   20.7164   20.5256   18.6755 H   0  0  0  0  0  0  0  0  0  0  0  0
   21.2500   21.2162   20.2224 H   0  0  0  0  0  0  0  0  0  0  0  0
  1  2  1  0  0  0  0
  1  3  2  0  0  0  0
  1  4  1  0  0  0  0
  4  5  1  0  0  0  0
  4  6  1  0  0  0  0
  4  7  1  0  0  0  0
  7  8  1  0  0  0  0
  7  9  1  0  0  0  0
  7 10  1  0  0  0  0
 10 11  1  0  0  0  0
 10 12  1  0  0  0  0
 10 13  1  0  0  0  0
 13 14  1  0  0  0  0
 13 15  1  0  0  0  0
 13 16  1  0  0  0  0
 16 17  1  0  0  0  0
 16 18  1  0  0  0  0
 16 19  1  0  0  0  0
 19 20  1  0  0  0  0
 19 21  1  0  0  0  0
 19 22  1  0  0  0  0
 22 23  1  0  0  0  0
 22 24  1  0  0  0  0
 22 25  1  0  0  0  0
M  END
> <VM2 Rank>
5

> <Conf_Id>
779

> <Probability>
5.34

> <Sum Probability>
47.44

> <Delta G>
0.926

> <G>
-7.036

> <E>
-31.542

> <-TS>
24.506

> <U+W>
-52.109

> <U>
7.044

> <W>
-59.153

> <W(PB)>
-61.665

> <W(SA)>
2.511

> <Valence>
8.064

> <Coulomb>
-2.027

> <VdW>
1.007

> <VdW6>
-8.345

> <VdW12>
9.352

> <Bond>
0.151

> <Angle>
2.518

> <Pdih>
5.395

> <Idih>
0.001

> <Tether>
0.000

$$$$
VeraChem MOL file


 25 24  0  0  0  0  0  0  0  0999 V2000     
   19.9013   19.6124   27.4488 C   0  0  0  0  0  0  0  0  0  0  0  0
   20.8002   20.1962   28.0213 O   0  5  0  0  0  0  0  0  0  0  0  0
   18.7231   19.8535   27.6234 O   0  0  0  0  0  0  0  0  0  0  0  0
   20.2730   18.5317   26.4399 C   0  0  0  0  0  0  0  0  0  0  0  0
   19.4849   17.7692   26.4515 H   0  0  0  0  0  0  0  0  0  0  0  0
   21.1963   18.0493   26.7825 H   0  0  0  0  0  0  0  0  0  0  0  0
   20.4586   19.0861   25.0059 C   0  0  0  0  0  0  0  0  0  0  0  0
   19.5293   19.5809   24.6941 H   0  0  0  0  0  0  0  0  0  0  0  0
   21.2441   19.8545   25.0130 H   0  0  0  0  0  0  0  0  0  0  0  0
   20.8302   17.9693   24.0029 C   0  0  0  0  0  0  0  0  0  0  0  0
   20.0203   17.2285   23.9561 H   0  0  0  0  0  0  0  0  0  0  0  0
   21.7170   17.4372   24.3737 H   0  0  0  0  0  0  0  0  0  0  0  0
   21.1340   18.4950   22.5798 C   0  0  0  0  0  0  0  0  0  0  0  0
   21.9472   19.2322   22.6258 H   0  0  0  0  0  0  0  0  0  0  0  0
   21.5068   17.6588   21.9726 H   0  0  0  0  0  0  0  0  0  0  0  0
   19.9053   19.1171   21.8766 C   0  0  0  0  0  0  0  0  0  0  0  0
   19.5649   20.0020   22.4299 H   0  0  0  0  0  0  0  0  0  0  0  0
   19.0759   18.3968   21.8808 H   0  0  0  0  0  0  0  0  0  0  0  0
   20.2260   19.5244   20.4230 C   0  0  0  0  0  0  0  0  0  0  0  0
   21.0567   20.2437   20.4150 H   0  0  0  0  0  0  0  0  0  0  0  0
   20.5602   18.6443   19.8563 H   0  0  0  0  0  0  0  0  0  0  0  0
   19.0012   20.1482   19.7242 C   0  0  0  0  0  0  0  0  0  0  0  0
   18.1643   19.4384   19.6908 H   0  0  0  0  0  0  0  0  0  0  0  0
   18.6648   21.0502   20.2522 H   0  0  0  0  0  0  0  0  0  0  0  0
   19.2469   20.4313   18.6925 H   0  0  0  0  0  0  0  0  0  0  0  0
  1  2  1  0  0  0  0
  1  3  2  0  0  0  0
  1  4  1  0  0  0  0
  4  5  1  0  0  0  0
  4  6  1  0  0  0  0
  4  7  1  0  0  0  0
  7  8  1  0  0  0  0
  7  9  1  0  0  0  0
  7 10  1  0  0  0  0
 10 11  1  0  0  0  0
 10 12  1  0  0  0  0
 10 13  1  0  0  0  0
 13 14  1  0  0  0  0
 13 15  1  0  0  0  0
 13 16  1  0  0  0  0
 16 17  1  0  0  0  0
 16 18  1  0  0  0  0
 16 19  1  0  0  0  0
 19 20  1  0  0  0  0
 19 21  1  0  0  0  0
 19 22  1  0  0  0  0
 22 23  1  0  0  0  0
 22 24  1  0  0  0  0
 22 25  1  0  0  0  0
M  END
> <VM2 Rank>
6

> <Conf_Id>
1030

> <Probability>
5.18

> <Sum Probability>
52.63

> <Delta G>
0.943

> <G>
-7.019

> <E>
-31.525

> <-TS>
24.506

> <U+W>
-52.093

> <U>
7.044

> <W>
-59.136

> <W(PB)>
-61.631

> <W(SA)>
2.494

> <Valence>
8.064

> <Coulomb>
-2.027

> <VdW>
1.007

> <VdW6>
-8.345

> <VdW12>
9.352

> <Bond>
0.151

> <Angle>
2.518

> <Pdih>
5.395

> <Idih>
0.001

> <Tether>
0.000

$$$$
VeraChem MOL file


 25 24  0  0  0  0  0  0  0  0999 V2000     
   20.0591   19.4466   27.7000 C   0  0  0  0  0  0  0  0  0  0  0  0
   21.0533   19.9254   28.2090 O   0  5  0  0  0  0  0  0  0  0  0  0
   18.9334   19.6287   28.1197 O   0  0  0  0  0  0  0  0  0  0  0  0
   20.2318   18.5882   26.4520 C   0  0  0  0  0  0  0  0  0  0  0  0
   19.4467   17.8226   26.4539 H   0  0  0  0  0  0  0  0  0  0  0  0
   21.1935   18.0666   26.5278 H   0  0  0  0  0  0  0  0  0  0  0  0
   20.1721   19.4122   25.1423 C   0  0  0  0  0  0  0  0  0  0  0  0
   19.2090   19.9385   25.0883 H   0  0  0  0  0  0  0  0  0  0  0  0
   20.9557   20.1824   25.1620 H   0  0  0  0  0  0  0  0  0  0  0  0
   20.3492   18.5212   23.8938 C   0  0  0  0  0  0  0  0  0  0  0  0
   19.5648   17.7520   23.8771 H   0  0  0  0  0  0  0  0  0  0  0  0
   21.3121   17.9953   23.9520 H   0  0  0  0  0  0  0  0  0  0  0  0
   20.2896   19.3455   22.5896 C   0  0  0  0  0  0  0  0  0  0  0  0
   19.3278   19.8725   22.5410 H   0  0  0  0  0  0  0  0  0  0  0  0
   21.0759   20.1125   22.6041 H   0  0  0  0  0  0  0  0  0  0  0  0
   20.4634   18.4514   21.3401 C   0  0  0  0  0  0  0  0  0  0  0  0
   19.6490   17.7154   21.2954 H   0  0  0  0  0  0  0  0  0  0  0  0
   21.3955   17.8782   21.4377 H   0  0  0  0  0  0  0  0  0  0  0  0
   20.5135   19.2483   20.0157 C   0  0  0  0  0  0  0  0  0  0  0  0
   21.3314   19.9810   20.0543 H   0  0  0  0  0  0  0  0  0  0  0  0
   20.7554   18.5564   19.1971 H   0  0  0  0  0  0  0  0  0  0  0  0
   19.1876   19.9667   19.6838 C   0  0  0  0  0  0  0  0  0  0  0  0
   19.2454   20.4419   18.6960 H   0  0  0  0  0  0  0  0  0  0  0  0
   18.3495   19.2578   19.6693 H   0  0  0  0  0  0  0  0  0  0  0  0
   18.9626   20.7514   20.4168 H   0  0  0  0  0  0  0  0  0  0  0  0
  1  2  1  0  0  0  0
  1  3  2  0  0  0  0
  1  4  1  0  0  0  0
  4  5  1  0  0  0  0
  4  6  1  0  0  0  0
  4  7  1  0  0  0  0
  7  8  1  0  0  0  0
  7  9  1  0  0  0  0
  7 10  1  0  0  0  0
 10 11  1  0  0  0  0
 10 12  1  0  0  0  0
 10 13  1  0  0  0  0
 13 14  1  0  0  0  0
 13 15  1  0  0  0  0
 13 16  1  0  0  0  0
 16 17  1  0  0  0  0
 16 18  1  0  0  0  0
 16 19  1  0  0  0  0
 19 20  1  0  0  0  0
 19 21  1  0  0  0  0
 19 22  1  0  0  0  0
 22 23  1  0  0  0  0
 22 24  1  0  0  0  0
 22 25  1  0  0  0  0
M  END
> <VM2 Rank>
7

> <Conf_Id>
1000

> <Probability>
5.13

> <Sum Probability>
57.76

> <Delta G>
0.949

> <G>
-7.013

> <E>
-31.521

> <-TS>
24.508

> <U+W>
-52.088

> <U>
6.630

> <W>
-58.718

> <W(PB)>
-61.243

> <W(SA)>
2.525

> <Valence>
8.032

> <Coulomb>
-2.441

> <VdW>
1.039

> <VdW6>
-8.256

> <VdW12>
9.295

> <Bond>
0.146

> <Angle>
2.498

> <Pdih>
5.387

> <Idih>
0.001

> <Tether>
0.000

$$$$
VeraChem MOL file


 25 24  0  0  0  0  0  0  0  0999 V2000     
   20.3158   19.1892   27.6664 C   0  0  0  0  0  0  0  0  0  0  0  0
   21.3534   19.6711   28.0762 O   0  5  0  0  0  0  0  0  0  0  0  0
   19.2874   19.1556   28.3129 O   0  0  0  0  0  0  0  0  0  0  0  0
   20.2974   18.6149   26.2544 C   0  0  0  0  0  0  0  0  0  0  0  0
   19.5889   17.7781   26.2361 H   0  0  0  0  0  0  0  0  0  0  0  0
   21.2911   18.2032   26.0411 H   0  0  0  0  0  0  0  0  0  0  0  0
   19.9124   19.6648   25.1831 C   0  0  0  0  0  0  0  0  0  0  0  0
   18.9214   20.0768   25.4190 H   0  0  0  0  0  0  0  0  0  0  0  0
   20.6236   20.5016   25.2229 H   0  0  0  0  0  0  0  0  0  0  0  0
   19.9008   19.0593   23.7627 C   0  0  0  0  0  0  0  0  0  0  0  0
   19.1872   18.2248   23.7253 H   0  0  0  0  0  0  0  0  0  0  0  0
   20.8926   18.6442   23.5413 H   0  0  0  0  0  0  0  0  0  0  0  0
   19.5199   20.1125   22.6967 C   0  0  0  0  0  0  0  0  0  0  0  0
   18.5612   20.5711   22.9750 H   0  0  0  0  0  0  0  0  0  0  0  0
   20.2623   20.9223   22.6940 H   0  0  0  0  0  0  0  0  0  0  0  0
   19.3868   19.5272   21.2706 C   0  0  0  0  0  0  0  0  0  0  0  0
   18.9946   20.3110   20.6082 H   0  0  0  0  0  0  0  0  0  0  0  0
   18.6412   18.7204   21.2721 H   0  0  0  0  0  0  0  0  0  0  0  0
   20.7205   19.0031   20.6919 C   0  0  0  0  0  0  0  0  0  0  0  0
   21.4817   19.7940   20.7398 H   0  0  0  0  0  0  0  0  0  0  0  0
   21.0913   18.1643   21.2954 H   0  0  0  0  0  0  0  0  0  0  0  0
   20.5585   18.5362   19.2311 C   0  0  0  0  0  0  0  0  0  0  0  0
   20.2250   19.3619   18.5890 H   0  0  0  0  0  0  0  0  0  0  0  0
   21.5127   18.1641   18.8359 H   0  0  0  0  0  0  0  0  0  0  0  0
   19.8219   17.7254   19.1577 H   0  0  0  0  0  0  0  0  0  0  0  0
  1  2  1  0  0  0  0
  1  3  2  0  0  0  0
  1  4  1  0  0  0  0
  4  5  1  0  0  0  0
  4  6  1  0  0  0  0
  4  7  1  0  0  0  0
  7  8  1  0  0  0  0
  7  9  1  0  0  0  0
  7 10  1  0  0  0  0
 10 11  1  0  0  0  0
 10 12  1  0  0  0  0
 10 13  1  0  0  0  0
 13 14  1  0  0  0  0
 13 15  1  0  0  0  0
 13 16  1  0  0  0  0
 16 17  1  0  0  0  0
 16 18  1  0  0  0  0
 16 19  1  0  0  0  0
 19 20  1  0  0  0  0
 19 21  1  0  0  0  0
 19 22  1  0  0  0  0
 22 23  1  0  0  0  0
 22 24  1  0  0  0  0
 22 25  1  0  0  0  0
M  END
> <VM2 Rank>
8

> <Conf_Id>
863

> <Probability>
5.13

> <Sum Probability>
62.88

> <Delta G>
0.950

> <G>
-7.013

> <E>
-31.512

> <-TS>
24.499

> <U+W>
-52.079

> <U>
6.583

> <W>
-58.663

> <W(PB)>
-61.146

> <W(SA)>
2.483

> <Valence>
8.068

> <Coulomb>
-2.516

> <VdW>
1.031

> <VdW6>
-8.305

> <VdW12>
9.336

> <Bond>
0.150

> <Angle>
2.522

> <Pdih>
5.396

> <Idih>
0.001

> <Tether>
0.000

$$$$
VeraChem MOL file


 25 24  0  0  0  0  0  0  0  0999 V2000     
   19.9392   19.5648   27.3299 C   0  0  0  0  0  0  0  0  0  0  0  0
   20.7378   20.3660   27.7741 O   0  5  0  0  0  0  0  0  0  0  0  0
   18.7367   19.7408   27.3338 O   0  0  0  0  0  0  0  0  0  0  0  0
   20.4772   18.2591   26.7513 C   0  0  0  0  0  0  0  0  0  0  0  0
   19.6606   17.5277   26.7191 H   0  0  0  0  0  0  0  0  0  0  0  0
   21.2231   17.8714   27.4551 H   0  0  0  0  0  0  0  0  0  0  0  0
   21.1181   18.4088   25.3471 C   0  0  0  0  0  0  0  0  0  0  0  0
   21.9150   19.1643   25.3894 H   0  0  0  0  0  0  0  0  0  0  0  0
   21.5968   17.4596   25.0708 H   0  0  0  0  0  0  0  0  0  0  0  0
   20.0881   18.7948   24.2618 C   0  0  0  0  0  0  0  0  0  0  0  0
   19.6170   19.7527   24.5224 H   0  0  0  0  0  0  0  0  0  0  0  0
   19.2868   18.0437   24.2326 H   0  0  0  0  0  0  0  0  0  0  0  0
   20.7415   18.9071   22.8675 C   0  0  0  0  0  0  0  0  0  0  0  0
   21.5425   19.6585   22.8977 H   0  0  0  0  0  0  0  0  0  0  0  0
   21.2107   17.9494   22.6036 H   0  0  0  0  0  0  0  0  0  0  0  0
   19.7130   19.2935   21.7827 C   0  0  0  0  0  0  0  0  0  0  0  0
   19.2436   20.2511   22.0466 H   0  0  0  0  0  0  0  0  0  0  0  0
   18.9118   18.5424   21.7525 H   0  0  0  0  0  0  0  0  0  0  0  0
   20.3658   19.4066   20.3890 C   0  0  0  0  0  0  0  0  0  0  0  0
   21.1667   20.1585   20.4150 H   0  0  0  0  0  0  0  0  0  0  0  0
   20.8349   18.4497   20.1208 H   0  0  0  0  0  0  0  0  0  0  0  0
   19.3356   19.7926   19.3087 C   0  0  0  0  0  0  0  0  0  0  0  0
   18.8730   20.7622   19.5356 H   0  0  0  0  0  0  0  0  0  0  0  0
   19.8166   19.8686   18.3248 H   0  0  0  0  0  0  0  0  0  0  0  0
   18.5387   19.0405   19.2392 H   0  0  0  0  0  0  0  0  0  0  0  0
  1  2  1  0  0  0  0
  1  3  2  0  0  0  0
  1  4  1  0  0  0  0
  4  5  1  0  0  0  0
  4  6  1  0  0  0  0
  4  7  1  0  0  0  0
  7  8  1  0  0  0  0
  7  9  1  0  0  0  0
  7 10  1  0  0  0  0
 10 11  1  0  0  0  0
 10 12  1  0  0  0  0
 10 13  1  0  0  0  0
 13 14  1  0  0  0  0
 13 15  1  0  0  0  0
 13 16  1  0  0  0  0
 16 17  1  0  0  0  0
 16 18  1  0  0  0  0
 16 19  1  0  0  0  0
 19 20  1  0  0  0  0
 19 21  1  0  0  0  0
 19 22  1  0  0  0  0
 22 23  1  0  0  0  0
 22 24  1  0  0  0  0
 22 25  1  0  0  0  0
M  END
> <VM2 Rank>
9

> <Conf_Id>
195

> <Probability>
2.49

> <Sum Probability>
65.37

> <Delta G>
1.381

> <G>
-6.581

> <E>
-31.293

> <-TS>
24.712

> <U+W>
-51.860

> <U>
7.816

> <W>
-59.676

> <W(PB)>
-62.181

> <W(SA)>
2.505

> <Valence>
7.785

> <Coulomb>
-0.713

> <VdW>
0.744

> <VdW6>
-8.514

> <VdW12>
9.259

> <Bond>
0.136

> <Angle>
2.432

> <Pdih>
5.216

> <Idih>
0.000

> <Tether>
0.000

$$$$
VeraChem MOL file


 25 24  0  0  0  0  0  0  0  0999 V2000     
   20.2303   18.9546   27.3352 C   0  0  0  0  0  0  0  0  0  0  0  0
   21.3527   19.0775   27.7847 O   0  5  0  0  0  0  0  0  0  0  0  0
   19.6106   17.9092   27.3494 O   0  0  0  0  0  0  0  0  0  0  0  0
   19.5577   20.1860   26.7350 C   0  0  0  0  0  0  0  0  0  0  0  0
   19.7209   21.0194   27.4284 H   0  0  0  0  0  0  0  0  0  0  0  0
   18.4757   20.0109   26.6980 H   0  0  0  0  0  0  0  0  0  0  0  0
   20.0865   20.5706   25.3288 C   0  0  0  0  0  0  0  0  0  0  0  0
   19.6517   21.5360   25.0363 H   0  0  0  0  0  0  0  0  0  0  0  0
   21.1748   20.7154   25.3763 H   0  0  0  0  0  0  0  0  0  0  0  0
   19.7457   19.5122   24.2558 C   0  0  0  0  0  0  0  0  0  0  0  0
   18.6580   19.3614   24.2215 H   0  0  0  0  0  0  0  0  0  0  0  0
   20.1922   18.5471   24.5327 H   0  0  0  0  0  0  0  0  0  0  0  0
   20.2534   19.9302   22.8589 C   0  0  0  0  0  0  0  0  0  0  0  0
   19.8059   20.8936   22.5786 H   0  0  0  0  0  0  0  0  0  0  0  0
   21.3412   20.0806   22.8942 H   0  0  0  0  0  0  0  0  0  0  0  0
   19.9138   18.8727   21.7863 C   0  0  0  0  0  0  0  0  0  0  0  0
   18.8261   18.7219   21.7511 H   0  0  0  0  0  0  0  0  0  0  0  0
   20.3612   17.9091   22.0665 H   0  0  0  0  0  0  0  0  0  0  0  0
   20.4216   19.2898   20.3900 C   0  0  0  0  0  0  0  0  0  0  0  0
   19.9748   20.2525   20.1056 H   0  0  0  0  0  0  0  0  0  0  0  0
   21.5098   19.4396   20.4211 H   0  0  0  0  0  0  0  0  0  0  0  0
   20.0806   18.2312   19.3220 C   0  0  0  0  0  0  0  0  0  0  0  0
   18.9952   18.0840   19.2473 H   0  0  0  0  0  0  0  0  0  0  0  0
   20.4487   18.5437   18.3361 H   0  0  0  0  0  0  0  0  0  0  0  0
   20.5417   17.2650   19.5653 H   0  0  0  0  0  0  0  0  0  0  0  0
  1  2  1  0  0  0  0
  1  3  2  0  0  0  0
  1  4  1  0  0  0  0
  4  5  1  0  0  0  0
  4  6  1  0  0  0  0
  4  7  1  0  0  0  0
  7  8  1  0  0  0  0
  7  9  1  0  0  0  0
  7 10  1  0  0  0  0
 10 11  1  0  0  0  0
 10 12  1  0  0  0  0
 10 13  1  0  0  0  0
 13 14  1  0  0  0  0
 13 15  1  0  0  0  0
 13 16  1  0  0  0  0
 16 17  1  0  0  0  0
 16 18  1  0  0  0  0
 16 19  1  0  0  0  0
 19 20  1  0  0  0  0
 19 21  1  0  0  0  0
 19 22  1  0  0  0  0
 22 23  1  0  0  0  0
 22 24  1  0  0  0  0
 22 25  1  0  0  0  0
M  END
> <VM2 Rank>
10

> <Conf_Id>
54

> <Probability>
2.46

> <Sum Probability>
67.83

> <Delta G>
1.388

> <G>
-6.575

> <E>
-31.286

> <-TS>
24.711

> <U+W>
-51.854

> <U>
7.816

> <W>
-59.670

> <W(PB)>
-62.157

> <W(SA)>
2.487

> <Valence>
7.785

> <Coulomb>
-0.713

> <VdW>
0.744

> <VdW6>
-8.515

> <VdW12>
9.259

> <Bond>
0.136

> <Angle>
2.433

> <Pdih>
5.215

> <Idih>
0.000

> <Tether>
0.000

$$$$
VeraChem MOL file


 25 24  0  0  0  0  0  0  0  0999 V2000     
   20.1096   19.8189   27.3324 C   0  0  0  0  0  0  0  0  0  0  0  0
   21.1337   20.4357   27.5503 O   0  5  0  0  0  0  0  0  0  0  0  0
   19.3799   19.3954   28.2070 O   0  0  0  0  0  0  0  0  0  0  0  0
   19.7317   19.5399   25.8821 C   0  0  0  0  0  0  0  0  0  0  0  0
   20.0749   20.3884   25.2796 H   0  0  0  0  0  0  0  0  0  0  0  0
   18.6375   19.5138   25.8148 H   0  0  0  0  0  0  0  0  0  0  0  0
   20.3325   18.2126   25.3507 C   0  0  0  0  0  0  0  0  0  0  0  0
   21.4295   18.2691   25.3794 H   0  0  0  0  0  0  0  0  0  0  0  0
   20.0462   17.3987   26.0312 H   0  0  0  0  0  0  0  0  0  0  0  0
   19.8648   17.8507   23.9209 C   0  0  0  0  0  0  0  0  0  0  0  0
   18.7683   17.7856   23.8978 H   0  0  0  0  0  0  0  0  0  0  0  0
   20.2410   16.8483   23.6751 H   0  0  0  0  0  0  0  0  0  0  0  0
   20.3498   18.8488   22.8439 C   0  0  0  0  0  0  0  0  0  0  0  0
   19.9235   19.8395   23.0426 H   0  0  0  0  0  0  0  0  0  0  0  0
   21.4420   18.9496   22.9023 H   0  0  0  0  0  0  0  0  0  0  0  0
   19.9490   18.3915   21.4222 C   0  0  0  0  0  0  0  0  0  0  0  0
   18.8544   18.3350   21.3466 H   0  0  0  0  0  0  0  0  0  0  0  0
   20.3254   17.3732   21.2543 H   0  0  0  0  0  0  0  0  0  0  0  0
   20.4980   19.3076   20.3036 C   0  0  0  0  0  0  0  0  0  0  0  0
   21.5932   19.3621   20.3728 H   0  0  0  0  0  0  0  0  0  0  0  0
   20.2712   18.8502   19.3307 H   0  0  0  0  0  0  0  0  0  0  0  0
   19.9041   20.7327   20.3330 C   0  0  0  0  0  0  0  0  0  0  0  0
   20.2042   21.2735   21.2391 H   0  0  0  0  0  0  0  0  0  0  0  0
   20.2546   21.3124   19.4692 H   0  0  0  0  0  0  0  0  0  0  0  0
   18.8073   20.7022   20.2968 H   0  0  0  0  0  0  0  0  0  0  0  0
  1  2  1  0  0  0  0
  1  3  2  0  0  0  0
  1  4  1  0  0  0  0
  4  5  1  0  0  0  0
  4  6  1  0  0  0  0
  4  7  1  0  0  0  0
  7  8  1  0  0  0  0
  7  9  1  0  0  0  0
  7 10  1  0  0  0  0
 10 11  1  0  0  0  0
 10 12  1  0  0  0  0
 10 13  1  0  0  0  0
 13 14  1  0  0  0  0
 13 15  1  0  0  0  0
 13 16  1  0  0  0  0
 16 17  1  0  0  0  0
 16 18  1  0  0  0  0
 16 19  1  0  0  0  0
 19 20  1  0  0  0  0
 19 21  1  0  0  0  0
 19 22  1  0  0  0  0
 22 23  1  0  0  0  0
 22 24  1  0  0  0  0
 22 25  1  0  0  0  0
M  END
> <VM2 Rank>
11

> <Conf_Id>
918

> <Probability>
1.45

> <Sum Probability>
69.28

> <Delta G>
1.703

> <G>
-6.259

> <E>
-30.875

> <-TS>
24.616

> <U+W>
-51.443

> <U>
7.701

> <W>
-59.144

> <W(PB)>
-61.609

> <W(SA)>
2.466

> <Valence>
8.550

> <Coulomb>
-1.988

> <VdW>
1.139

> <VdW6>
-8.989

> <VdW12>
10.127

> <Bond>
0.191

> <Angle>
2.738

> <Pdih>
5.621

> <Idih>
0.001

> <Tether>
0.000

$$$$
VeraChem MOL file


 25 24  0  0  0  0  0  0  0  0999 V2000     
   20.5515   19.2704   27.3961 C   0  0  0  0  0  0  0  0  0  0  0  0
   21.5344   19.9705   27.5394 O   0  5  0  0  0  0  0  0  0  0  0  0
   19.8335   18.9224   28.3127 O   0  0  0  0  0  0  0  0  0  0  0  0
   20.1853   18.8233   25.9855 C   0  0  0  0  0  0  0  0  0  0  0  0
   19.7045   17.8402   26.0543 H   0  0  0  0  0  0  0  0  0  0  0  0
   21.1178   18.6914   25.4254 H   0  0  0  0  0  0  0  0  0  0  0  0
   19.2501   19.8270   25.2622 C   0  0  0  0  0  0  0  0  0  0  0  0
   18.3694   20.0069   25.8942 H   0  0  0  0  0  0  0  0  0  0  0  0
   19.7604   20.7947   25.1591 H   0  0  0  0  0  0  0  0  0  0  0  0
   18.7728   19.3371   23.8744 C   0  0  0  0  0  0  0  0  0  0  0  0
   18.0320   20.0507   23.4886 H   0  0  0  0  0  0  0  0  0  0  0  0
   18.2516   18.3761   23.9831 H   0  0  0  0  0  0  0  0  0  0  0  0
   19.9178   19.1960   22.8449 C   0  0  0  0  0  0  0  0  0  0  0  0
   20.4694   20.1433   22.7881 H   0  0  0  0  0  0  0  0  0  0  0  0
   20.6283   18.4283   23.1773 H   0  0  0  0  0  0  0  0  0  0  0  0
   19.3809   18.8154   21.4456 C   0  0  0  0  0  0  0  0  0  0  0  0
   18.7136   19.6065   21.0771 H   0  0  0  0  0  0  0  0  0  0  0  0
   18.7686   17.9075   21.5330 H   0  0  0  0  0  0  0  0  0  0  0  0
   20.4979   18.5566   20.4078 C   0  0  0  0  0  0  0  0  0  0  0  0
   21.1623   17.7595   20.7688 H   0  0  0  0  0  0  0  0  0  0  0  0
   20.0391   18.1825   19.4821 H   0  0  0  0  0  0  0  0  0  0  0  0
   21.3289   19.8154   20.0773 C   0  0  0  0  0  0  0  0  0  0  0  0
   20.6819   20.6366   19.7422 H   0  0  0  0  0  0  0  0  0  0  0  0
   21.8989   20.1596   20.9493 H   0  0  0  0  0  0  0  0  0  0  0  0
   22.0466   19.6017   19.2747 H   0  0  0  0  0  0  0  0  0  0  0  0
  1  2  1  0  0  0  0
  1  3  2  0  0  0  0
  1  4  1  0  0  0  0
  4  5  1  0  0  0  0
  4  6  1  0  0  0  0
  4  7  1  0  0  0  0
  7  8  1  0  0  0  0
  7  9  1  0  0  0  0
  7 10  1  0  0  0  0
 10 11  1  0  0  0  0
 10 12  1  0  0  0  0
 10 13  1  0  0  0  0
 13 14  1  0  0  0  0
 13 15  1  0  0  0  0
 13 16  1  0  0  0  0
 16 17  1  0  0  0  0
 16 18  1  0  0  0  0
 16 19  1  0  0  0  0
 19 20  1  0  0  0  0
 19 21  1  0  0  0  0
 19 22  1  0  0  0  0
 22 23  1  0  0  0  0
 22 24  1  0  0  0  0
 22 25  1  0  0  0  0
M  END
> <VM2 Rank>
12

> <Conf_Id>
182

> <Probability>
1.39

> <Sum Probability>
70.67

> <Delta G>
1.726

> <G>
-6.236

> <E>
-30.856

> <-TS>
24.620

> <U+W>
-51.423

> <U>
7.651

> <W>
-59.074

> <W(PB)>
-61.560

> <W(SA)>
2.486

> <Valence>
8.550

> <Coulomb>
-2.035

> <VdW>
1.135

> <VdW6>
-8.973

> <VdW12>
10.108

> <Bond>
0.188

> <Angle>
2.738

> <Pdih>
5.623

> <Idih>
0.001

> <Tether>
0.000

$$$$
VeraChem MOL file


 25 24  0  0  0  0  0  0  0  0999 V2000     
   20.5593   19.0820   27.3493 C   0  0  0  0  0  0  0  0  0  0  0  0
   21.5719   19.7177   27.5667 O   0  5  0  0  0  0  0  0  0  0  0  0
   19.8312   18.6558   28.2239 O   0  0  0  0  0  0  0  0  0  0  0  0
   20.1679   18.8251   25.8985 C   0  0  0  0  0  0  0  0  0  0  0  0
   19.6454   17.8621   25.8526 H   0  0  0  0  0  0  0  0  0  0  0  0
   21.0914   18.7226   25.3178 H   0  0  0  0  0  0  0  0  0  0  0  0
   19.2737   19.9478   25.3109 C   0  0  0  0  0  0  0  0  0  0  0  0
   18.4053   20.0877   25.9695 H   0  0  0  0  0  0  0  0  0  0  0  0
   19.8252   20.8981   25.3191 H   0  0  0  0  0  0  0  0  0  0  0  0
   18.7672   19.6496   23.8796 C   0  0  0  0  0  0  0  0  0  0  0  0
   18.0533   20.4338   23.5928 H   0  0  0  0  0  0  0  0  0  0  0  0
   18.2079   18.7040   23.8767 H   0  0  0  0  0  0  0  0  0  0  0  0
   19.8983   19.5886   22.8270 C   0  0  0  0  0  0  0  0  0  0  0  0
   20.4866   20.5154   22.8664 H   0  0  0  0  0  0  0  0  0  0  0  0
   20.5797   18.7637   23.0673 H   0  0  0  0  0  0  0  0  0  0  0  0
   19.3375   19.3937   21.3992 C   0  0  0  0  0  0  0  0  0  0  0  0
   18.6080   20.1879   21.1896 H   0  0  0  0  0  0  0  0  0  0  0  0
   18.7879   18.4441   21.3441 H   0  0  0  0  0  0  0  0  0  0  0  0
   20.4259   19.4259   20.3009 C   0  0  0  0  0  0  0  0  0  0  0  0
   19.9354   19.4008   19.3181 H   0  0  0  0  0  0  0  0  0  0  0  0
   20.9742   20.3769   20.3497 H   0  0  0  0  0  0  0  0  0  0  0  0
   21.4203   18.2478   20.3900 C   0  0  0  0  0  0  0  0  0  0  0  0
   20.8920   17.2856   20.3751 H   0  0  0  0  0  0  0  0  0  0  0  0
   22.1137   18.2658   19.5393 H   0  0  0  0  0  0  0  0  0  0  0  0
   22.0197   18.2977   21.3075 H   0  0  0  0  0  0  0  0  0  0  0  0
  1  2  1  0  0  0  0
  1  3  2  0  0  0  0
  1  4  1  0  0  0  0
  4  5  1  0  0  0  0
  4  6  1  0  0  0  0
  4  7  1  0  0  0  0
  7  8  1  0  0  0  0
  7  9  1  0  0  0  0
  7 10  1  0  0  0  0
 10 11  1  0  0  0  0
 10 12  1  0  0  0  0
 10 13  1  0  0  0  0
 13 14  1  0  0  0  0
 13 15  1  0  0  0  0
 13 16  1  0  0  0  0
 16 17  1  0  0  0  0
 16 18  1  0  0  0  0
 16 19  1  0  0  0  0
 19 20  1  0  0  0  0
 19 21  1  0  0  0  0
 19 22  1  0  0  0  0
 22 23  1  0  0  0  0
 22 24  1  0  0  0  0
 22 25  1  0  0  0  0
M  END
> <VM2 Rank>
13

> <Conf_Id>
879

> <Probability>
1.38

> <Sum Probability>
72.05

> <Delta G>
1.733

> <G>
-6.229

> <E>
-30.844

> <-TS>
24.615

> <U+W>
-51.412

> <U>
7.701

> <W>
-59.113

> <W(PB)>
-61.599

> <W(SA)>
2.486

> <Valence>
8.550

> <Coulomb>
-1.988

> <VdW>
1.139

> <VdW6>
-8.988

> <VdW12>
10.127

> <Bond>
0.191

> <Angle>
2.738

> <Pdih>
5.621

> <Idih>
0.001

> <Tether>
0.000

$$$$
VeraChem MOL file


 25 24  0  0  0  0  0  0  0  0999 V2000     
   20.2131   19.0380   27.4838 C   0  0  0  0  0  0  0  0  0  0  0  0
   21.2610   19.1169   28.0940 O   0  5  0  0  0  0  0  0  0  0  0  0
   19.1204   19.0978   28.0122 O   0  0  0  0  0  0  0  0  0  0  0  0
   20.2726   18.8785   25.9689 C   0  0  0  0  0  0  0  0  0  0  0  0
   19.4109   18.2746   25.6630 H   0  0  0  0  0  0  0  0  0  0  0  0
   21.1752   18.3068   25.7222 H   0  0  0  0  0  0  0  0  0  0  0  0
   20.2798   20.2379   25.2226 C   0  0  0  0  0  0  0  0  0  0  0  0
   19.3518   20.7830   25.4442 H   0  0  0  0  0  0  0  0  0  0  0  0
   21.1016   20.8524   25.6156 H   0  0  0  0  0  0  0  0  0  0  0  0
   20.4522   20.0990   23.6914 C   0  0  0  0  0  0  0  0  0  0  0  0
   21.3924   19.5725   23.4814 H   0  0  0  0  0  0  0  0  0  0  0  0
   20.5527   21.1035   23.2584 H   0  0  0  0  0  0  0  0  0  0  0  0
   19.2705   19.3700   23.0062 C   0  0  0  0  0  0  0  0  0  0  0  0
   19.2317   18.3231   23.3343 H   0  0  0  0  0  0  0  0  0  0  0  0
   18.3286   19.8340   23.3292 H   0  0  0  0  0  0  0  0  0  0  0  0
   19.3351   19.4146   21.4610 C   0  0  0  0  0  0  0  0  0  0  0  0
   19.3584   20.4598   21.1233 H   0  0  0  0  0  0  0  0  0  0  0  0
   18.4089   18.9799   21.0609 H   0  0  0  0  0  0  0  0  0  0  0  0
   20.5432   18.6504   20.8737 C   0  0  0  0  0  0  0  0  0  0  0  0
   21.4813   19.1169   21.2021 H   0  0  0  0  0  0  0  0  0  0  0  0
   20.5484   17.6188   21.2517 H   0  0  0  0  0  0  0  0  0  0  0  0
   20.5052   18.6309   19.3322 C   0  0  0  0  0  0  0  0  0  0  0  0
   19.5958   18.1357   18.9674 H   0  0  0  0  0  0  0  0  0  0  0  0
   20.5269   19.6507   18.9262 H   0  0  0  0  0  0  0  0  0  0  0  0
   21.3707   18.0878   18.9309 H   0  0  0  0  0  0  0  0  0  0  0  0
  1  2  1  0  0  0  0
  1  3  2  0  0  0  0
  1  4  1  0  0  0  0
  4  5  1  0  0  0  0
  4  6  1  0  0  0  0
  4  7  1  0  0  0  0
  7  8  1  0  0  0  0
  7  9  1  0  0  0  0
  7 10  1  0  0  0  0
 10 11  1  0  0  0  0
 10 12  1  0  0  0  0
 10 13  1  0  0  0  0
 13 14  1  0  0  0  0
 13 15  1  0  0  0  0
 13 16  1  0  0  0  0
 16 17  1  0  0  0  0
 16 18  1  0  0  0  0
 16 19  1  0  0  0  0
 19 20  1  0  0  0  0
 19 21  1  0  0  0  0
 19 22  1  0  0  0  0
 22 23  1  0  0  0  0
 22 24  1  0  0  0  0
 22 25  1  0  0  0  0
M  END
> <VM2 Rank>
14

> <Conf_Id>
183

> <Probability>
1.33

> <Sum Probability>
73.38

> <Delta G>
1.754

> <G>
-6.208

> <E>
-30.844

> <-TS>
24.636

> <U+W>
-51.412

> <U>
7.389

> <W>
-58.801

> <W(PB)>
-61.267

> <W(SA)>
2.466

> <Valence>
8.557

> <Coulomb>
-2.278

> <VdW>
1.110

> <VdW6>
-9.029

> <VdW12>
10.139

> <Bond>
0.192

> <Angle>
2.717

> <Pdih>
5.648

> <Idih>
0.001

> <Tether>
0.000

$$$$
VeraChem MOL file


 25 24  0  0  0  0  0  0  0  0999 V2000     
   20.1300   19.3383   27.8293 C   0  0  0  0  0  0  0  0  0  0  0  0
   21.0194   20.1667   27.8666 O   0  5  0  0  0  0  0  0  0  0  0  0
   19.6101   18.8772   28.8259 O   0  0  0  0  0  0  0  0  0  0  0  0
   19.6204   18.8328   26.4787 C   0  0  0  0  0  0  0  0  0  0  0  0
   18.5433   19.0335   26.4398 H   0  0  0  0  0  0  0  0  0  0  0  0
   19.7445   17.7435   26.4694 H   0  0  0  0  0  0  0  0  0  0  0  0
   20.3144   19.4505   25.2356 C   0  0  0  0  0  0  0  0  0  0  0  0
   20.1917   20.5424   25.2547 H   0  0  0  0  0  0  0  0  0  0  0  0
   21.3940   19.2512   25.2842 H   0  0  0  0  0  0  0  0  0  0  0  0
   19.7407   18.8862   23.9177 C   0  0  0  0  0  0  0  0  0  0  0  0
   18.6614   19.0866   23.8713 H   0  0  0  0  0  0  0  0  0  0  0  0
   19.8644   17.7946   23.9009 H   0  0  0  0  0  0  0  0  0  0  0  0
   20.4325   19.5021   22.6825 C   0  0  0  0  0  0  0  0  0  0  0  0
   20.3089   20.5937   22.6991 H   0  0  0  0  0  0  0  0  0  0  0  0
   21.5118   19.3018   22.7286 H   0  0  0  0  0  0  0  0  0  0  0  0
   19.8593   18.9382   21.3644 C   0  0  0  0  0  0  0  0  0  0  0  0
   18.7800   19.1385   21.3181 H   0  0  0  0  0  0  0  0  0  0  0  0
   19.9829   17.8466   21.3476 H   0  0  0  0  0  0  0  0  0  0  0  0
   20.5507   19.5538   20.1298 C   0  0  0  0  0  0  0  0  0  0  0  0
   20.4275   20.6457   20.1421 H   0  0  0  0  0  0  0  0  0  0  0  0
   21.6304   19.3539   20.1716 H   0  0  0  0  0  0  0  0  0  0  0  0
   19.9755   18.9883   18.8156 C   0  0  0  0  0  0  0  0  0  0  0  0
   18.9018   19.2019   18.7326 H   0  0  0  0  0  0  0  0  0  0  0  0
   20.4782   19.4365   17.9487 H   0  0  0  0  0  0  0  0  0  0  0  0
   20.1138   17.9004   18.7624 H   0  0  0  0  0  0  0  0  0  0  0  0
  1  2  1  0  0  0  0
  1  3  2  0  0  0  0
  1  4  1  0  0  0  0
  4  5  1  0  0  0  0
  4  6  1  0  0  0  0
  4  7  1  0  0  0  0
  7  8  1  0  0  0  0
  7  9  1  0  0  0  0
  7 10  1  0  0  0  0
 10 11  1  0  0  0  0
 10 12  1  0  0  0  0
 10 13  1  0  0  0  0
 13 14  1  0  0  0  0
 13 15  1  0  0  0  0
 13 16  1  0  0  0  0
 16 17  1  0  0  0  0
 16 18  1  0  0  0  0
 16 19  1  0  0  0  0
 19 20  1  0  0  0  0
 19 21  1  0  0  0  0
 19 22  1  0  0  0  0
 22 23  1  0  0  0  0
 22 24  1  0  0  0  0
 22 25  1  0  0  0  0
M  END
> <VM2 Rank>
15

> <Conf_Id>
0

> <Probability>
1.20

> <Sum Probability>
74.57

> <Delta G>
1.818

> <G>
-6.144

> <E>
-31.062

> <-TS>
24.917

> <U+W>
-51.629

> <U>
6.586

> <W>
-58.216

> <W(PB)>
-60.757

> <W(SA)>
2.541

> <Valence>
8.027

> <Coulomb>
-2.892

> <VdW>
1.451

> <VdW6>
-7.931

> <VdW12>
9.383

> <Bond>
0.149

> <Angle>
2.726

> <Pdih>
5.152

> <Idih>
0.000

> <Tether>
0.000

$$$$
VeraChem MOL file


 25 24  0  0  0  0  0  0  0  0999 V2000     
   20.1523   19.6508   27.4260 C   0  0  0  0  0  0  0  0  0  0  0  0
   21.1979   20.2014   27.7092 O   0  5  0  0  0  0  0  0  0  0  0  0
   19.0774   19.9621   27.8999 O   0  0  0  0  0  0  0  0  0  0  0  0
   20.1880   18.5199   26.4043 C   0  0  0  0  0  0  0  0  0  0  0  0
   19.4011   17.8016   26.6639 H   0  0  0  0  0  0  0  0  0  0  0  0
   21.1482   17.9999   26.5051 H   0  0  0  0  0  0  0  0  0  0  0  0
   20.0002   19.0176   24.9499 C   0  0  0  0  0  0  0  0  0  0  0  0
   19.0392   19.5440   24.8677 H   0  0  0  0  0  0  0  0  0  0  0  0
   20.7865   19.7489   24.7206 H   0  0  0  0  0  0  0  0  0  0  0  0
   20.0449   17.8522   23.9345 C   0  0  0  0  0  0  0  0  0  0  0  0
   19.3016   17.0968   24.2241 H   0  0  0  0  0  0  0  0  0  0  0  0
   21.0248   17.3576   23.9807 H   0  0  0  0  0  0  0  0  0  0  0  0
   19.7551   18.2929   22.4800 C   0  0  0  0  0  0  0  0  0  0  0  0
   19.6944   17.3957   21.8493 H   0  0  0  0  0  0  0  0  0  0  0  0
   18.7678   18.7714   22.4381 H   0  0  0  0  0  0  0  0  0  0  0  0
   20.8304   19.2443   21.9005 C   0  0  0  0  0  0  0  0  0  0  0  0
   21.8235   18.8040   22.0632 H   0  0  0  0  0  0  0  0  0  0  0  0
   20.8192   20.1996   22.4413 H   0  0  0  0  0  0  0  0  0  0  0  0
   20.6545   19.5169   20.3884 C   0  0  0  0  0  0  0  0  0  0  0  0
   21.5104   20.1080   20.0345 H   0  0  0  0  0  0  0  0  0  0  0  0
   20.6824   18.5684   19.8344 H   0  0  0  0  0  0  0  0  0  0  0  0
   19.3523   20.2759   20.0533 C   0  0  0  0  0  0  0  0  0  0  0  0
   19.2898   21.2162   20.6163 H   0  0  0  0  0  0  0  0  0  0  0  0
   19.3139   20.5191   18.9836 H   0  0  0  0  0  0  0  0  0  0  0  0
   18.4660   19.6737   20.2892 H   0  0  0  0  0  0  0  0  0  0  0  0
  1  2  1  0  0  0  0
  1  3  2  0  0  0  0
  1  4  1  0  0  0  0
  4  5  1  0  0  0  0
  4  6  1  0  0  0  0
  4  7  1  0  0  0  0
  7  8  1  0  0  0  0
  7  9  1  0  0  0  0
  7 10  1  0  0  0  0
 10 11  1  0  0  0  0
 10 12  1  0  0  0  0
 10 13  1  0  0  0  0
 13 14  1  0  0  0  0
 13 15  1  0  0  0  0
 13 16  1  0  0  0  0
 16 17  1  0  0  0  0
 16 18  1  0  0  0  0
 16 19  1  0  0  0  0
 19 20  1  0  0  0  0
 19 21  1  0  0  0  0
 19 22  1  0  0  0  0
 22 23  1  0  0  0  0
 22 24  1  0  0  0  0
 22 25  1  0  0  0  0
M  END
> <VM2 Rank>
16

> <Conf_Id>
781

> <Probability>
1.19

> <Sum Probability>
75.76

> <Delta G>
1.821

> <G>
-6.141

> <E>
-30.782

> <-TS>
24.641

> <U+W>
-51.350

> <U>
7.838

> <W>
-59.188

> <W(PB)>
-61.681

> <W(SA)>
2.492

> <Valence>
8.536

> <Coulomb>
-1.810

> <VdW>
1.112

> <VdW6>
-8.987

> <VdW12>
10.099

> <Bond>
0.183

> <Angle>
2.700

> <Pdih>
5.652

> <Idih>
0.001

> <Tether>
0.000

$$$$
VeraChem MOL file


 25 24  0  0  0  0  0  0  0  0999 V2000     
   20.1522   19.4755   27.5760 C   0  0  0  0  0  0  0  0  0  0  0  0
   21.2360   19.8744   27.9541 O   0  5  0  0  0  0  0  0  0  0  0  0
   19.3550   18.9079   28.2965 O   0  0  0  0  0  0  0  0  0  0  0  0
   19.7818   19.6767   26.1109 C   0  0  0  0  0  0  0  0  0  0  0  0
   20.2383   20.6157   25.7788 H   0  0  0  0  0  0  0  0  0  0  0  0
   18.6943   19.8031   26.0496 H   0  0  0  0  0  0  0  0  0  0  0  0
   20.2352   18.4976   25.2110 C   0  0  0  0  0  0  0  0  0  0  0  0
   21.3302   18.4114   25.2419 H   0  0  0  0  0  0  0  0  0  0  0  0
   19.8391   17.5629   25.6315 H   0  0  0  0  0  0  0  0  0  0  0  0
   19.7610   18.6186   23.7429 C   0  0  0  0  0  0  0  0  0  0  0  0
   18.6670   18.7139   23.7163 H   0  0  0  0  0  0  0  0  0  0  0  0
   20.0044   17.6795   23.2301 H   0  0  0  0  0  0  0  0  0  0  0  0
   20.4076   19.8033   22.9833 C   0  0  0  0  0  0  0  0  0  0  0  0
   20.1654   20.7421   23.4971 H   0  0  0  0  0  0  0  0  0  0  0  0
   21.5016   19.7076   23.0087 H   0  0  0  0  0  0  0  0  0  0  0  0
   19.9326   19.9276   21.5157 C   0  0  0  0  0  0  0  0  0  0  0  0
   20.3226   20.8684   21.1038 H   0  0  0  0  0  0  0  0  0  0  0  0
   18.8373   20.0078   21.4887 H   0  0  0  0  0  0  0  0  0  0  0  0
   20.3930   18.7596   20.6140 C   0  0  0  0  0  0  0  0  0  0  0  0
   21.4832   18.6436   20.6855 H   0  0  0  0  0  0  0  0  0  0  0  0
   19.9471   17.8169   20.9569 H   0  0  0  0  0  0  0  0  0  0  0  0
   19.9985   18.9929   19.1416 C   0  0  0  0  0  0  0  0  0  0  0  0
   18.9096   19.0855   19.0370 H   0  0  0  0  0  0  0  0  0  0  0  0
   20.4599   19.9095   18.7512 H   0  0  0  0  0  0  0  0  0  0  0  0
   20.3290   18.1542   18.5151 H   0  0  0  0  0  0  0  0  0  0  0  0
  1  2  1  0  0  0  0
  1  3  2  0  0  0  0
  1  4  1  0  0  0  0
  4  5  1  0  0  0  0
  4  6  1  0  0  0  0
  4  7  1  0  0  0  0
  7  8  1  0  0  0  0
  7  9  1  0  0  0  0
  7 10  1  0  0  0  0
 10 11  1  0  0  0  0
 10 12  1  0  0  0  0
 10 13  1  0  0  0  0
 13 14  1  0  0  0  0
 13 15  1  0  0  0  0
 13 16  1  0  0  0  0
 16 17  1  0  0  0  0
 16 18  1  0  0  0  0
 16 19  1  0  0  0  0
 19 20  1  0  0  0  0
 19 21  1  0  0  0  0
 19 22  1  0  0  0  0
 22 23  1  0  0  0  0
 22 24  1  0  0  0  0
 22 25  1  0  0  0  0
M  END
> <VM2 Rank>
17

> <Conf_Id>
576

> <Probability>
1.19

> <Sum Probability>
76.95

> <Delta G>
1.823

> <G>
-6.140

> <E>
-30.689

> <-TS>
24.549

> <U+W>
-51.256

> <U>
7.507

> <W>
-58.763

> <W(PB)>
-61.243

> <W(SA)>
2.480

> <Valence>
8.668

> <Coulomb>
-2.355

> <VdW>
1.194

> <VdW6>
-8.929

> <VdW12>
10.122

> <Bond>
0.201

> <Angle>
2.816

> <Pdih>
5.651

> <Idih>
0.001

> <Tether>
0.000

$$$$
VeraChem MOL file


 25 24  0  0  0  0  0  0  0  0999 V2000     
   19.6153   19.4344   27.0507 C   0  0  0  0  0  0  0  0  0  0  0  0
   20.1488   19.2812   28.1318 O   0  5  0  0  0  0  0  0  0  0  0  0
   18.6446   20.1438   26.8737 O   0  0  0  0  0  0  0  0  0  0  0  0
   20.2106   18.7143   25.8462 C   0  0  0  0  0  0  0  0  0  0  0  0
   19.3875   18.4659   25.1665 H   0  0  0  0  0  0  0  0  0  0  0  0
   20.6437   17.7688   26.1937 H   0  0  0  0  0  0  0  0  0  0  0  0
   21.2854   19.5585   25.1138 C   0  0  0  0  0  0  0  0  0  0  0  0
   20.8315   20.4854   24.7388 H   0  0  0  0  0  0  0  0  0  0  0  0
   22.0477   19.8678   25.8421 H   0  0  0  0  0  0  0  0  0  0  0  0
   21.9866   18.8012   23.9579 C   0  0  0  0  0  0  0  0  0  0  0  0
   22.5336   17.9446   24.3748 H   0  0  0  0  0  0  0  0  0  0  0  0
   22.7468   19.4593   23.5153 H   0  0  0  0  0  0  0  0  0  0  0  0
   21.0488   18.2923   22.8343 C   0  0  0  0  0  0  0  0  0  0  0  0
   21.6593   17.7676   22.0868 H   0  0  0  0  0  0  0  0  0  0  0  0
   20.3528   17.5445   23.2361 H   0  0  0  0  0  0  0  0  0  0  0  0
   20.2563   19.4197   22.1333 C   0  0  0  0  0  0  0  0  0  0  0  0
   20.9527   20.1894   21.7736 H   0  0  0  0  0  0  0  0  0  0  0  0
   19.5835   19.9055   22.8522 H   0  0  0  0  0  0  0  0  0  0  0  0
   19.4253   18.8819   20.9494 C   0  0  0  0  0  0  0  0  0  0  0  0
   20.0894   18.3996   20.2187 H   0  0  0  0  0  0  0  0  0  0  0  0
   18.7292   18.1103   21.3064 H   0  0  0  0  0  0  0  0  0  0  0  0
   18.6312   20.0067   20.2552 C   0  0  0  0  0  0  0  0  0  0  0  0
   19.3059   20.7780   19.8610 H   0  0  0  0  0  0  0  0  0  0  0  0
   18.0466   19.6069   19.4165 H   0  0  0  0  0  0  0  0  0  0  0  0
   17.9350   20.4859   20.9559 H   0  0  0  0  0  0  0  0  0  0  0  0
  1  2  1  0  0  0  0
  1  3  2  0  0  0  0
  1  4  1  0  0  0  0
  4  5  1  0  0  0  0
  4  6  1  0  0  0  0
  4  7  1  0  0  0  0
  7  8  1  0  0  0  0
  7  9  1  0  0  0  0
  7 10  1  0  0  0  0
 10 11  1  0  0  0  0
 10 12  1  0  0  0  0
 10 13  1  0  0  0  0
 13 14  1  0  0  0  0
 13 15  1  0  0  0  0
 13 16  1  0  0  0  0
 16 17  1  0  0  0  0
 16 18  1  0  0  0  0
 16 19  1  0  0  0  0
 19 20  1  0  0  0  0
 19 21  1  0  0  0  0
 19 22  1  0  0  0  0
 22 23  1  0  0  0  0
 22 24  1  0  0  0  0
 22 25  1  0  0  0  0
M  END
> <VM2 Rank>
18

> <Conf_Id>
1048

> <Probability>
1.18

> <Sum Probability>
78.13

> <Delta G>
1.826

> <G>
-6.136

> <E>
-30.979

> <-TS>
24.844

> <U+W>
-51.547

> <U>
8.114

> <W>
-59.661

> <W(PB)>
-62.134

> <W(SA)>
2.473

> <Valence>
8.487

> <Coulomb>
-1.260

> <VdW>
0.887

> <VdW6>
-9.447

> <VdW12>
10.334

> <Bond>
0.199

> <Angle>
2.915

> <Pdih>
5.373

> <Idih>
0.001

> <Tether>
0.000

$$$$
VeraChem MOL file


 25 24  0  0  0  0  0  0  0  0999 V2000     
   20.2736   18.9847   27.4365 C   0  0  0  0  0  0  0  0  0  0  0  0
   21.4447   18.8465   27.7299 O   0  5  0  0  0  0  0  0  0  0  0  0
   19.3749   18.3290   27.9255 O   0  0  0  0  0  0  0  0  0  0  0  0
   19.9139   20.0243   26.3810 C   0  0  0  0  0  0  0  0  0  0  0  0
   20.6286   20.8523   26.4608 H   0  0  0  0  0  0  0  0  0  0  0  0
   18.9229   20.4266   26.6232 H   0  0  0  0  0  0  0  0  0  0  0  0
   19.9216   19.4489   24.9433 C   0  0  0  0  0  0  0  0  0  0  0  0
   20.9164   19.0352   24.7318 H   0  0  0  0  0  0  0  0  0  0  0  0
   19.2083   18.6153   24.8822 H   0  0  0  0  0  0  0  0  0  0  0  0
   19.5581   20.5241   23.8931 C   0  0  0  0  0  0  0  0  0  0  0  0
   20.3005   21.3336   23.9190 H   0  0  0  0  0  0  0  0  0  0  0  0
   18.5946   20.9773   24.1638 H   0  0  0  0  0  0  0  0  0  0  0  0
   19.4503   19.9660   22.4541 C   0  0  0  0  0  0  0  0  0  0  0  0
   18.6953   19.1693   22.4319 H   0  0  0  0  0  0  0  0  0  0  0  0
   19.0808   20.7649   21.7969 H   0  0  0  0  0  0  0  0  0  0  0  0
   20.7952   19.4376   21.8977 C   0  0  0  0  0  0  0  0  0  0  0  0
   21.1181   18.5562   22.4669 H   0  0  0  0  0  0  0  0  0  0  0  0
   21.5685   20.2042   22.0420 H   0  0  0  0  0  0  0  0  0  0  0  0
   20.7352   19.0757   20.3954 C   0  0  0  0  0  0  0  0  0  0  0  0
   20.4304   19.9562   19.8131 H   0  0  0  0  0  0  0  0  0  0  0  0
   21.7464   18.8135   20.0549 H   0  0  0  0  0  0  0  0  0  0  0  0
   19.7856   17.8970   20.0898 C   0  0  0  0  0  0  0  0  0  0  0  0
   19.8414   17.6241   19.0280 H   0  0  0  0  0  0  0  0  0  0  0  0
   20.0550   17.0121   20.6810 H   0  0  0  0  0  0  0  0  0  0  0  0
   18.7427   18.1553   20.3122 H   0  0  0  0  0  0  0  0  0  0  0  0
  1  2  1  0  0  0  0
  1  3  2  0  0  0  0
  1  4  1  0  0  0  0
  4  5  1  0  0  0  0
  4  6  1  0  0  0  0
  4  7  1  0  0  0  0
  7  8  1  0  0  0  0
  7  9  1  0  0  0  0
  7 10  1  0  0  0  0
 10 11  1  0  0  0  0
 10 12  1  0  0  0  0
 10 13  1  0  0  0  0
 13 14  1  0  0  0  0
 13 15  1  0  0  0  0
 13 16  1  0  0  0  0
 16 17  1  0  0  0  0
 16 18  1  0  0  0  0
 16 19  1  0  0  0  0
 19 20  1  0  0  0  0
 19 21  1  0  0  0  0
 19 22  1  0  0  0  0
 22 23  1  0  0  0  0
 22 24  1  0  0  0  0
 22 25  1  0  0  0  0
M  END
> <VM2 Rank>
19

> <Conf_Id>
268

> <Probability>
1.16

> <Sum Probability>
79.28

> <Delta G>
1.838

> <G>
-6.124

> <E>
-30.766

> <-TS>
24.642

> <U+W>
-51.333

> <U>
7.838

> <W>
-59.172

> <W(PB)>
-61.674

> <W(SA)>
2.503

> <Valence>
8.536

> <Coulomb>
-1.810

> <VdW>
1.112

> <VdW6>
-8.988

> <VdW12>
10.100

> <Bond>
0.183

> <Angle>
2.701

> <Pdih>
5.652

> <Idih>
0.001

> <Tether>
0.000

$$$$
VeraChem MOL file


 25 24  0  0  0  0  0  0  0  0999 V2000     
   20.6711   19.5017   27.0383 C   0  0  0  0  0  0  0  0  0  0  0  0
   21.5393   20.3285   26.8398 O   0  5  0  0  0  0  0  0  0  0  0  0
   20.1868   19.2834   28.1313 O   0  0  0  0  0  0  0  0  0  0  0  0
   20.1443   18.7100   25.8469 C   0  0  0  0  0  0  0  0  0  0  0  0
   19.8428   17.7177   26.2030 H   0  0  0  0  0  0  0  0  0  0  0  0
   20.9763   18.5670   25.1480 H   0  0  0  0  0  0  0  0  0  0  0  0
   18.9544   19.4099   25.1407 C   0  0  0  0  0  0  0  0  0  0  0  0
   18.1760   19.6210   25.8869 H   0  0  0  0  0  0  0  0  0  0  0  0
   19.2782   20.3864   24.7569 H   0  0  0  0  0  0  0  0  0  0  0  0
   18.3285   18.5681   24.0001 C   0  0  0  0  0  0  0  0  0  0  0  0
   17.4810   19.1238   23.5762 H   0  0  0  0  0  0  0  0  0  0  0  0
   17.9044   17.6496   24.4282 H   0  0  0  0  0  0  0  0  0  0  0  0
   19.2972   18.1807   22.8545 C   0  0  0  0  0  0  0  0  0  0  0  0
   20.0915   17.5277   23.2391 H   0  0  0  0  0  0  0  0  0  0  0  0
   18.7411   17.5819   22.1204 H   0  0  0  0  0  0  0  0  0  0  0  0
   19.9241   19.3986   22.1373 C   0  0  0  0  0  0  0  0  0  0  0  0
   20.5462   19.9667   22.8414 H   0  0  0  0  0  0  0  0  0  0  0  0
   19.1276   20.0732   21.7949 H   0  0  0  0  0  0  0  0  0  0  0  0
   20.7892   18.9689   20.9337 C   0  0  0  0  0  0  0  0  0  0  0  0
   21.5854   18.2922   21.2735 H   0  0  0  0  0  0  0  0  0  0  0  0
   20.1750   18.4054   20.2177 H   0  0  0  0  0  0  0  0  0  0  0  0
   21.4182   20.1843   20.2234 C   0  0  0  0  0  0  0  0  0  0  0  0
   22.0640   20.7488   20.9087 H   0  0  0  0  0  0  0  0  0  0  0  0
   22.0294   19.8607   19.3709 H   0  0  0  0  0  0  0  0  0  0  0  0
   20.6424   20.8634   19.8460 H   0  0  0  0  0  0  0  0  0  0  0  0
  1  2  1  0  0  0  0
  1  3  2  0  0  0  0
  1  4  1  0  0  0  0
  4  5  1  0  0  0  0
  4  6  1  0  0  0  0
  4  7  1  0  0  0  0
  7  8  1  0  0  0  0
  7  9  1  0  0  0  0
  7 10  1  0  0  0  0
 10 11  1  0  0  0  0
 10 12  1  0  0  0  0
 10 13  1  0  0  0  0
 13 14  1  0  0  0  0
 13 15  1  0  0  0  0
 13 16  1  0  0  0  0
 16 17  1  0  0  0  0
 16 18  1  0  0  0  0
 16 19  1  0  0  0  0
 19 20  1  0  0  0  0
 19 21  1  0  0  0  0
 19 22  1  0  0  0  0
 22 23  1  0  0  0  0
 22 24  1  0  0  0  0
 22 25  1  0  0  0  0
M  END
> <VM2 Rank>
20

> <Conf_Id>
1034

> <Probability>
1.15

> <Sum Probability>
80.44

> <Delta G>
1.839

> <G>
-6.123

> <E>
-30.968

> <-TS>
24.844

> <U+W>
-51.535

> <U>
8.115

> <W>
-59.650

> <W(PB)>
-62.101

> <W(SA)>
2.451

> <Valence>
8.487

> <Coulomb>
-1.259

> <VdW>
0.887

> <VdW6>
-9.448

> <VdW12>
10.335

> <Bond>
0.199

> <Angle>
2.915

> <Pdih>
5.372

> <Idih>
0.001

> <Tether>
0.000

$$$$
VeraChem MOL file


 25 24  0  0  0  0  0  0  0  0999 V2000     
   20.0883   19.1107   27.5395 C   0  0  0  0  0  0  0  0  0  0  0  0
   21.1572   18.9459   28.0936 O   0  5  0  0  0  0  0  0  0  0  0  0
   19.0706   18.5246   27.8516 O   0  0  0  0  0  0  0  0  0  0  0  0
   20.0255   20.0915   26.3740 C   0  0  0  0  0  0  0  0  0  0  0  0
   20.7469   20.8948   26.5660 H   0  0  0  0  0  0  0  0  0  0  0  0
   19.0278   20.5466   26.3652 H   0  0  0  0  0  0  0  0  0  0  0  0
   20.3195   19.4225   25.0086 C   0  0  0  0  0  0  0  0  0  0  0  0
   21.3177   18.9641   25.0370 H   0  0  0  0  0  0  0  0  0  0  0  0
   19.5983   18.6102   24.8502 H   0  0  0  0  0  0  0  0  0  0  0  0
   20.2448   20.4383   23.8449 C   0  0  0  0  0  0  0  0  0  0  0  0
   20.9136   21.2815   24.0656 H   0  0  0  0  0  0  0  0  0  0  0  0
   19.2304   20.8554   23.7804 H   0  0  0  0  0  0  0  0  0  0  0  0
   20.6475   19.8417   22.4750 C   0  0  0  0  0  0  0  0  0  0  0  0
   20.7082   20.6649   21.7518 H   0  0  0  0  0  0  0  0  0  0  0  0
   21.6562   19.4121   22.5431 H   0  0  0  0  0  0  0  0  0  0  0  0
   19.6574   18.7715   21.9526 C   0  0  0  0  0  0  0  0  0  0  0  0
   18.6483   19.2005   21.8875 H   0  0  0  0  0  0  0  0  0  0  0  0
   19.5991   17.9452   22.6722 H   0  0  0  0  0  0  0  0  0  0  0  0
   20.0581   18.1818   20.5800 C   0  0  0  0  0  0  0  0  0  0  0  0
   21.0718   17.7619   20.6380 H   0  0  0  0  0  0  0  0  0  0  0  0
   19.3879   17.3423   20.3492 H   0  0  0  0  0  0  0  0  0  0  0  0
   19.9840   19.2055   19.4261 C   0  0  0  0  0  0  0  0  0  0  0  0
   18.9882   19.6643   19.3711 H   0  0  0  0  0  0  0  0  0  0  0  0
   20.7254   20.0045   19.5494 H   0  0  0  0  0  0  0  0  0  0  0  0
   20.1830   18.7145   18.4647 H   0  0  0  0  0  0  0  0  0  0  0  0
  1  2  1  0  0  0  0
  1  3  2  0  0  0  0
  1  4  1  0  0  0  0
  4  5  1  0  0  0  0
  4  6  1  0  0  0  0
  4  7  1  0  0  0  0
  7  8  1  0  0  0  0
  7  9  1  0  0  0  0
  7 10  1  0  0  0  0
 10 11  1  0  0  0  0
 10 12  1  0  0  0  0
 10 13  1  0  0  0  0
 13 14  1  0  0  0  0
 13 15  1  0  0  0  0
 13 16  1  0  0  0  0
 16 17  1  0  0  0  0
 16 18  1  0  0  0  0
 16 19  1  0  0  0  0
 19 20  1  0  0  0  0
 19 21  1  0  0  0  0
 19 22  1  0  0  0  0
 22 23  1  0  0  0  0
 22 24  1  0  0  0  0
 22 25  1  0  0  0  0
M  END
> <VM2 Rank>
21

> <Conf_Id>
503

> <Probability>
1.14

> <Sum Probability>
81.57

> <Delta G>
1.848

> <G>
-6.114

> <E>
-30.673

> <-TS>
24.559

> <U+W>
-51.241

> <U>
7.805

> <W>
-59.047

> <W(PB)>
-61.531

> <W(SA)>
2.484

> <Valence>
8.642

> <Coulomb>
-2.028

> <VdW>
1.191

> <VdW6>
-8.891

> <VdW12>
10.082

> <Bond>
0.190

> <Angle>
2.795

> <Pdih>
5.656

> <Idih>
0.001

> <Tether>
0.000

$$$$
VeraChem MOL file


 25 24  0  0  0  0  0  0  0  0999 V2000     
   20.2530   19.1205   27.5376 C   0  0  0  0  0  0  0  0  0  0  0  0
   21.3407   18.6615   27.8255 O   0  5  0  0  0  0  0  0  0  0  0  0
   19.2246   18.8291   28.1157 O   0  0  0  0  0  0  0  0  0  0  0  0
   20.1708   20.1002   26.3724 C   0  0  0  0  0  0  0  0  0  0  0  0
   21.1060   20.6720   26.3414 H   0  0  0  0  0  0  0  0  0  0  0  0
   19.3626   20.8112   26.5820 H   0  0  0  0  0  0  0  0  0  0  0  0
   19.9281   19.3989   25.0131 C   0  0  0  0  0  0  0  0  0  0  0  0
   20.7379   18.6789   24.8371 H   0  0  0  0  0  0  0  0  0  0  0  0
   18.9931   18.8240   25.0637 H   0  0  0  0  0  0  0  0  0  0  0  0
   19.8537   20.4148   23.8494 C   0  0  0  0  0  0  0  0  0  0  0  0
   20.8089   20.9505   23.7622 H   0  0  0  0  0  0  0  0  0  0  0  0
   19.0938   21.1719   24.0866 H   0  0  0  0  0  0  0  0  0  0  0  0
   19.4941   19.7724   22.4883 C   0  0  0  0  0  0  0  0  0  0  0  0
   18.5459   19.2252   22.5788 H   0  0  0  0  0  0  0  0  0  0  0  0
   19.3189   20.5813   21.7678 H   0  0  0  0  0  0  0  0  0  0  0  0
   20.5930   18.8275   21.9420 C   0  0  0  0  0  0  0  0  0  0  0  0
   20.7658   18.0149   22.6589 H   0  0  0  0  0  0  0  0  0  0  0  0
   21.5419   19.3739   21.8549 H   0  0  0  0  0  0  0  0  0  0  0  0
   20.2347   18.1926   20.5779 C   0  0  0  0  0  0  0  0  0  0  0  0
   20.9949   17.4387   20.3309 H   0  0  0  0  0  0  0  0  0  0  0  0
   19.2798   17.6549   20.6580 H   0  0  0  0  0  0  0  0  0  0  0  0
   20.1604   19.2164   19.4240 C   0  0  0  0  0  0  0  0  0  0  0  0
   21.0930   19.7903   19.3473 H   0  0  0  0  0  0  0  0  0  0  0  0
   19.9996   18.7039   18.4667 H   0  0  0  0  0  0  0  0  0  0  0  0
   19.3321   19.9216   19.5652 H   0  0  0  0  0  0  0  0  0  0  0  0
  1  2  1  0  0  0  0
  1  3  2  0  0  0  0
  1  4  1  0  0  0  0
  4  5  1  0  0  0  0
  4  6  1  0  0  0  0
  4  7  1  0  0  0  0
  7  8  1  0  0  0  0
  7  9  1  0  0  0  0
  7 10  1  0  0  0  0
 10 11  1  0  0  0  0
 10 12  1  0  0  0  0
 10 13  1  0  0  0  0
 13 14  1  0  0  0  0
 13 15  1  0  0  0  0
 13 16  1  0  0  0  0
 16 17  1  0  0  0  0
 16 18  1  0  0  0  0
 16 19  1  0  0  0  0
 19 20  1  0  0  0  0
 19 21  1  0  0  0  0
 19 22  1  0  0  0  0
 22 23  1  0  0  0  0
 22 24  1  0  0  0  0
 22 25  1  0  0  0  0
M  END
> <VM2 Rank>
22

> <Conf_Id>
557

> <Probability>
1.13

> <Sum Probability>
82.70

> <Delta G>
1.851

> <G>
-6.111

> <E>
-30.669

> <-TS>
24.559

> <U+W>
-51.237

> <U>
7.805

> <W>
-59.042

> <W(PB)>
-61.534

> <W(SA)>
2.491

> <Valence>
8.642

> <Coulomb>
-2.028

> <VdW>
1.191

> <VdW6>
-8.891

> <VdW12>
10.082

> <Bond>
0.190

> <Angle>
2.795

> <Pdih>
5.656

> <Idih>
0.001

> <Tether>
0.000

$$$$
VeraChem MOL file


 25 24  0  0  0  0  0  0  0  0999 V2000     
   19.7039   19.2291   27.2209 C   0  0  0  0  0  0  0  0  0  0  0  0
   20.4101   18.6341   28.0107 O   0  5  0  0  0  0  0  0  0  0  0  0
   18.4894   19.1948   27.2450 O   0  0  0  0  0  0  0  0  0  0  0  0
   20.3794   20.0489   26.1274 C   0  0  0  0  0  0  0  0  0  0  0  0
   21.3136   20.4544   26.5339 H   0  0  0  0  0  0  0  0  0  0  0  0
   19.7312   20.9013   25.8909 H   0  0  0  0  0  0  0  0  0  0  0  0
   20.6653   19.2247   24.8479 C   0  0  0  0  0  0  0  0  0  0  0  0
   21.3078   18.3704   25.1018 H   0  0  0  0  0  0  0  0  0  0  0  0
   19.7189   18.8139   24.4719 H   0  0  0  0  0  0  0  0  0  0  0  0
   21.3435   20.0809   23.7535 C   0  0  0  0  0  0  0  0  0  0  0  0
   22.2466   20.5454   24.1723 H   0  0  0  0  0  0  0  0  0  0  0  0
   20.6818   20.9086   23.4664 H   0  0  0  0  0  0  0  0  0  0  0  0
   21.7514   19.2691   22.4982 C   0  0  0  0  0  0  0  0  0  0  0  0
   22.2577   19.9422   21.7930 H   0  0  0  0  0  0  0  0  0  0  0  0
   22.4984   18.5180   22.7888 H   0  0  0  0  0  0  0  0  0  0  0  0
   20.5898   18.5550   21.7617 C   0  0  0  0  0  0  0  0  0  0  0  0
   20.1406   17.7961   22.4155 H   0  0  0  0  0  0  0  0  0  0  0  0
   21.0084   18.0083   20.9059 H   0  0  0  0  0  0  0  0  0  0  0  0
   19.4951   19.5199   21.2532 C   0  0  0  0  0  0  0  0  0  0  0  0
   19.0086   20.0181   22.1022 H   0  0  0  0  0  0  0  0  0  0  0  0
   19.9516   20.3068   20.6372 H   0  0  0  0  0  0  0  0  0  0  0  0
   18.4253   18.7774   20.4274 C   0  0  0  0  0  0  0  0  0  0  0  0
   17.9332   18.0023   21.0295 H   0  0  0  0  0  0  0  0  0  0  0  0
   17.6537   19.4753   20.0772 H   0  0  0  0  0  0  0  0  0  0  0  0
   18.8715   18.2964   19.5472 H   0  0  0  0  0  0  0  0  0  0  0  0
  1  2  1  0  0  0  0
  1  3  2  0  0  0  0
  1  4  1  0  0  0  0
  4  5  1  0  0  0  0
  4  6  1  0  0  0  0
  4  7  1  0  0  0  0
  7  8  1  0  0  0  0
  7  9  1  0  0  0  0
  7 10  1  0  0  0  0
 10 11  1  0  0  0  0
 10 12  1  0  0  0  0
 10 13  1  0  0  0  0
 13 14  1  0  0  0  0
 13 15  1  0  0  0  0
 13 16  1  0  0  0  0
 16 17  1  0  0  0  0
 16 18  1  0  0  0  0
 16 19  1  0  0  0  0
 19 20  1  0  0  0  0
 19 21  1  0  0  0  0
 19 22  1  0  0  0  0
 22 23  1  0  0  0  0
 22 24  1  0  0  0  0
 22 25  1  0  0  0  0
M  END
> <VM2 Rank>
23

> <Conf_Id>
1064

> <Probability>
1.12

> <Sum Probability>
83.82

> <Delta G>
1.859

> <G>
-6.103

> <E>
-30.934

> <-TS>
24.831

> <U+W>
-51.502

> <U>
8.128

> <W>
-59.630

> <W(PB)>
-62.104

> <W(SA)>
2.474

> <Valence>
8.508

> <Coulomb>
-1.299

> <VdW>
0.920

> <VdW6>
-9.370

> <VdW12>
10.290

> <Bond>
0.192

> <Angle>
2.932

> <Pdih>
5.383

> <Idih>
0.000

> <Tether>
0.000

$$$$
VeraChem MOL file


 25 24  0  0  0  0  0  0  0  0999 V2000     
   20.2385   19.2607   27.5817 C   0  0  0  0  0  0  0  0  0  0  0  0
   21.2898   19.7405   27.9576 O   0  5  0  0  0  0  0  0  0  0  0  0
   19.2575   19.1502   28.2902 O   0  0  0  0  0  0  0  0  0  0  0  0
   20.1373   18.7928   26.1343 C   0  0  0  0  0  0  0  0  0  0  0  0
   19.4410   17.9464   26.0986 H   0  0  0  0  0  0  0  0  0  0  0  0
   21.1226   18.4168   25.8371 H   0  0  0  0  0  0  0  0  0  0  0  0
   19.6654   19.9151   25.1734 C   0  0  0  0  0  0  0  0  0  0  0  0
   18.7250   20.3338   25.5581 H   0  0  0  0  0  0  0  0  0  0  0  0
   20.3955   20.7362   25.1803 H   0  0  0  0  0  0  0  0  0  0  0  0
   19.4337   19.4330   23.7213 C   0  0  0  0  0  0  0  0  0  0  0  0
   18.9692   20.2548   23.1619 H   0  0  0  0  0  0  0  0  0  0  0  0
   18.7102   18.6064   23.7191 H   0  0  0  0  0  0  0  0  0  0  0  0
   20.7338   18.9918   23.0048 C   0  0  0  0  0  0  0  0  0  0  0  0
   21.4570   19.8187   23.0057 H   0  0  0  0  0  0  0  0  0  0  0  0
   21.1989   18.1710   23.5652 H   0  0  0  0  0  0  0  0  0  0  0  0
   20.5038   18.5067   21.5533 C   0  0  0  0  0  0  0  0  0  0  0  0
   19.7689   17.6901   21.5502 H   0  0  0  0  0  0  0  0  0  0  0  0
   21.4436   18.0794   21.1777 H   0  0  0  0  0  0  0  0  0  0  0  0
   20.0449   19.6258   20.5910 C   0  0  0  0  0  0  0  0  0  0  0  0
   19.0646   20.0125   20.8987 H   0  0  0  0  0  0  0  0  0  0  0  0
   20.7505   20.4666   20.6370 H   0  0  0  0  0  0  0  0  0  0  0  0
   19.9484   19.1175   19.1383 C   0  0  0  0  0  0  0  0  0  0  0  0
   19.2281   18.2928   19.0581 H   0  0  0  0  0  0  0  0  0  0  0  0
   19.6184   19.9220   18.4682 H   0  0  0  0  0  0  0  0  0  0  0  0
   20.9225   18.7581   18.7817 H   0  0  0  0  0  0  0  0  0  0  0  0
  1  2  1  0  0  0  0
  1  3  2  0  0  0  0
  1  4  1  0  0  0  0
  4  5  1  0  0  0  0
  4  6  1  0  0  0  0
  4  7  1  0  0  0  0
  7  8  1  0  0  0  0
  7  9  1  0  0  0  0
  7 10  1  0  0  0  0
 10 11  1  0  0  0  0
 10 12  1  0  0  0  0
 10 13  1  0  0  0  0
 13 14  1  0  0  0  0
 13 15  1  0  0  0  0
 13 16  1  0  0  0  0
 16 17  1  0  0  0  0
 16 18  1  0  0  0  0
 16 19  1  0  0  0  0
 19 20  1  0  0  0  0
 19 21  1  0  0  0  0
 19 22  1  0  0  0  0
 22 23  1  0  0  0  0
 22 24  1  0  0  0  0
 22 25  1  0  0  0  0
M  END
> <VM2 Rank>
24

> <Conf_Id>
975

> <Probability>
1.10

> <Sum Probability>
84.92

> <Delta G>
1.866

> <G>
-6.097

> <E>
-30.645

> <-TS>
24.549

> <U+W>
-51.213

> <U>
7.506

> <W>
-58.719

> <W(PB)>
-61.242

> <W(SA)>
2.522

> <Valence>
8.668

> <Coulomb>
-2.355

> <VdW>
1.194

> <VdW6>
-8.929

> <VdW12>
10.123

> <Bond>
0.201

> <Angle>
2.816

> <Pdih>
5.651

> <Idih>
0.001

> <Tether>
0.000

$$$$
VeraChem MOL file


 25 24  0  0  0  0  0  0  0  0999 V2000     
   19.7735   19.5908   27.2108 C   0  0  0  0  0  0  0  0  0  0  0  0
   20.6581   19.9234   27.9748 O   0  5  0  0  0  0  0  0  0  0  0  0
   18.6586   20.0741   27.2203 O   0  0  0  0  0  0  0  0  0  0  0  0
   20.0855   18.5208   26.1707 C   0  0  0  0  0  0  0  0  0  0  0  0
   19.1652   17.9578   25.9743 H   0  0  0  0  0  0  0  0  0  0  0  0
   20.8072   17.8208   26.6085 H   0  0  0  0  0  0  0  0  0  0  0  0
   20.6430   19.1093   24.8513 C   0  0  0  0  0  0  0  0  0  0  0  0
   19.9122   19.8203   24.4434 H   0  0  0  0  0  0  0  0  0  0  0  0
   21.5589   19.6773   25.0649 H   0  0  0  0  0  0  0  0  0  0  0  0
   20.9443   18.0045   23.8124 C   0  0  0  0  0  0  0  0  0  0  0  0
   20.0202   17.4664   23.5640 H   0  0  0  0  0  0  0  0  0  0  0  0
   21.6154   17.2621   24.2654 H   0  0  0  0  0  0  0  0  0  0  0  0
   21.6107   18.5376   22.5191 C   0  0  0  0  0  0  0  0  0  0  0  0
   22.5857   18.9735   22.7761 H   0  0  0  0  0  0  0  0  0  0  0  0
   21.8246   17.6875   21.8571 H   0  0  0  0  0  0  0  0  0  0  0  0
   20.7884   19.5896   21.7323 C   0  0  0  0  0  0  0  0  0  0  0  0
   21.3709   19.8949   20.8525 H   0  0  0  0  0  0  0  0  0  0  0  0
   20.6587   20.4954   22.3389 H   0  0  0  0  0  0  0  0  0  0  0  0
   19.4092   19.0722   21.2654 C   0  0  0  0  0  0  0  0  0  0  0  0
   19.5357   18.1398   20.6982 H   0  0  0  0  0  0  0  0  0  0  0  0
   18.7815   18.8366   22.1351 H   0  0  0  0  0  0  0  0  0  0  0  0
   18.6818   20.1115   20.3888 C   0  0  0  0  0  0  0  0  0  0  0  0
   19.2654   20.3443   19.4886 H   0  0  0  0  0  0  0  0  0  0  0  0
   17.7032   19.7307   20.0691 H   0  0  0  0  0  0  0  0  0  0  0  0
   18.5178   21.0454   20.9424 H   0  0  0  0  0  0  0  0  0  0  0  0
  1  2  1  0  0  0  0
  1  3  2  0  0  0  0
  1  4  1  0  0  0  0
  4  5  1  0  0  0  0
  4  6  1  0  0  0  0
  4  7  1  0  0  0  0
  7  8  1  0  0  0  0
  7  9  1  0  0  0  0
  7 10  1  0  0  0  0
 10 11  1  0  0  0  0
 10 12  1  0  0  0  0
 10 13  1  0  0  0  0
 13 14  1  0  0  0  0
 13 15  1  0  0  0  0
 13 16  1  0  0  0  0
 16 17  1  0  0  0  0
 16 18  1  0  0  0  0
 16 19  1  0  0  0  0
 19 20  1  0  0  0  0
 19 21  1  0  0  0  0
 19 22  1  0  0  0  0
 22 23  1  0  0  0  0
 22 24  1  0  0  0  0
 22 25  1  0  0  0  0
M  END
> <VM2 Rank>
25

> <Conf_Id>
401

> <Probability>
1.03

> <Sum Probability>
85.95

> <Delta G>
1.909

> <G>
-6.053

> <E>
-30.883

> <-TS>
24.830

> <U+W>
-51.451

> <U>
8.128

> <W>
-59.579

> <W(PB)>
-62.033

> <W(SA)>
2.454

> <Valence>
8.508

> <Coulomb>
-1.300

> <VdW>
0.920

> <VdW6>
-9.369

> <VdW12>
10.289

> <Bond>
0.192

> <Angle>
2.932

> <Pdih>
5.383

> <Idih>
0.001

> <Tether>
0.000

$$$$
VeraChem MOL file


 25 24  0  0  0  0  0  0  0  0999 V2000     
   20.4111   19.2566   27.5224 C   0  0  0  0  0  0  0  0  0  0  0  0
   21.5114   19.6713   27.8290 O   0  5  0  0  0  0  0  0  0  0  0  0
   19.4335   19.3482   28.2384 O   0  0  0  0  0  0  0  0  0  0  0  0
   20.2430   18.6042   26.1549 C   0  0  0  0  0  0  0  0  0  0  0  0
   19.4701   17.8308   26.2389 H   0  0  0  0  0  0  0  0  0  0  0  0
   21.1822   18.0980   25.9012 H   0  0  0  0  0  0  0  0  0  0  0  0
   19.8662   19.6184   25.0469 C   0  0  0  0  0  0  0  0  0  0  0  0
   18.9314   20.1260   25.3224 H   0  0  0  0  0  0  0  0  0  0  0  0
   20.6434   20.3927   24.9840 H   0  0  0  0  0  0  0  0  0  0  0  0
   19.7024   18.9337   23.6726 C   0  0  0  0  0  0  0  0  0  0  0  0
   18.9231   18.1621   23.7366 H   0  0  0  0  0  0  0  0  0  0  0  0
   20.6392   18.4245   23.4109 H   0  0  0  0  0  0  0  0  0  0  0  0
   19.3328   19.9508   22.5685 C   0  0  0  0  0  0  0  0  0  0  0  0
   18.4371   20.5054   22.8799 H   0  0  0  0  0  0  0  0  0  0  0  0
   20.1322   20.6965   22.4681 H   0  0  0  0  0  0  0  0  0  0  0  0
   19.0456   19.2949   21.1942 C   0  0  0  0  0  0  0  0  0  0  0  0
   18.7420   20.0786   20.4869 H   0  0  0  0  0  0  0  0  0  0  0  0
   18.1804   18.6253   21.2938 H   0  0  0  0  0  0  0  0  0  0  0  0
   20.2239   18.4982   20.5812 C   0  0  0  0  0  0  0  0  0  0  0  0
   20.4772   17.6430   21.2215 H   0  0  0  0  0  0  0  0  0  0  0  0
   19.8965   18.0723   19.6228 H   0  0  0  0  0  0  0  0  0  0  0  0
   21.4832   19.3578   20.3380 C   0  0  0  0  0  0  0  0  0  0  0  0
   21.2481   20.2328   19.7183 H   0  0  0  0  0  0  0  0  0  0  0  0
   21.9136   19.7104   21.2838 H   0  0  0  0  0  0  0  0  0  0  0  0
   22.2538   18.7727   19.8197 H   0  0  0  0  0  0  0  0  0  0  0  0
  1  2  1  0  0  0  0
  1  3  2  0  0  0  0
  1  4  1  0  0  0  0
  4  5  1  0  0  0  0
  4  6  1  0  0  0  0
  4  7  1  0  0  0  0
  7  8  1  0  0  0  0
  7  9  1  0  0  0  0
  7 10  1  0  0  0  0
 10 11  1  0  0  0  0
 10 12  1  0  0  0  0
 10 13  1  0  0  0  0
 13 14  1  0  0  0  0
 13 15  1  0  0  0  0
 13 16  1  0  0  0  0
 16 17  1  0  0  0  0
 16 18  1  0  0  0  0
 16 19  1  0  0  0  0
 19 20  1  0  0  0  0
 19 21  1  0  0  0  0
 19 22  1  0  0  0  0
 22 23  1  0  0  0  0
 22 24  1  0  0  0  0
 22 25  1  0  0  0  0
M  END
> <VM2 Rank>
26

> <Conf_Id>
153

> <Probability>
0.97

> <Sum Probability>
86.91

> <Delta G>
1.945

> <G>
-6.017

> <E>
-30.819

> <-TS>
24.801

> <U+W>
-51.386

> <U>
7.567

> <W>
-58.953

> <W(PB)>
-61.393

> <W(SA)>
2.440

> <Valence>
8.483

> <Coulomb>
-1.912

> <VdW>
0.996

> <VdW6>
-9.207

> <VdW12>
10.203

> <Bond>
0.188

> <Angle>
2.901

> <Pdih>
5.393

> <Idih>
0.001

> <Tether>
0.000

$$$$
VeraChem MOL file


 25 24  0  0  0  0  0  0  0  0999 V2000     
   19.9152   19.2252   27.5282 C   0  0  0  0  0  0  0  0  0  0  0  0
   20.8896   19.4412   28.2214 O   0  5  0  0  0  0  0  0  0  0  0  0
   18.7785   19.4976   27.8606 O   0  0  0  0  0  0  0  0  0  0  0  0
   20.1330   18.5972   26.1562 C   0  0  0  0  0  0  0  0  0  0  0  0
   19.2599   17.9759   25.9235 H   0  0  0  0  0  0  0  0  0  0  0  0
   20.9993   17.9279   26.2214 H   0  0  0  0  0  0  0  0  0  0  0  0
   20.3530   19.6491   25.0412 C   0  0  0  0  0  0  0  0  0  0  0  0
   19.4830   20.3189   24.9973 H   0  0  0  0  0  0  0  0  0  0  0  0
   21.2222   20.2713   25.2959 H   0  0  0  0  0  0  0  0  0  0  0  0
   20.5704   18.9886   23.6626 C   0  0  0  0  0  0  0  0  0  0  0  0
   19.6997   18.3647   23.4218 H   0  0  0  0  0  0  0  0  0  0  0  0
   21.4422   18.3217   23.7076 H   0  0  0  0  0  0  0  0  0  0  0  0
   20.7832   20.0426   22.5518 C   0  0  0  0  0  0  0  0  0  0  0  0
   19.8939   20.6813   22.4709 H   0  0  0  0  0  0  0  0  0  0  0  0
   21.6086   20.7063   22.8433 H   0  0  0  0  0  0  0  0  0  0  0  0
   21.1191   19.4262   21.1703 C   0  0  0  0  0  0  0  0  0  0  0  0
   22.0639   18.8714   21.2490 H   0  0  0  0  0  0  0  0  0  0  0  0
   21.3050   20.2410   20.4574 H   0  0  0  0  0  0  0  0  0  0  0  0
   20.0370   18.4863   20.5833 C   0  0  0  0  0  0  0  0  0  0  0  0
   20.3933   18.1038   19.6170 H   0  0  0  0  0  0  0  0  0  0  0  0
   19.9084   17.6069   21.2281 H   0  0  0  0  0  0  0  0  0  0  0  0
   18.6740   19.1799   20.3704 C   0  0  0  0  0  0  0  0  0  0  0  0
   18.7825   20.0766   19.7467 H   0  0  0  0  0  0  0  0  0  0  0  0
   17.9717   18.5015   19.8692 H   0  0  0  0  0  0  0  0  0  0  0  0
   18.2244   19.4768   21.3264 H   0  0  0  0  0  0  0  0  0  0  0  0
  1  2  1  0  0  0  0
  1  3  2  0  0  0  0
  1  4  1  0  0  0  0
  4  5  1  0  0  0  0
  4  6  1  0  0  0  0
  4  7  1  0  0  0  0
  7  8  1  0  0  0  0
  7  9  1  0  0  0  0
  7 10  1  0  0  0  0
 10 11  1  0  0  0  0
 10 12  1  0  0  0  0
 10 13  1  0  0  0  0
 13 14  1  0  0  0  0
 13 15  1  0  0  0  0
 13 16  1  0  0  0  0
 16 17  1  0  0  0  0
 16 18  1  0  0  0  0
 16 19  1  0  0  0  0
 19 20  1  0  0  0  0
 19 21  1  0  0  0  0
 19 22  1  0  0  0  0
 22 23  1  0  0  0  0
 22 24  1  0  0  0  0
 22 25  1  0  0  0  0
M  END
> <VM2 Rank>
27

> <Conf_Id>
955

> <Probability>
0.94

> <Sum Probability>
87.85

> <Delta G>
1.963

> <G>
-5.999

> <E>
-30.800

> <-TS>
24.801

> <U+W>
-51.368

> <U>
7.567

> <W>
-58.935

> <W(PB)>
-61.398

> <W(SA)>
2.463

> <Valence>
8.483

> <Coulomb>
-1.912

> <VdW>
0.996

> <VdW6>
-9.207

> <VdW12>
10.202

> <Bond>
0.188

> <Angle>
2.901

> <Pdih>
5.392

> <Idih>
0.001

> <Tether>
0.000

$$$$
VeraChem MOL file


 25 24  0  0  0  0  0  0  0  0999 V2000     
   19.9087   19.5965   27.1472 C   0  0  0  0  0  0  0  0  0  0  0  0
   20.8839   20.1972   27.5538 O   0  5  0  0  0  0  0  0  0  0  0  0
   18.7781   20.0398   27.1928 O   0  0  0  0  0  0  0  0  0  0  0  0
   20.1103   18.2001   26.5655 C   0  0  0  0  0  0  0  0  0  0  0  0
   19.3342   17.5524   26.9898 H   0  0  0  0  0  0  0  0  0  0  0  0
   21.0743   17.8111   26.9150 H   0  0  0  0  0  0  0  0  0  0  0  0
   20.0398   18.1474   25.0172 C   0  0  0  0  0  0  0  0  0  0  0  0
   20.0633   17.0979   24.6944 H   0  0  0  0  0  0  0  0  0  0  0  0
   19.0754   18.5589   24.6912 H   0  0  0  0  0  0  0  0  0  0  0  0
   21.2037   18.9148   24.3453 C   0  0  0  0  0  0  0  0  0  0  0  0
   22.1556   18.5473   24.7523 H   0  0  0  0  0  0  0  0  0  0  0  0
   21.1473   19.9808   24.6056 H   0  0  0  0  0  0  0  0  0  0  0  0
   21.2355   18.7613   22.8061 C   0  0  0  0  0  0  0  0  0  0  0  0
   22.1540   19.2313   22.4289 H   0  0  0  0  0  0  0  0  0  0  0  0
   21.3008   17.6966   22.5435 H   0  0  0  0  0  0  0  0  0  0  0  0
   20.0177   19.3993   22.0982 C   0  0  0  0  0  0  0  0  0  0  0  0
   19.9231   20.4497   22.4059 H   0  0  0  0  0  0  0  0  0  0  0  0
   19.0956   18.8903   22.4071 H   0  0  0  0  0  0  0  0  0  0  0  0
   20.1461   19.3222   20.5622 C   0  0  0  0  0  0  0  0  0  0  0  0
   21.0622   19.8364   20.2402 H   0  0  0  0  0  0  0  0  0  0  0  0
   20.2428   18.2727   20.2512 H   0  0  0  0  0  0  0  0  0  0  0  0
   18.9293   19.9554   19.8578 C   0  0  0  0  0  0  0  0  0  0  0  0
   18.8268   21.0147   20.1274 H   0  0  0  0  0  0  0  0  0  0  0  0
   19.0374   19.8921   18.7672 H   0  0  0  0  0  0  0  0  0  0  0  0
   18.0013   19.4393   20.1369 H   0  0  0  0  0  0  0  0  0  0  0  0
  1  2  1  0  0  0  0
  1  3  2  0  0  0  0
  1  4  1  0  0  0  0
  4  5  1  0  0  0  0
  4  6  1  0  0  0  0
  4  7  1  0  0  0  0
  7  8  1  0  0  0  0
  7  9  1  0  0  0  0
  7 10  1  0  0  0  0
 10 11  1  0  0  0  0
 10 12  1  0  0  0  0
 10 13  1  0  0  0  0
 13 14  1  0  0  0  0
 13 15  1  0  0  0  0
 13 16  1  0  0  0  0
 16 17  1  0  0  0  0
 16 18  1  0  0  0  0
 16 19  1  0  0  0  0
 19 20  1  0  0  0  0
 19 21  1  0  0  0  0
 19 22  1  0  0  0  0
 22 23  1  0  0  0  0
 22 24  1  0  0  0  0
 22 25  1  0  0  0  0
M  END
> <VM2 Rank>
28

> <Conf_Id>
714

> <Probability>
0.58

> <Sum Probability>
88.43

> <Delta G>
2.246

> <G>
-5.716

> <E>
-30.531

> <-TS>
24.814

> <U+W>
-51.098

> <U>
8.902

> <W>
-60.001

> <W(PB)>
-62.477

> <W(SA)>
2.477

> <Valence>
8.306

> <Coulomb>
-0.225

> <VdW>
0.821

> <VdW6>
-9.236

> <VdW12>
10.057

> <Bond>
0.173

> <Angle>
2.663

> <Pdih>
5.469

> <Idih>
0.001

> <Tether>
0.000

$$$$
VeraChem MOL file


 25 24  0  0  0  0  0  0  0  0999 V2000     
   20.1333   19.6086   27.2638 C   0  0  0  0  0  0  0  0  0  0  0  0
   21.0989   20.2703   27.5904 O   0  5  0  0  0  0  0  0  0  0  0  0
   18.9848   19.9830   27.3974 O   0  0  0  0  0  0  0  0  0  0  0  0
   20.3783   18.2241   26.6703 C   0  0  0  0  0  0  0  0  0  0  0  0
   19.4544   17.6391   26.7533 H   0  0  0  0  0  0  0  0  0  0  0  0
   21.1268   17.7262   27.2978 H   0  0  0  0  0  0  0  0  0  0  0  0
   20.8677   18.2467   25.1989 C   0  0  0  0  0  0  0  0  0  0  0  0
   21.7774   18.8592   25.1274 H   0  0  0  0  0  0  0  0  0  0  0  0
   21.1487   17.2275   24.9010 H   0  0  0  0  0  0  0  0  0  0  0  0
   19.7962   18.7851   24.2243 C   0  0  0  0  0  0  0  0  0  0  0  0
   19.5226   19.8116   24.5050 H   0  0  0  0  0  0  0  0  0  0  0  0
   18.8846   18.1780   24.3099 H   0  0  0  0  0  0  0  0  0  0  0  0
   20.2931   18.7689   22.7625 C   0  0  0  0  0  0  0  0  0  0  0  0
   21.2066   19.3729   22.6869 H   0  0  0  0  0  0  0  0  0  0  0  0
   20.5616   17.7426   22.4772 H   0  0  0  0  0  0  0  0  0  0  0  0
   19.2214   19.3118   21.7890 C   0  0  0  0  0  0  0  0  0  0  0  0
   18.9876   20.3553   22.0405 H   0  0  0  0  0  0  0  0  0  0  0  0
   18.2919   18.7428   21.9275 H   0  0  0  0  0  0  0  0  0  0  0  0
   19.6372   19.2187   20.3023 C   0  0  0  0  0  0  0  0  0  0  0  0
   19.8656   18.1751   20.0455 H   0  0  0  0  0  0  0  0  0  0  0  0
   18.7817   19.5116   19.6781 H   0  0  0  0  0  0  0  0  0  0  0  0
   20.8420   20.1168   19.9471 C   0  0  0  0  0  0  0  0  0  0  0  0
   21.7529   19.7876   20.4625 H   0  0  0  0  0  0  0  0  0  0  0  0
   21.0407   20.0833   18.8680 H   0  0  0  0  0  0  0  0  0  0  0  0
   20.6482   21.1615   20.2228 H   0  0  0  0  0  0  0  0  0  0  0  0
  1  2  1  0  0  0  0
  1  3  2  0  0  0  0
  1  4  1  0  0  0  0
  4  5  1  0  0  0  0
  4  6  1  0  0  0  0
  4  7  1  0  0  0  0
  7  8  1  0  0  0  0
  7  9  1  0  0  0  0
  7 10  1  0  0  0  0
 10 11  1  0  0  0  0
 10 12  1  0  0  0  0
 10 13  1  0  0  0  0
 13 14  1  0  0  0  0
 13 15  1  0  0  0  0
 13 16  1  0  0  0  0
 16 17  1  0  0  0  0
 16 18  1  0  0  0  0
 16 19  1  0  0  0  0
 19 20  1  0  0  0  0
 19 21  1  0  0  0  0
 19 22  1  0  0  0  0
 22 23  1  0  0  0  0
 22 24  1  0  0  0  0
 22 25  1  0  0  0  0
M  END
> <VM2 Rank>
29

> <Conf_Id>
458

> <Probability>
0.57

> <Sum Probability>
89.00

> <Delta G>
2.258

> <G>
-5.704

> <E>
-30.526

> <-TS>
24.821

> <U+W>
-51.093

> <U>
8.782

> <W>
-59.875

> <W(PB)>
-62.360

> <W(SA)>
2.484

> <Valence>
8.287

> <Coulomb>
-0.382

> <VdW>
0.877

> <VdW6>
-9.130

> <VdW12>
10.007

> <Bond>
0.167

> <Angle>
2.660

> <Pdih>
5.459

> <Idih>
0.000

> <Tether>
0.000

$$$$
VeraChem MOL file


 25 24  0  0  0  0  0  0  0  0999 V2000     
   20.1155   19.2903   27.4030 C   0  0  0  0  0  0  0  0  0  0  0  0
   21.2137   19.6560   27.7733 O   0  5  0  0  0  0  0  0  0  0  0  0
   19.0743   19.7507   27.8287 O   0  0  0  0  0  0  0  0  0  0  0  0
   20.0368   18.1798   26.3591 C   0  0  0  0  0  0  0  0  0  0  0  0
   19.2862   17.4591   26.7045 H   0  0  0  0  0  0  0  0  0  0  0  0
   20.9975   17.6512   26.3365 H   0  0  0  0  0  0  0  0  0  0  0  0
   19.6639   18.6741   24.9371 C   0  0  0  0  0  0  0  0  0  0  0  0
   19.4812   17.7981   24.3019 H   0  0  0  0  0  0  0  0  0  0  0  0
   18.7205   19.2356   24.9829 H   0  0  0  0  0  0  0  0  0  0  0  0
   20.7688   19.5549   24.3058 C   0  0  0  0  0  0  0  0  0  0  0  0
   21.6998   18.9779   24.2213 H   0  0  0  0  0  0  0  0  0  0  0  0
   20.9869   20.3964   24.9777 H   0  0  0  0  0  0  0  0  0  0  0  0
   20.3853   20.1265   22.9200 C   0  0  0  0  0  0  0  0  0  0  0  0
   19.4547   20.7040   23.0054 H   0  0  0  0  0  0  0  0  0  0  0  0
   21.1641   20.8366   22.6100 H   0  0  0  0  0  0  0  0  0  0  0  0
   20.2295   19.0443   21.8264 C   0  0  0  0  0  0  0  0  0  0  0  0
   19.4017   18.3700   22.0810 H   0  0  0  0  0  0  0  0  0  0  0  0
   21.1408   18.4324   21.7828 H   0  0  0  0  0  0  0  0  0  0  0  0
   19.9621   19.6688   20.4407 C   0  0  0  0  0  0  0  0  0  0  0  0
   19.0521   20.2834   20.4812 H   0  0  0  0  0  0  0  0  0  0  0  0
   20.7890   20.3401   20.1704 H   0  0  0  0  0  0  0  0  0  0  0  0
   19.8031   18.5888   19.3517 C   0  0  0  0  0  0  0  0  0  0  0  0
   19.6141   19.0502   18.3737 H   0  0  0  0  0  0  0  0  0  0  0  0
   20.7117   17.9782   19.2685 H   0  0  0  0  0  0  0  0  0  0  0  0
   18.9615   17.9217   19.5800 H   0  0  0  0  0  0  0  0  0  0  0  0
  1  2  1  0  0  0  0
  1  3  2  0  0  0  0
  1  4  1  0  0  0  0
  4  5  1  0  0  0  0
  4  6  1  0  0  0  0
  4  7  1  0  0  0  0
  7  8  1  0  0  0  0
  7  9  1  0  0  0  0
  7 10  1  0  0  0  0
 10 11  1  0  0  0  0
 10 12  1  0  0  0  0
 10 13  1  0  0  0  0
 13 14  1  0  0  0  0
 13 15  1  0  0  0  0
 13 16  1  0  0  0  0
 16 17  1  0  0  0  0
 16 18  1  0  0  0  0
 16 19  1  0  0  0  0
 19 20  1  0  0  0  0
 19 21  1  0  0  0  0
 19 22  1  0  0  0  0
 22 23  1  0  0  0  0
 22 24  1  0  0  0  0
 22 25  1  0  0  0  0
M  END
> <VM2 Rank>
30

> <Conf_Id>
943

> <Probability>
0.57

> <Sum Probability>
89.57

> <Delta G>
2.260

> <G>
-5.702

> <E>
-30.523

> <-TS>
24.821

> <U+W>
-51.091

> <U>
8.377

> <W>
-59.468

> <W(PB)>
-61.944

> <W(SA)>
2.476

> <Valence>
8.357

> <Coulomb>
-0.892

> <VdW>
0.912

> <VdW6>
-9.161

> <VdW12>
10.073

> <Bond>
0.177

> <Angle>
2.702

> <Pdih>
5.478

> <Idih>
0.000

> <Tether>
0.000

$$$$
VeraChem MOL file


 25 24  0  0  0  0  0  0  0  0999 V2000     
   19.9594   18.9460   27.1547 C   0  0  0  0  0  0  0  0  0  0  0  0
   21.0151   18.5127   27.5730 O   0  5  0  0  0  0  0  0  0  0  0  0
   18.9109   18.3340   27.2121 O   0  0  0  0  0  0  0  0  0  0  0  0
   19.9434   20.3430   26.5408 C   0  0  0  0  0  0  0  0  0  0  0  0
   20.8350   20.8844   26.8797 H   0  0  0  0  0  0  0  0  0  0  0  0
   19.0756   20.8723   26.9516 H   0  0  0  0  0  0  0  0  0  0  0  0
   19.8684   20.3487   24.9919 C   0  0  0  0  0  0  0  0  0  0  0  0
   18.9799   19.7854   24.6771 H   0  0  0  0  0  0  0  0  0  0  0  0
   19.7295   21.3816   24.6452 H   0  0  0  0  0  0  0  0  0  0  0  0
   21.1382   19.7558   24.3356 C   0  0  0  0  0  0  0  0  0  0  0  0
   21.2473   18.7002   24.6204 H   0  0  0  0  0  0  0  0  0  0  0  0
   22.0210   20.2756   24.7323 H   0  0  0  0  0  0  0  0  0  0  0  0
   21.1485   19.8770   22.7932 C   0  0  0  0  0  0  0  0  0  0  0  0
   21.0484   20.9327   22.5062 H   0  0  0  0  0  0  0  0  0  0  0  0
   22.1294   19.5467   22.4252 H   0  0  0  0  0  0  0  0  0  0  0  0
   20.0457   19.0418   22.1024 C   0  0  0  0  0  0  0  0  0  0  0  0
   19.0552   19.4086   22.4013 H   0  0  0  0  0  0  0  0  0  0  0  0
   20.1146   17.9968   22.4343 H   0  0  0  0  0  0  0  0  0  0  0  0
   20.1630   19.1027   20.5648 C   0  0  0  0  0  0  0  0  0  0  0  0
   20.0963   20.1470   20.2297 H   0  0  0  0  0  0  0  0  0  0  0  0
   21.1484   18.7295   20.2529 H   0  0  0  0  0  0  0  0  0  0  0  0
   19.0604   18.2724   19.8774 C   0  0  0  0  0  0  0  0  0  0  0  0
   18.0632   18.6445   20.1464 H   0  0  0  0  0  0  0  0  0  0  0  0
   19.1592   18.3266   18.7854 H   0  0  0  0  0  0  0  0  0  0  0  0
   19.1231   17.2164   20.1714 H   0  0  0  0  0  0  0  0  0  0  0  0
  1  2  1  0  0  0  0
  1  3  2  0  0  0  0
  1  4  1  0  0  0  0
  4  5  1  0  0  0  0
  4  6  1  0  0  0  0
  4  7  1  0  0  0  0
  7  8  1  0  0  0  0
  7  9  1  0  0  0  0
  7 10  1  0  0  0  0
 10 11  1  0  0  0  0
 10 12  1  0  0  0  0
 10 13  1  0  0  0  0
 13 14  1  0  0  0  0
 13 15  1  0  0  0  0
 13 16  1  0  0  0  0
 16 17  1  0  0  0  0
 16 18  1  0  0  0  0
 16 19  1  0  0  0  0
 19 20  1  0  0  0  0
 19 21  1  0  0  0  0
 19 22  1  0  0  0  0
 22 23  1  0  0  0  0
 22 24  1  0  0  0  0
 22 25  1  0  0  0  0
M  END
> <VM2 Rank>
31

> <Conf_Id>
1110

> <Probability>
0.53

> <Sum Probability>
90.10

> <Delta G>
2.308

> <G>
-5.655

> <E>
-30.469

> <-TS>
24.815

> <U+W>
-51.037

> <U>
8.903

> <W>
-59.940

> <W(PB)>
-62.418

> <W(SA)>
2.478

> <Valence>
8.306

> <Coulomb>
-0.224

> <VdW>
0.821

> <VdW6>
-9.236

> <VdW12>
10.057

> <Bond>
0.173

> <Angle>
2.663

> <Pdih>
5.469

> <Idih>
0.001

> <Tether>
0.000

$$$$
VeraChem MOL file


 25 24  0  0  0  0  0  0  0  0999 V2000     
   19.8217   19.5707   27.1378 C   0  0  0  0  0  0  0  0  0  0  0  0
   20.6872   20.1252   27.7862 O   0  5  0  0  0  0  0  0  0  0  0  0
   18.7184   20.0429   26.9458 O   0  0  0  0  0  0  0  0  0  0  0  0
   20.1332   18.1976   26.5491 C   0  0  0  0  0  0  0  0  0  0  0  0
   19.1876   17.6992   26.3039 H   0  0  0  0  0  0  0  0  0  0  0  0
   20.6102   17.6035   27.3374 H   0  0  0  0  0  0  0  0  0  0  0  0
   21.0551   18.2404   25.3028 C   0  0  0  0  0  0  0  0  0  0  0  0
   21.9866   18.7650   25.5574 H   0  0  0  0  0  0  0  0  0  0  0  0
   21.3347   17.2136   25.0308 H   0  0  0  0  0  0  0  0  0  0  0  0
   20.3837   18.9233   24.0900 C   0  0  0  0  0  0  0  0  0  0  0  0
   20.1211   19.9587   24.3470 H   0  0  0  0  0  0  0  0  0  0  0  0
   19.4448   18.4033   23.8598 H   0  0  0  0  0  0  0  0  0  0  0  0
   21.3076   18.9198   22.8502 C   0  0  0  0  0  0  0  0  0  0  0  0
   22.2695   19.3760   23.1214 H   0  0  0  0  0  0  0  0  0  0  0  0
   21.5270   17.8849   22.5540 H   0  0  0  0  0  0  0  0  0  0  0  0
   20.7233   19.6910   21.6427 C   0  0  0  0  0  0  0  0  0  0  0  0
   21.4912   19.7439   20.8590 H   0  0  0  0  0  0  0  0  0  0  0  0
   20.5085   20.7273   21.9373 H   0  0  0  0  0  0  0  0  0  0  0  0
   19.4499   19.0423   21.0542 C   0  0  0  0  0  0  0  0  0  0  0  0
   19.6492   17.9898   20.8099 H   0  0  0  0  0  0  0  0  0  0  0  0
   18.6424   19.0516   21.7980 H   0  0  0  0  0  0  0  0  0  0  0  0
   18.9729   19.7807   19.7873 C   0  0  0  0  0  0  0  0  0  0  0  0
   18.7400   20.8304   20.0092 H   0  0  0  0  0  0  0  0  0  0  0  0
   19.7432   19.7582   19.0053 H   0  0  0  0  0  0  0  0  0  0  0  0
   18.0668   19.3106   19.3836 H   0  0  0  0  0  0  0  0  0  0  0  0
  1  2  1  0  0  0  0
  1  3  2  0  0  0  0
  1  4  1  0  0  0  0
  4  5  1  0  0  0  0
  4  6  1  0  0  0  0
  4  7  1  0  0  0  0
  7  8  1  0  0  0  0
  7  9  1  0  0  0  0
  7 10  1  0  0  0  0
 10 11  1  0  0  0  0
 10 12  1  0  0  0  0
 10 13  1  0  0  0  0
 13 14  1  0  0  0  0
 13 15  1  0  0  0  0
 13 16  1  0  0  0  0
 16 17  1  0  0  0  0
 16 18  1  0  0  0  0
 16 19  1  0  0  0  0
 19 20  1  0  0  0  0
 19 21  1  0  0  0  0
 19 22  1  0  0  0  0
 22 23  1  0  0  0  0
 22 24  1  0  0  0  0
 22 25  1  0  0  0  0
M  END
> <VM2 Rank>
32

> <Conf_Id>
208

> <Probability>
0.53

> <Sum Probability>
90.62

> <Delta G>
2.308

> <G>
-5.654

> <E>
-30.463

> <-TS>
24.809

> <U+W>
-51.030

> <U>
8.998

> <W>
-60.028

> <W(PB)>
-62.528

> <W(SA)>
2.499

> <Valence>
8.322

> <Coulomb>
-0.176

> <VdW>
0.852

> <VdW6>
-9.197

> <VdW12>
10.048

> <Bond>
0.171

> <Angle>
2.683

> <Pdih>
5.468

> <Idih>
0.000

> <Tether>
0.000

$$$$
VeraChem MOL file


 25 24  0  0  0  0  0  0  0  0999 V2000     
   20.1401   19.6090   27.2638 C   0  0  0  0  0  0  0  0  0  0  0  0
   21.2343   20.1267   27.3711 O   0  5  0  0  0  0  0  0  0  0  0  0
   19.1060   20.1429   27.6140 O   0  0  0  0  0  0  0  0  0  0  0  0
   20.0595   18.2038   26.6739 C   0  0  0  0  0  0  0  0  0  0  0  0
   19.3950   17.6156   27.3177 H   0  0  0  0  0  0  0  0  0  0  0  0
   21.0520   17.7411   26.7348 H   0  0  0  0  0  0  0  0  0  0  0  0
   19.5374   18.1619   25.2143 C   0  0  0  0  0  0  0  0  0  0  0  0
   19.3813   17.1148   24.9214 H   0  0  0  0  0  0  0  0  0  0  0  0
   18.5559   18.6538   25.1646 H   0  0  0  0  0  0  0  0  0  0  0  0
   20.5091   18.8306   24.2160 C   0  0  0  0  0  0  0  0  0  0  0  0
   21.4921   18.3443   24.2797 H   0  0  0  0  0  0  0  0  0  0  0  0
   20.6565   19.8840   24.4919 H   0  0  0  0  0  0  0  0  0  0  0  0
   19.9848   18.7494   22.7660 C   0  0  0  0  0  0  0  0  0  0  0  0
   19.8422   17.6969   22.4855 H   0  0  0  0  0  0  0  0  0  0  0  0
   19.0004   19.2323   22.7125 H   0  0  0  0  0  0  0  0  0  0  0  0
   20.9561   19.4224   21.7689 C   0  0  0  0  0  0  0  0  0  0  0  0
   21.9533   18.9763   21.8851 H   0  0  0  0  0  0  0  0  0  0  0  0
   21.0613   20.4876   22.0165 H   0  0  0  0  0  0  0  0  0  0  0  0
   20.5214   19.2751   20.2921 C   0  0  0  0  0  0  0  0  0  0  0  0
   21.3181   19.6734   19.6488 H   0  0  0  0  0  0  0  0  0  0  0  0
   20.4216   18.2105   20.0391 H   0  0  0  0  0  0  0  0  0  0  0  0
   19.2043   20.0122   19.9660 C   0  0  0  0  0  0  0  0  0  0  0  0
   19.2701   21.0735   20.2387 H   0  0  0  0  0  0  0  0  0  0  0  0
   18.9867   19.9522   18.8918 H   0  0  0  0  0  0  0  0  0  0  0  0
   18.3548   19.5707   20.5018 H   0  0  0  0  0  0  0  0  0  0  0  0
  1  2  1  0  0  0  0
  1  3  2  0  0  0  0
  1  4  1  0  0  0  0
  4  5  1  0  0  0  0
  4  6  1  0  0  0  0
  4  7  1  0  0  0  0
  7  8  1  0  0  0  0
  7  9  1  0  0  0  0
  7 10  1  0  0  0  0
 10 11  1  0  0  0  0
 10 12  1  0  0  0  0
 10 13  1  0  0  0  0
 13 14  1  0  0  0  0
 13 15  1  0  0  0  0
 13 16  1  0  0  0  0
 16 17  1  0  0  0  0
 16 18  1  0  0  0  0
 16 19  1  0  0  0  0
 19 20  1  0  0  0  0
 19 21  1  0  0  0  0
 19 22  1  0  0  0  0
 22 23  1  0  0  0  0
 22 24  1  0  0  0  0
 22 25  1  0  0  0  0
M  END
> <VM2 Rank>
33

> <Conf_Id>
523

> <Probability>
0.52

> <Sum Probability>
91.14

> <Delta G>
2.312

> <G>
-5.650

> <E>
-30.472

> <-TS>
24.822

> <U+W>
-51.040

> <U>
8.782

> <W>
-59.822

> <W(PB)>
-62.300

> <W(SA)>
2.478

> <Valence>
8.287

> <Coulomb>
-0.382

> <VdW>
0.877

> <VdW6>
-9.130

> <VdW12>
10.007

> <Bond>
0.167

> <Angle>
2.660

> <Pdih>
5.459

> <Idih>
0.000

> <Tether>
0.000

$$$$
VeraChem MOL file


 25 24  0  0  0  0  0  0  0  0999 V2000     
   19.8670   19.7468   27.0047 C   0  0  0  0  0  0  0  0  0  0  0  0
   20.7272   20.4787   27.4536 O   0  5  0  0  0  0  0  0  0  0  0  0
   18.7181   20.0955   26.8162 O   0  0  0  0  0  0  0  0  0  0  0  0
   20.2482   18.3055   26.6786 C   0  0  0  0  0  0  0  0  0  0  0  0
   19.3320   17.7055   26.6207 H   0  0  0  0  0  0  0  0  0  0  0  0
   20.8273   17.9199   27.5259 H   0  0  0  0  0  0  0  0  0  0  0  0
   21.0729   18.1511   25.3743 C   0  0  0  0  0  0  0  0  0  0  0  0
   21.9719   18.7802   25.4354 H   0  0  0  0  0  0  0  0  0  0  0  0
   21.4191   17.1119   25.2929 H   0  0  0  0  0  0  0  0  0  0  0  0
   20.2620   18.5192   24.1113 C   0  0  0  0  0  0  0  0  0  0  0  0
   19.9246   19.5610   24.1889 H   0  0  0  0  0  0  0  0  0  0  0  0
   19.3603   17.8940   24.0593 H   0  0  0  0  0  0  0  0  0  0  0  0
   21.0965   18.3322   22.8231 C   0  0  0  0  0  0  0  0  0  0  0  0
   21.9707   18.9971   22.8486 H   0  0  0  0  0  0  0  0  0  0  0  0
   21.4874   17.3059   22.7967 H   0  0  0  0  0  0  0  0  0  0  0  0
   20.2927   18.5833   21.5250 C   0  0  0  0  0  0  0  0  0  0  0  0
   19.4208   17.9155   21.4972 H   0  0  0  0  0  0  0  0  0  0  0  0
   20.9219   18.3082   20.6676 H   0  0  0  0  0  0  0  0  0  0  0  0
   19.8316   20.0490   21.3587 C   0  0  0  0  0  0  0  0  0  0  0  0
   19.1366   20.3207   22.1642 H   0  0  0  0  0  0  0  0  0  0  0  0
   20.6967   20.7213   21.4412 H   0  0  0  0  0  0  0  0  0  0  0  0
   19.1367   20.2726   20.0004 C   0  0  0  0  0  0  0  0  0  0  0  0
   18.2509   19.6315   19.9025 H   0  0  0  0  0  0  0  0  0  0  0  0
   18.8124   21.3165   19.8991 H   0  0  0  0  0  0  0  0  0  0  0  0
   19.8170   20.0471   19.1687 H   0  0  0  0  0  0  0  0  0  0  0  0
  1  2  1  0  0  0  0
  1  3  2  0  0  0  0
  1  4  1  0  0  0  0
  4  5  1  0  0  0  0
  4  6  1  0  0  0  0
  4  7  1  0  0  0  0
  7  8  1  0  0  0  0
  7  9  1  0  0  0  0
  7 10  1  0  0  0  0
 10 11  1  0  0  0  0
 10 12  1  0  0  0  0
 10 13  1  0  0  0  0
 13 14  1  0  0  0  0
 13 15  1  0  0  0  0
 13 16  1  0  0  0  0
 16 17  1  0  0  0  0
 16 18  1  0  0  0  0
 16 19  1  0  0  0  0
 19 20  1  0  0  0  0
 19 21  1  0  0  0  0
 19 22  1  0  0  0  0
 22 23  1  0  0  0  0
 22 24  1  0  0  0  0
 22 25  1  0  0  0  0
M  END
> <VM2 Rank>
34

> <Conf_Id>
693

> <Probability>
0.51

> <Sum Probability>
91.66

> <Delta G>
2.323

> <G>
-5.639

> <E>
-30.458

> <-TS>
24.819

> <U+W>
-51.026

> <U>
9.231

> <W>
-60.257

> <W(PB)>
-62.740

> <W(SA)>
2.483

> <Valence>
8.319

> <Coulomb>
0.075

> <VdW>
0.838

> <VdW6>
-9.234

> <VdW12>
10.072

> <Bond>
0.172

> <Angle>
2.679

> <Pdih>
5.467

> <Idih>
0.000

> <Tether>
0.000

$$$$
VeraChem MOL file


 25 24  0  0  0  0  0  0  0  0999 V2000     
   20.3804   19.7798   26.9988 C   0  0  0  0  0  0  0  0  0  0  0  0
   21.4709   20.2717   26.7847 O   0  5  0  0  0  0  0  0  0  0  0  0
   19.4442   20.3968   27.4678 O   0  0  0  0  0  0  0  0  0  0  0  0
   20.1788   18.3011   26.6795 C   0  0  0  0  0  0  0  0  0  0  0  0
   19.6733   17.8461   27.5393 H   0  0  0  0  0  0  0  0  0  0  0  0
   21.1625   17.8228   26.5997 H   0  0  0  0  0  0  0  0  0  0  0  0
   19.3508   18.0407   25.3943 C   0  0  0  0  0  0  0  0  0  0  0  0
   19.1384   16.9656   25.3194 H   0  0  0  0  0  0  0  0  0  0  0  0
   18.3805   18.5499   25.4769 H   0  0  0  0  0  0  0  0  0  0  0  0
   20.0788   18.5074   24.1135 C   0  0  0  0  0  0  0  0  0  0  0  0
   21.0516   18.0024   24.0398 H   0  0  0  0  0  0  0  0  0  0  0  0
   20.2821   19.5839   24.1848 H   0  0  0  0  0  0  0  0  0  0  0  0
   19.2457   18.2134   22.8445 C   0  0  0  0  0  0  0  0  0  0  0  0
   18.9886   17.1455   22.8256 H   0  0  0  0  0  0  0  0  0  0  0  0
   18.2945   18.7612   22.8911 H   0  0  0  0  0  0  0  0  0  0  0  0
   19.9808   18.5632   21.5287 C   0  0  0  0  0  0  0  0  0  0  0  0
   19.3724   18.2086   20.6855 H   0  0  0  0  0  0  0  0  0  0  0  0
   20.9300   18.0124   21.4799 H   0  0  0  0  0  0  0  0  0  0  0  0
   20.2467   20.0756   21.3539 C   0  0  0  0  0  0  0  0  0  0  0  0
   19.3048   20.6319   21.4570 H   0  0  0  0  0  0  0  0  0  0  0  0
   20.9194   20.4353   22.1436 H   0  0  0  0  0  0  0  0  0  0  0  0
   20.8760   20.3842   19.9803 C   0  0  0  0  0  0  0  0  0  0  0  0
   20.2114   20.0722   19.1640 H   0  0  0  0  0  0  0  0  0  0  0  0
   21.0617   21.4608   19.8730 H   0  0  0  0  0  0  0  0  0  0  0  0
   21.8341   19.8615   19.8613 H   0  0  0  0  0  0  0  0  0  0  0  0
  1  2  1  0  0  0  0
  1  3  2  0  0  0  0
  1  4  1  0  0  0  0
  4  5  1  0  0  0  0
  4  6  1  0  0  0  0
  4  7  1  0  0  0  0
  7  8  1  0  0  0  0
  7  9  1  0  0  0  0
  7 10  1  0  0  0  0
 10 11  1  0  0  0  0
 10 12  1  0  0  0  0
 10 13  1  0  0  0  0
 13 14  1  0  0  0  0
 13 15  1  0  0  0  0
 13 16  1  0  0  0  0
 16 17  1  0  0  0  0
 16 18  1  0  0  0  0
 16 19  1  0  0  0  0
 19 20  1  0  0  0  0
 19 21  1  0  0  0  0
 19 22  1  0  0  0  0
 22 23  1  0  0  0  0
 22 24  1  0  0  0  0
 22 25  1  0  0  0  0
M  END
> <VM2 Rank>
35

> <Conf_Id>
491

> <Probability>
0.51

> <Sum Probability>
92.17

> <Delta G>
2.324

> <G>
-5.638

> <E>
-30.458

> <-TS>
24.820

> <U+W>
-51.026

> <U>
9.231

> <W>
-60.257

> <W(PB)>
-62.751

> <W(SA)>
2.494

> <Valence>
8.319

> <Coulomb>
0.075

> <VdW>
0.838

> <VdW6>
-9.234

> <VdW12>
10.072

> <Bond>
0.172

> <Angle>
2.679

> <Pdih>
5.467

> <Idih>
0.000

> <Tether>
0.000

$$$$
VeraChem MOL file


 25 24  0  0  0  0  0  0  0  0999 V2000     
   20.2015   19.2958   27.4020 C   0  0  0  0  0  0  0  0  0  0  0  0
   21.1852   19.8854   27.8042 O   0  5  0  0  0  0  0  0  0  0  0  0
   19.0745   19.5195   27.7981 O   0  0  0  0  0  0  0  0  0  0  0  0
   20.3965   18.2027   26.3550 C   0  0  0  0  0  0  0  0  0  0  0  0
   19.5104   17.5564   26.3538 H   0  0  0  0  0  0  0  0  0  0  0  0
   21.2403   17.5838   26.6819 H   0  0  0  0  0  0  0  0  0  0  0  0
   20.6707   18.7382   24.9255 C   0  0  0  0  0  0  0  0  0  0  0  0
   21.5359   19.4151   24.9503 H   0  0  0  0  0  0  0  0  0  0  0  0
   20.9485   17.8916   24.2849 H   0  0  0  0  0  0  0  0  0  0  0  0
   19.4485   19.4705   24.3210 C   0  0  0  0  0  0  0  0  0  0  0  0
   19.1407   20.2784   24.9990 H   0  0  0  0  0  0  0  0  0  0  0  0
   18.5968   18.7797   24.2571 H   0  0  0  0  0  0  0  0  0  0  0  0
   19.7242   20.0842   22.9277 C   0  0  0  0  0  0  0  0  0  0  0  0
   18.8546   20.6891   22.6367 H   0  0  0  0  0  0  0  0  0  0  0  0
   20.5755   20.7756   22.9925 H   0  0  0  0  0  0  0  0  0  0  0  0
   19.9913   19.0291   21.8292 C   0  0  0  0  0  0  0  0  0  0  0  0
   19.1645   18.3062   21.8056 H   0  0  0  0  0  0  0  0  0  0  0  0
   20.9038   18.4660   22.0637 H   0  0  0  0  0  0  0  0  0  0  0  0
   20.1452   19.6806   20.4386 C   0  0  0  0  0  0  0  0  0  0  0  0
   19.2335   20.2407   20.1884 H   0  0  0  0  0  0  0  0  0  0  0  0
   20.9702   20.4060   20.4591 H   0  0  0  0  0  0  0  0  0  0  0  0
   20.4153   18.6279   19.3446 C   0  0  0  0  0  0  0  0  0  0  0  0
   19.5901   17.9066   19.2814 H   0  0  0  0  0  0  0  0  0  0  0  0
   20.5215   19.1083   18.3633 H   0  0  0  0  0  0  0  0  0  0  0  0
   21.3400   18.0737   19.5526 H   0  0  0  0  0  0  0  0  0  0  0  0
  1  2  1  0  0  0  0
  1  3  2  0  0  0  0
  1  4  1  0  0  0  0
  4  5  1  0  0  0  0
  4  6  1  0  0  0  0
  4  7  1  0  0  0  0
  7  8  1  0  0  0  0
  7  9  1  0  0  0  0
  7 10  1  0  0  0  0
 10 11  1  0  0  0  0
 10 12  1  0  0  0  0
 10 13  1  0  0  0  0
 13 14  1  0  0  0  0
 13 15  1  0  0  0  0
 13 16  1  0  0  0  0
 16 17  1  0  0  0  0
 16 18  1  0  0  0  0
 16 19  1  0  0  0  0
 19 20  1  0  0  0  0
 19 21  1  0  0  0  0
 19 22  1  0  0  0  0
 22 23  1  0  0  0  0
 22 24  1  0  0  0  0
 22 25  1  0  0  0  0
M  END
> <VM2 Rank>
36

> <Conf_Id>
987

> <Probability>
0.51

> <Sum Probability>
92.68

> <Delta G>
2.324

> <G>
-5.638

> <E>
-30.459

> <-TS>
24.821

> <U+W>
-51.027

> <U>
8.377

> <W>
-59.403

> <W(PB)>
-61.869

> <W(SA)>
2.466

> <Valence>
8.357

> <Coulomb>
-0.892

> <VdW>
0.912

> <VdW6>
-9.161

> <VdW12>
10.073

> <Bond>
0.177

> <Angle>
2.702

> <Pdih>
5.478

> <Idih>
0.000

> <Tether>
0.000

$$$$
VeraChem MOL file


 25 24  0  0  0  0  0  0  0  0999 V2000     
   19.8306   19.0427   27.1487 C   0  0  0  0  0  0  0  0  0  0  0  0
   20.7141   18.5450   27.8187 O   0  5  0  0  0  0  0  0  0  0  0  0
   18.7442   18.5257   26.9769 O   0  0  0  0  0  0  0  0  0  0  0  0
   20.0957   20.4002   26.5037 C   0  0  0  0  0  0  0  0  0  0  0  0
   20.5517   21.0422   27.2665 H   0  0  0  0  0  0  0  0  0  0  0  0
   19.1339   20.8557   26.2388 H   0  0  0  0  0  0  0  0  0  0  0  0
   21.0195   20.3374   25.2595 C   0  0  0  0  0  0  0  0  0  0  0  0
   21.2642   21.3610   24.9452 H   0  0  0  0  0  0  0  0  0  0  0  0
   21.9680   19.8557   25.5349 H   0  0  0  0  0  0  0  0  0  0  0  0
   20.3725   19.5826   24.0764 C   0  0  0  0  0  0  0  0  0  0  0  0
   19.4167   20.0605   23.8256 H   0  0  0  0  0  0  0  0  0  0  0  0
   20.1450   18.5504   24.3761 H   0  0  0  0  0  0  0  0  0  0  0  0
   21.2967   19.5662   22.8369 C   0  0  0  0  0  0  0  0  0  0  0  0
   21.4810   20.5949   22.4981 H   0  0  0  0  0  0  0  0  0  0  0  0
   22.2733   19.1545   23.1261 H   0  0  0  0  0  0  0  0  0  0  0  0
   20.7396   18.7264   21.6627 C   0  0  0  0  0  0  0  0  0  0  0  0
   20.5599   17.6965   22.0000 H   0  0  0  0  0  0  0  0  0  0  0  0
   21.5095   18.6673   20.8813 H   0  0  0  0  0  0  0  0  0  0  0  0
   19.4455   19.3068   21.0488 C   0  0  0  0  0  0  0  0  0  0  0  0
   18.6382   19.3008   21.7929 H   0  0  0  0  0  0  0  0  0  0  0  0
   19.6091   20.3544   20.7611 H   0  0  0  0  0  0  0  0  0  0  0  0
   18.9947   18.5009   19.8137 C   0  0  0  0  0  0  0  0  0  0  0  0
   18.7974   17.4540   20.0790 H   0  0  0  0  0  0  0  0  0  0  0  0
   18.0734   18.9230   19.3917 H   0  0  0  0  0  0  0  0  0  0  0  0
   19.7643   18.5173   19.0310 H   0  0  0  0  0  0  0  0  0  0  0  0
  1  2  1  0  0  0  0
  1  3  2  0  0  0  0
  1  4  1  0  0  0  0
  4  5  1  0  0  0  0
  4  6  1  0  0  0  0
  4  7  1  0  0  0  0
  7  8  1  0  0  0  0
  7  9  1  0  0  0  0
  7 10  1  0  0  0  0
 10 11  1  0  0  0  0
 10 12  1  0  0  0  0
 10 13  1  0  0  0  0
 13 14  1  0  0  0  0
 13 15  1  0  0  0  0
 13 16  1  0  0  0  0
 16 17  1  0  0  0  0
 16 18  1  0  0  0  0
 16 19  1  0  0  0  0
 19 20  1  0  0  0  0
 19 21  1  0  0  0  0
 19 22  1  0  0  0  0
 22 23  1  0  0  0  0
 22 24  1  0  0  0  0
 22 25  1  0  0  0  0
M  END
> <VM2 Rank>
37

> <Conf_Id>
931

> <Probability>
0.50

> <Sum Probability>
93.18

> <Delta G>
2.333

> <G>
-5.629

> <E>
-30.439

> <-TS>
24.809

> <U+W>
-51.006

> <U>
8.999

> <W>
-60.005

> <W(PB)>
-62.484

> <W(SA)>
2.479

> <Valence>
8.322

> <Coulomb>
-0.175

> <VdW>
0.852

> <VdW6>
-9.197

> <VdW12>
10.049

> <Bond>
0.171

> <Angle>
2.683

> <Pdih>
5.467

> <Idih>
0.001

> <Tether>
0.000

$$$$
VeraChem MOL file


 25 24  0  0  0  0  0  0  0  0999 V2000     
   20.2268   19.4711   27.3286 C   0  0  0  0  0  0  0  0  0  0  0  0
   21.3638   19.8886   27.4280 O   0  5  0  0  0  0  0  0  0  0  0  0
   19.2577   20.0424   27.7884 O   0  0  0  0  0  0  0  0  0  0  0  0
   20.0032   18.1477   26.6022 C   0  0  0  0  0  0  0  0  0  0  0  0
   19.3236   17.5466   27.2177 H   0  0  0  0  0  0  0  0  0  0  0  0
   20.9560   17.6062   26.5598 H   0  0  0  0  0  0  0  0  0  0  0  0
   19.4113   18.3028   25.1772 C   0  0  0  0  0  0  0  0  0  0  0  0
   19.1560   17.3083   24.7871 H   0  0  0  0  0  0  0  0  0  0  0  0
   18.4724   18.8713   25.2329 H   0  0  0  0  0  0  0  0  0  0  0  0
   20.3867   18.9980   24.2009 C   0  0  0  0  0  0  0  0  0  0  0  0
   21.3281   18.4333   24.1583 H   0  0  0  0  0  0  0  0  0  0  0  0
   20.6337   20.0007   24.5762 H   0  0  0  0  0  0  0  0  0  0  0  0
   19.7898   19.1134   22.7815 C   0  0  0  0  0  0  0  0  0  0  0  0
   19.5422   18.1097   22.4124 H   0  0  0  0  0  0  0  0  0  0  0  0
   18.8503   19.6812   22.8242 H   0  0  0  0  0  0  0  0  0  0  0  0
   20.7681   19.8065   21.8051 C   0  0  0  0  0  0  0  0  0  0  0  0
   21.6894   19.2140   21.7215 H   0  0  0  0  0  0  0  0  0  0  0  0
   21.0610   20.7793   22.2235 H   0  0  0  0  0  0  0  0  0  0  0  0
   20.1717   20.0371   20.3971 C   0  0  0  0  0  0  0  0  0  0  0  0
   19.2534   20.6352   20.4765 H   0  0  0  0  0  0  0  0  0  0  0  0
   20.8808   20.6344   19.8075 H   0  0  0  0  0  0  0  0  0  0  0  0
   19.8739   18.7263   19.6370 C   0  0  0  0  0  0  0  0  0  0  0  0
   19.0832   18.1477   20.1307 H   0  0  0  0  0  0  0  0  0  0  0  0
   19.5376   18.9433   18.6149 H   0  0  0  0  0  0  0  0  0  0  0  0
   20.7714   18.0977   19.5712 H   0  0  0  0  0  0  0  0  0  0  0  0
  1  2  1  0  0  0  0
  1  3  2  0  0  0  0
  1  4  1  0  0  0  0
  4  5  1  0  0  0  0
  4  6  1  0  0  0  0
  4  7  1  0  0  0  0
  7  8  1  0  0  0  0
  7  9  1  0  0  0  0
  7 10  1  0  0  0  0
 10 11  1  0  0  0  0
 10 12  1  0  0  0  0
 10 13  1  0  0  0  0
 13 14  1  0  0  0  0
 13 15  1  0  0  0  0
 13 16  1  0  0  0  0
 16 17  1  0  0  0  0
 16 18  1  0  0  0  0
 16 19  1  0  0  0  0
 19 20  1  0  0  0  0
 19 21  1  0  0  0  0
 19 22  1  0  0  0  0
 22 23  1  0  0  0  0
 22 24  1  0  0  0  0
 22 25  1  0  0  0  0
M  END
> <VM2 Rank>
38

> <Conf_Id>
204

> <Probability>
0.48

> <Sum Probability>
93.67

> <Delta G>
2.356

> <G>
-5.606

> <E>
-30.427

> <-TS>
24.821

> <U+W>
-50.995

> <U>
8.634

> <W>
-59.629

> <W(PB)>
-62.118

> <W(SA)>
2.489

> <Valence>
8.287

> <Coulomb>
-0.534

> <VdW>
0.881

> <VdW6>
-9.127

> <VdW12>
10.008

> <Bond>
0.168

> <Angle>
2.660

> <Pdih>
5.459

> <Idih>
0.000

> <Tether>
0.000

$$$$
VeraChem MOL file


 25 24  0  0  0  0  0  0  0  0999 V2000     
   19.8783   19.7064   26.9246 C   0  0  0  0  0  0  0  0  0  0  0  0
   20.6717   19.9375   27.8160 O   0  5  0  0  0  0  0  0  0  0  0  0
   19.1296   20.5420   26.4574 O   0  0  0  0  0  0  0  0  0  0  0  0
   19.8011   18.2819   26.3825 C   0  0  0  0  0  0  0  0  0  0  0  0
   18.8768   18.1761   25.8033 H   0  0  0  0  0  0  0  0  0  0  0  0
   19.7054   17.6106   27.2438 H   0  0  0  0  0  0  0  0  0  0  0  0
   21.0318   17.8577   25.5351 C   0  0  0  0  0  0  0  0  0  0  0  0
   21.9287   17.9058   26.1680 H   0  0  0  0  0  0  0  0  0  0  0  0
   20.9201   16.8058   25.2397 H   0  0  0  0  0  0  0  0  0  0  0  0
   21.2674   18.7200   24.2707 C   0  0  0  0  0  0  0  0  0  0  0  0
   22.1963   18.3847   23.7895 H   0  0  0  0  0  0  0  0  0  0  0  0
   21.4304   19.7672   24.5608 H   0  0  0  0  0  0  0  0  0  0  0  0
   20.1118   18.6400   23.2469 C   0  0  0  0  0  0  0  0  0  0  0  0
   19.9045   17.5883   23.0070 H   0  0  0  0  0  0  0  0  0  0  0  0
   19.1963   19.0580   23.6862 H   0  0  0  0  0  0  0  0  0  0  0  0
   20.4445   19.4092   21.9500 C   0  0  0  0  0  0  0  0  0  0  0  0
   21.3581   18.9958   21.5012 H   0  0  0  0  0  0  0  0  0  0  0  0
   20.6539   20.4603   22.1916 H   0  0  0  0  0  0  0  0  0  0  0  0
   19.2903   19.3353   20.9283 C   0  0  0  0  0  0  0  0  0  0  0  0
   19.0781   18.2851   20.6845 H   0  0  0  0  0  0  0  0  0  0  0  0
   18.3754   19.7511   21.3728 H   0  0  0  0  0  0  0  0  0  0  0  0
   19.6265   20.1039   19.6346 C   0  0  0  0  0  0  0  0  0  0  0  0
   20.5206   19.6882   19.1518 H   0  0  0  0  0  0  0  0  0  0  0  0
   18.7954   20.0411   18.9201 H   0  0  0  0  0  0  0  0  0  0  0  0
   19.8127   21.1652   19.8454 H   0  0  0  0  0  0  0  0  0  0  0  0
  1  2  1  0  0  0  0
  1  3  2  0  0  0  0
  1  4  1  0  0  0  0
  4  5  1  0  0  0  0
  4  6  1  0  0  0  0
  4  7  1  0  0  0  0
  7  8  1  0  0  0  0
  7  9  1  0  0  0  0
  7 10  1  0  0  0  0
 10 11  1  0  0  0  0
 10 12  1  0  0  0  0
 10 13  1  0  0  0  0
 13 14  1  0  0  0  0
 13 15  1  0  0  0  0
 13 16  1  0  0  0  0
 16 17  1  0  0  0  0
 16 18  1  0  0  0  0
 16 19  1  0  0  0  0
 19 20  1  0  0  0  0
 19 21  1  0  0  0  0
 19 22  1  0  0  0  0
 22 23  1  0  0  0  0
 22 24  1  0  0  0  0
 22 25  1  0  0  0  0
M  END
> <VM2 Rank>
39

> <Conf_Id>
457

> <Probability>
0.36

> <Sum Probability>
94.03

> <Delta G>
2.534

> <G>
-5.428

> <E>
-30.291

> <-TS>
24.863

> <U+W>
-50.859

> <U>
9.443

> <W>
-60.301

> <W(PB)>
-62.763

> <W(SA)>
2.462

> <Valence>
8.294

> <Coulomb>
0.527

> <VdW>
0.622

> <VdW6>
-9.564

> <VdW12>
10.186

> <Bond>
0.185

> <Angle>
2.775

> <Pdih>
5.333

> <Idih>
0.001

> <Tether>
0.000

$$$$
VeraChem MOL file


 25 24  0  0  0  0  0  0  0  0999 V2000     
   20.3726   19.7381   26.9188 C   0  0  0  0  0  0  0  0  0  0  0  0
   20.9976   20.6617   26.4358 O   0  5  0  0  0  0  0  0  0  0  0  0
   19.5769   19.8674   27.8285 O   0  0  0  0  0  0  0  0  0  0  0  0
   20.6183   18.3343   26.3731 C   0  0  0  0  0  0  0  0  0  0  0  0
   20.8188   17.6820   27.2310 H   0  0  0  0  0  0  0  0  0  0  0  0
   21.5349   18.3464   25.7725 H   0  0  0  0  0  0  0  0  0  0  0  0
   19.4326   17.7553   25.5536 C   0  0  0  0  0  0  0  0  0  0  0  0
   19.6708   16.7257   25.2542 H   0  0  0  0  0  0  0  0  0  0  0  0
   18.5517   17.6895   26.2071 H   0  0  0  0  0  0  0  0  0  0  0  0
   19.0598   18.5786   24.2962 C   0  0  0  0  0  0  0  0  0  0  0  0
   18.7714   19.5969   24.5916 H   0  0  0  0  0  0  0  0  0  0  0  0
   18.1704   18.1268   23.8362 H   0  0  0  0  0  0  0  0  0  0  0  0
   20.1922   18.6450   23.2459 C   0  0  0  0  0  0  0  0  0  0  0  0
   21.0569   19.1769   23.6646 H   0  0  0  0  0  0  0  0  0  0  0  0
   20.5264   17.6280   22.9997 H   0  0  0  0  0  0  0  0  0  0  0  0
   19.7344   19.3637   21.9582 C   0  0  0  0  0  0  0  0  0  0  0  0
   19.3985   20.3799   22.2061 H   0  0  0  0  0  0  0  0  0  0  0  0
   18.8708   18.8366   21.5301 H   0  0  0  0  0  0  0  0  0  0  0  0
   20.8648   19.4360   20.9101 C   0  0  0  0  0  0  0  0  0  0  0  0
   21.7294   19.9653   21.3340 H   0  0  0  0  0  0  0  0  0  0  0  0
   21.2032   18.4210   20.6597 H   0  0  0  0  0  0  0  0  0  0  0  0
   20.4037   20.1539   19.6257 C   0  0  0  0  0  0  0  0  0  0  0  0
   20.0890   21.1831   19.8425 H   0  0  0  0  0  0  0  0  0  0  0  0
   21.2193   20.1964   18.8922 H   0  0  0  0  0  0  0  0  0  0  0  0
   19.5588   19.6272   19.1630 H   0  0  0  0  0  0  0  0  0  0  0  0
  1  2  1  0  0  0  0
  1  3  2  0  0  0  0
  1  4  1  0  0  0  0
  4  5  1  0  0  0  0
  4  6  1  0  0  0  0
  4  7  1  0  0  0  0
  7  8  1  0  0  0  0
  7  9  1  0  0  0  0
  7 10  1  0  0  0  0
 10 11  1  0  0  0  0
 10 12  1  0  0  0  0
 10 13  1  0  0  0  0
 13 14  1  0  0  0  0
 13 15  1  0  0  0  0
 13 16  1  0  0  0  0
 16 17  1  0  0  0  0
 16 18  1  0  0  0  0
 16 19  1  0  0  0  0
 19 20  1  0  0  0  0
 19 21  1  0  0  0  0
 19 22  1  0  0  0  0
 22 23  1  0  0  0  0
 22 24  1  0  0  0  0
 22 25  1  0  0  0  0
M  END
> <VM2 Rank>
40

> <Conf_Id>
823

> <Probability>
0.36

> <Sum Probability>
94.38

> <Delta G>
2.535

> <G>
-5.428

> <E>
-30.291

> <-TS>
24.863

> <U+W>
-50.859

> <U>
9.443

> <W>
-60.302

> <W(PB)>
-62.767

> <W(SA)>
2.465

> <Valence>
8.294

> <Coulomb>
0.527

> <VdW>
0.622

> <VdW6>
-9.564

> <VdW12>
10.186

> <Bond>
0.185

> <Angle>
2.775

> <Pdih>
5.333

> <Idih>
0.001

> <Tether>
0.000

$$$$
VeraChem MOL file


 25 24  0  0  0  0  0  0  0  0999 V2000     
   20.0316   19.7636   27.2578 C   0  0  0  0  0  0  0  0  0  0  0  0
   21.1191   19.8944   27.7839 O   0  5  0  0  0  0  0  0  0  0  0  0
   18.9913   19.6653   27.8781 O   0  0  0  0  0  0  0  0  0  0  0  0
   19.9713   19.6957   25.7360 C   0  0  0  0  0  0  0  0  0  0  0  0
   20.7693   20.3350   25.3419 H   0  0  0  0  0  0  0  0  0  0  0  0
   19.0173   20.1297   25.4136 H   0  0  0  0  0  0  0  0  0  0  0  0
   20.1115   18.2496   25.1939 C   0  0  0  0  0  0  0  0  0  0  0  0
   21.0890   17.8412   25.4854 H   0  0  0  0  0  0  0  0  0  0  0  0
   19.3544   17.6164   25.6768 H   0  0  0  0  0  0  0  0  0  0  0  0
   19.9380   18.1482   23.6598 C   0  0  0  0  0  0  0  0  0  0  0  0
   18.9521   18.5438   23.3821 H   0  0  0  0  0  0  0  0  0  0  0  0
   19.9408   17.0871   23.3760 H   0  0  0  0  0  0  0  0  0  0  0  0
   21.0456   18.8850   22.8681 C   0  0  0  0  0  0  0  0  0  0  0  0
   20.9898   19.9646   23.0544 H   0  0  0  0  0  0  0  0  0  0  0  0
   22.0267   18.5606   23.2405 H   0  0  0  0  0  0  0  0  0  0  0  0
   20.9902   18.6200   21.3424 C   0  0  0  0  0  0  0  0  0  0  0  0
   21.1511   17.5486   21.1612 H   0  0  0  0  0  0  0  0  0  0  0  0
   21.8325   19.1379   20.8641 H   0  0  0  0  0  0  0  0  0  0  0  0
   19.6764   19.0517   20.6448 C   0  0  0  0  0  0  0  0  0  0  0  0
   19.7484   18.8007   19.5776 H   0  0  0  0  0  0  0  0  0  0  0  0
   18.8311   18.4705   21.0365 H   0  0  0  0  0  0  0  0  0  0  0  0
   19.3781   20.5605   20.7812 C   0  0  0  0  0  0  0  0  0  0  0  0
   19.1828   20.8353   21.8255 H   0  0  0  0  0  0  0  0  0  0  0  0
   20.2212   21.1622   20.4177 H   0  0  0  0  0  0  0  0  0  0  0  0
   18.4907   20.8314   20.1947 H   0  0  0  0  0  0  0  0  0  0  0  0
  1  2  1  0  0  0  0
  1  3  2  0  0  0  0
  1  4  1  0  0  0  0
  4  5  1  0  0  0  0
  4  6  1  0  0  0  0
  4  7  1  0  0  0  0
  7  8  1  0  0  0  0
  7  9  1  0  0  0  0
  7 10  1  0  0  0  0
 10 11  1  0  0  0  0
 10 12  1  0  0  0  0
 10 13  1  0  0  0  0
 13 14  1  0  0  0  0
 13 15  1  0  0  0  0
 13 16  1  0  0  0  0
 16 17  1  0  0  0  0
 16 18  1  0  0  0  0
 16 19  1  0  0  0  0
 19 20  1  0  0  0  0
 19 21  1  0  0  0  0
 19 22  1  0  0  0  0
 22 23  1  0  0  0  0
 22 24  1  0  0  0  0
 22 25  1  0  0  0  0
M  END
> <VM2 Rank>
41

> <Conf_Id>
84

> <Probability>
0.30

> <Sum Probability>
94.68

> <Delta G>
2.647

> <G>
-5.315

> <E>
-30.248

> <-TS>
24.932

> <U+W>
-50.815

> <U>
8.420

> <W>
-59.235

> <W(PB)>
-61.654

> <W(SA)>
2.419

> <Valence>
8.961

> <Coulomb>
-1.581

> <VdW>
1.040

> <VdW6>
-10.001

> <VdW12>
11.041

> <Bond>
0.231

> <Angle>
3.079

> <Pdih>
5.651

> <Idih>
0.001

> <Tether>
0.000

$$$$
VeraChem MOL file


 25 24  0  0  0  0  0  0  0  0999 V2000     
   20.2213   19.7756   27.2556 C   0  0  0  0  0  0  0  0  0  0  0  0
   21.2798   19.8115   27.8515 O   0  5  0  0  0  0  0  0  0  0  0  0
   19.1384   19.7676   27.8071 O   0  0  0  0  0  0  0  0  0  0  0  0
   20.2544   19.7138   25.7328 C   0  0  0  0  0  0  0  0  0  0  0  0
   21.1379   20.2649   25.3890 H   0  0  0  0  0  0  0  0  0  0  0  0
   19.3728   20.2460   25.3582 H   0  0  0  0  0  0  0  0  0  0  0  0
   20.2863   18.2607   25.1918 C   0  0  0  0  0  0  0  0  0  0  0  0
   21.1286   17.7294   25.6562 H   0  0  0  0  0  0  0  0  0  0  0  0
   19.3755   17.7321   25.5051 H   0  0  0  0  0  0  0  0  0  0  0  0
   20.4360   18.1800   23.6540 C   0  0  0  0  0  0  0  0  0  0  0  0
   20.5610   17.1267   23.3687 H   0  0  0  0  0  0  0  0  0  0  0  0
   21.3571   18.6969   23.3543 H   0  0  0  0  0  0  0  0  0  0  0  0
   19.2260   18.7695   22.8891 C   0  0  0  0  0  0  0  0  0  0  0  0
   18.3027   18.3241   23.2836 H   0  0  0  0  0  0  0  0  0  0  0  0
   19.1490   19.8477   23.0757 H   0  0  0  0  0  0  0  0  0  0  0  0
   19.2794   18.5114   21.3622 C   0  0  0  0  0  0  0  0  0  0  0  0
   18.3675   18.9179   20.9041 H   0  0  0  0  0  0  0  0  0  0  0  0
   19.2511   17.4279   21.1832 H   0  0  0  0  0  0  0  0  0  0  0  0
   20.5116   19.1046   20.6351 C   0  0  0  0  0  0  0  0  0  0  0  0
   21.4324   18.6355   21.0064 H   0  0  0  0  0  0  0  0  0  0  0  0
   20.4473   18.8450   19.5695 H   0  0  0  0  0  0  0  0  0  0  0  0
   20.6198   20.6393   20.7668 C   0  0  0  0  0  0  0  0  0  0  0  0
   21.4521   21.0193   20.1604 H   0  0  0  0  0  0  0  0  0  0  0  0
   19.6993   21.1290   20.4235 H   0  0  0  0  0  0  0  0  0  0  0  0
   20.8026   20.9381   21.8067 H   0  0  0  0  0  0  0  0  0  0  0  0
  1  2  1  0  0  0  0
  1  3  2  0  0  0  0
  1  4  1  0  0  0  0
  4  5  1  0  0  0  0
  4  6  1  0  0  0  0
  4  7  1  0  0  0  0
  7  8  1  0  0  0  0
  7  9  1  0  0  0  0
  7 10  1  0  0  0  0
 10 11  1  0  0  0  0
 10 12  1  0  0  0  0
 10 13  1  0  0  0  0
 13 14  1  0  0  0  0
 13 15  1  0  0  0  0
 13 16  1  0  0  0  0
 16 17  1  0  0  0  0
 16 18  1  0  0  0  0
 16 19  1  0  0  0  0
 19 20  1  0  0  0  0
 19 21  1  0  0  0  0
 19 22  1  0  0  0  0
 22 23  1  0  0  0  0
 22 24  1  0  0  0  0
 22 25  1  0  0  0  0
M  END
> <VM2 Rank>
42

> <Conf_Id>
1005

> <Probability>
0.28

> <Sum Probability>
94.96

> <Delta G>
2.682

> <G>
-5.280

> <E>
-30.213

> <-TS>
24.933

> <U+W>
-50.780

> <U>
8.420

> <W>
-59.200

> <W(PB)>
-61.632

> <W(SA)>
2.432

> <Valence>
8.961

> <Coulomb>
-1.581

> <VdW>
1.040

> <VdW6>
-10.002

> <VdW12>
11.041

> <Bond>
0.231

> <Angle>
3.079

> <Pdih>
5.650

> <Idih>
0.001

> <Tether>
0.000

$$$$
VeraChem MOL file


 25 24  0  0  0  0  0  0  0  0999 V2000     
   19.9599   19.8749   26.9492 C   0  0  0  0  0  0  0  0  0  0  0  0
   20.5050   19.6259   28.0064 O   0  5  0  0  0  0  0  0  0  0  0  0
   18.8600   20.3841   26.8625 O   0  0  0  0  0  0  0  0  0  0  0  0
   20.6870   19.5069   25.6609 C   0  0  0  0  0  0  0  0  0  0  0  0
   21.7649   19.5990   25.8391 H   0  0  0  0  0  0  0  0  0  0  0  0
   20.4169   20.2503   24.9022 H   0  0  0  0  0  0  0  0  0  0  0  0
   20.3460   18.0770   25.1672 C   0  0  0  0  0  0  0  0  0  0  0  0
   20.5412   17.3661   25.9820 H   0  0  0  0  0  0  0  0  0  0  0  0
   19.2705   18.0086   24.9565 H   0  0  0  0  0  0  0  0  0  0  0  0
   21.1621   17.6393   23.9247 C   0  0  0  0  0  0  0  0  0  0  0  0
   20.8789   16.6113   23.6607 H   0  0  0  0  0  0  0  0  0  0  0  0
   22.2264   17.6006   24.1938 H   0  0  0  0  0  0  0  0  0  0  0  0
   20.9979   18.5417   22.6758 C   0  0  0  0  0  0  0  0  0  0  0  0
   21.3910   19.5430   22.8912 H   0  0  0  0  0  0  0  0  0  0  0  0
   21.6238   18.1352   21.8699 H   0  0  0  0  0  0  0  0  0  0  0  0
   19.5357   18.6402   22.1765 C   0  0  0  0  0  0  0  0  0  0  0  0
   18.9161   19.1489   22.9268 H   0  0  0  0  0  0  0  0  0  0  0  0
   19.1261   17.6269   22.0668 H   0  0  0  0  0  0  0  0  0  0  0  0
   19.3995   19.3772   20.8239 C   0  0  0  0  0  0  0  0  0  0  0  0
   20.0056   18.8692   20.0612 H   0  0  0  0  0  0  0  0  0  0  0  0
   18.3558   19.3076   20.4879 H   0  0  0  0  0  0  0  0  0  0  0  0
   19.7999   20.8667   20.8989 C   0  0  0  0  0  0  0  0  0  0  0  0
   20.8678   20.9834   21.1219 H   0  0  0  0  0  0  0  0  0  0  0  0
   19.6038   21.3659   19.9412 H   0  0  0  0  0  0  0  0  0  0  0  0
   19.2266   21.3887   21.6762 H   0  0  0  0  0  0  0  0  0  0  0  0
  1  2  1  0  0  0  0
  1  3  2  0  0  0  0
  1  4  1  0  0  0  0
  4  5  1  0  0  0  0
  4  6  1  0  0  0  0
  4  7  1  0  0  0  0
  7  8  1  0  0  0  0
  7  9  1  0  0  0  0
  7 10  1  0  0  0  0
 10 11  1  0  0  0  0
 10 12  1  0  0  0  0
 10 13  1  0  0  0  0
 13 14  1  0  0  0  0
 13 15  1  0  0  0  0
 13 16  1  0  0  0  0
 16 17  1  0  0  0  0
 16 18  1  0  0  0  0
 16 19  1  0  0  0  0
 19 20  1  0  0  0  0
 19 21  1  0  0  0  0
 19 22  1  0  0  0  0
 22 23  1  0  0  0  0
 22 24  1  0  0  0  0
 22 25  1  0  0  0  0
M  END
> <VM2 Rank>
43

> <Conf_Id>
186

> <Probability>
0.28

> <Sum Probability>
95.24

> <Delta G>
2.689

> <G>
-5.274

> <E>
-30.250

> <-TS>
24.977

> <U+W>
-50.818

> <U>
8.957

> <W>
-59.775

> <W(PB)>
-62.189

> <W(SA)>
2.414

> <Valence>
8.948

> <Coulomb>
-0.940

> <VdW>
0.950

> <VdW6>
-10.176

> <VdW12>
11.126

> <Bond>
0.232

> <Angle>
3.080

> <Pdih>
5.636

> <Idih>
0.001

> <Tether>
0.000

$$$$
VeraChem MOL file


 25 24  0  0  0  0  0  0  0  0999 V2000     
   19.6005   19.1775   26.9742 C   0  0  0  0  0  0  0  0  0  0  0  0
   20.1506   18.9383   28.0311 O   0  5  0  0  0  0  0  0  0  0  0  0
   18.5446   19.7720   26.8845 O   0  0  0  0  0  0  0  0  0  0  0  0
   20.2847   18.7260   25.6889 C   0  0  0  0  0  0  0  0  0  0  0  0
   19.5009   18.4724   24.9660 H   0  0  0  0  0  0  0  0  0  0  0  0
   20.8411   17.8059   25.9035 H   0  0  0  0  0  0  0  0  0  0  0  0
   21.2355   19.8031   25.1053 C   0  0  0  0  0  0  0  0  0  0  0  0
   20.6602   20.7057   24.8597 H   0  0  0  0  0  0  0  0  0  0  0  0
   21.9508   20.1019   25.8838 H   0  0  0  0  0  0  0  0  0  0  0  0
   22.0292   19.3221   23.8643 C   0  0  0  0  0  0  0  0  0  0  0  0
   22.6867   18.4939   24.1617 H   0  0  0  0  0  0  0  0  0  0  0  0
   22.6933   20.1325   23.5343 H   0  0  0  0  0  0  0  0  0  0  0  0
   21.1633   18.8627   22.6643 C   0  0  0  0  0  0  0  0  0  0  0  0
   21.8340   18.5430   21.8553 H   0  0  0  0  0  0  0  0  0  0  0  0
   20.5833   17.9756   22.9475 H   0  0  0  0  0  0  0  0  0  0  0  0
   20.2194   19.9669   22.1289 C   0  0  0  0  0  0  0  0  0  0  0  0
   20.8026   20.8803   21.9501 H   0  0  0  0  0  0  0  0  0  0  0  0
   19.4675   20.2190   22.8884 H   0  0  0  0  0  0  0  0  0  0  0  0
   19.5012   19.5745   20.8168 C   0  0  0  0  0  0  0  0  0  0  0  0
   18.9419   20.4449   20.4470 H   0  0  0  0  0  0  0  0  0  0  0  0
   20.2443   19.3322   20.0445 H   0  0  0  0  0  0  0  0  0  0  0  0
   18.5242   18.3910   20.9877 C   0  0  0  0  0  0  0  0  0  0  0  0
   17.7892   18.5994   21.7761 H   0  0  0  0  0  0  0  0  0  0  0  0
   17.9763   18.2074   20.0544 H   0  0  0  0  0  0  0  0  0  0  0  0
   19.0559   17.4674   21.2481 H   0  0  0  0  0  0  0  0  0  0  0  0
  1  2  1  0  0  0  0
  1  3  2  0  0  0  0
  1  4  1  0  0  0  0
  4  5  1  0  0  0  0
  4  6  1  0  0  0  0
  4  7  1  0  0  0  0
  7  8  1  0  0  0  0
  7  9  1  0  0  0  0
  7 10  1  0  0  0  0
 10 11  1  0  0  0  0
 10 12  1  0  0  0  0
 10 13  1  0  0  0  0
 13 14  1  0  0  0  0
 13 15  1  0  0  0  0
 13 16  1  0  0  0  0
 16 17  1  0  0  0  0
 16 18  1  0  0  0  0
 16 19  1  0  0  0  0
 19 20  1  0  0  0  0
 19 21  1  0  0  0  0
 19 22  1  0  0  0  0
 22 23  1  0  0  0  0
 22 24  1  0  0  0  0
 22 25  1  0  0  0  0
M  END
> <VM2 Rank>
44

> <Conf_Id>
711

> <Probability>
0.27

> <Sum Probability>
95.51

> <Delta G>
2.700

> <G>
-5.262

> <E>
-30.239

> <-TS>
24.977

> <U+W>
-50.806

> <U>
8.957

> <W>
-59.764

> <W(PB)>
-62.187

> <W(SA)>
2.423

> <Valence>
8.948

> <Coulomb>
-0.940

> <VdW>
0.950

> <VdW6>
-10.176

> <VdW12>
11.126

> <Bond>
0.232

> <Angle>
3.080

> <Pdih>
5.636

> <Idih>
0.001

> <Tether>
0.000

$$$$
VeraChem MOL file


 25 24  0  0  0  0  0  0  0  0999 V2000     
   20.5278   19.5971   27.0188 C   0  0  0  0  0  0  0  0  0  0  0  0
   21.5730   20.1992   26.8713 O   0  5  0  0  0  0  0  0  0  0  0  0
   19.8263   19.6983   28.0061 O   0  0  0  0  0  0  0  0  0  0  0  0
   20.0603   18.6792   25.8952 C   0  0  0  0  0  0  0  0  0  0  0  0
   19.5109   17.8432   26.3441 H   0  0  0  0  0  0  0  0  0  0  0  0
   20.9514   18.2620   25.4127 H   0  0  0  0  0  0  0  0  0  0  0  0
   19.1698   19.4085   24.8563 C   0  0  0  0  0  0  0  0  0  0  0  0
   18.3299   19.8830   25.3823 H   0  0  0  0  0  0  0  0  0  0  0  0
   19.7389   20.2259   24.3937 H   0  0  0  0  0  0  0  0  0  0  0  0
   18.6010   18.4699   23.7627 C   0  0  0  0  0  0  0  0  0  0  0  0
   17.9432   19.0507   23.1029 H   0  0  0  0  0  0  0  0  0  0  0  0
   17.9551   17.7203   24.2399 H   0  0  0  0  0  0  0  0  0  0  0  0
   19.6648   17.7329   22.9068 C   0  0  0  0  0  0  0  0  0  0  0  0
   20.2092   17.0200   23.5398 H   0  0  0  0  0  0  0  0  0  0  0  0
   19.1473   17.1242   22.1530 H   0  0  0  0  0  0  0  0  0  0  0  0
   20.6887   18.6496   22.1910 C   0  0  0  0  0  0  0  0  0  0  0  0
   21.3993   18.0144   21.6451 H   0  0  0  0  0  0  0  0  0  0  0  0
   21.2815   19.2005   22.9330 H   0  0  0  0  0  0  0  0  0  0  0  0
   20.0391   19.6416   21.2002 C   0  0  0  0  0  0  0  0  0  0  0  0
   19.4149   19.0925   20.4819 H   0  0  0  0  0  0  0  0  0  0  0  0
   19.3766   20.3321   21.7387 H   0  0  0  0  0  0  0  0  0  0  0  0
   21.1022   20.4577   20.4376 C   0  0  0  0  0  0  0  0  0  0  0  0
   21.7614   19.7994   19.8568 H   0  0  0  0  0  0  0  0  0  0  0  0
   20.6251   21.1594   19.7412 H   0  0  0  0  0  0  0  0  0  0  0  0
   21.7230   21.0387   21.1322 H   0  0  0  0  0  0  0  0  0  0  0  0
  1  2  1  0  0  0  0
  1  3  2  0  0  0  0
  1  4  1  0  0  0  0
  4  5  1  0  0  0  0
  4  6  1  0  0  0  0
  4  7  1  0  0  0  0
  7  8  1  0  0  0  0
  7  9  1  0  0  0  0
  7 10  1  0  0  0  0
 10 11  1  0  0  0  0
 10 12  1  0  0  0  0
 10 13  1  0  0  0  0
 13 14  1  0  0  0  0
 13 15  1  0  0  0  0
 13 16  1  0  0  0  0
 16 17  1  0  0  0  0
 16 18  1  0  0  0  0
 16 19  1  0  0  0  0
 19 20  1  0  0  0  0
 19 21  1  0  0  0  0
 19 22  1  0  0  0  0
 22 23  1  0  0  0  0
 22 24  1  0  0  0  0
 22 25  1  0  0  0  0
M  END
> <VM2 Rank>
45

> <Conf_Id>
752

> <Probability>
0.24

> <Sum Probability>
95.76

> <Delta G>
2.765

> <G>
-5.197

> <E>
-30.374

> <-TS>
25.177

> <U+W>
-50.941

> <U>
8.897

> <W>
-59.838

> <W(PB)>
-62.244

> <W(SA)>
2.405

> <Valence>
8.932

> <Coulomb>
-0.847

> <VdW>
0.811

> <VdW6>
-10.410

> <VdW12>
11.221

> <Bond>
0.240

> <Angle>
3.240

> <Pdih>
5.452

> <Idih>
0.001

> <Tether>
0.000

$$$$
VeraChem MOL file


 25 24  0  0  0  0  0  0  0  0999 V2000     
   20.2976   19.3711   27.4514 C   0  0  0  0  0  0  0  0  0  0  0  0
   21.3957   19.8019   27.7436 O   0  5  0  0  0  0  0  0  0  0  0  0
   19.3431   19.3960   28.2031 O   0  0  0  0  0  0  0  0  0  0  0  0
   20.1004   18.7879   26.0567 C   0  0  0  0  0  0  0  0  0  0  0  0
   19.3452   17.9957   26.1233 H   0  0  0  0  0  0  0  0  0  0  0  0
   21.0427   18.3155   25.7579 H   0  0  0  0  0  0  0  0  0  0  0  0
   19.6673   19.8543   25.0171 C   0  0  0  0  0  0  0  0  0  0  0  0
   18.7765   20.3735   25.3973 H   0  0  0  0  0  0  0  0  0  0  0  0
   20.4531   20.6165   24.9228 H   0  0  0  0  0  0  0  0  0  0  0  0
   19.3391   19.2663   23.6239 C   0  0  0  0  0  0  0  0  0  0  0  0
   18.9106   20.0691   23.0102 H   0  0  0  0  0  0  0  0  0  0  0  0
   18.5602   18.4980   23.7219 H   0  0  0  0  0  0  0  0  0  0  0  0
   20.5725   18.6720   22.9004 C   0  0  0  0  0  0  0  0  0  0  0  0
   21.3507   19.4399   22.8019 H   0  0  0  0  0  0  0  0  0  0  0  0
   21.0077   17.8747   23.5157 H   0  0  0  0  0  0  0  0  0  0  0  0
   20.2438   18.0703   21.5103 C   0  0  0  0  0  0  0  0  0  0  0  0
   19.5290   17.2463   21.6398 H   0  0  0  0  0  0  0  0  0  0  0  0
   21.1564   17.6171   21.1001 H   0  0  0  0  0  0  0  0  0  0  0  0
   19.6729   19.0665   20.4705 C   0  0  0  0  0  0  0  0  0  0  0  0
   19.4790   18.5222   19.5360 H   0  0  0  0  0  0  0  0  0  0  0  0
   18.6994   19.4484   20.8047 H   0  0  0  0  0  0  0  0  0  0  0  0
   20.6206   20.2476   20.1690 C   0  0  0  0  0  0  0  0  0  0  0  0
   21.6092   19.8881   19.8555 H   0  0  0  0  0  0  0  0  0  0  0  0
   20.2144   20.8697   19.3610 H   0  0  0  0  0  0  0  0  0  0  0  0
   20.7499   20.8894   21.0496 H   0  0  0  0  0  0  0  0  0  0  0  0
  1  2  1  0  0  0  0
  1  3  2  0  0  0  0
  1  4  1  0  0  0  0
  4  5  1  0  0  0  0
  4  6  1  0  0  0  0
  4  7  1  0  0  0  0
  7  8  1  0  0  0  0
  7  9  1  0  0  0  0
  7 10  1  0  0  0  0
 10 11  1  0  0  0  0
 10 12  1  0  0  0  0
 10 13  1  0  0  0  0
 13 14  1  0  0  0  0
 13 15  1  0  0  0  0
 13 16  1  0  0  0  0
 16 17  1  0  0  0  0
 16 18  1  0  0  0  0
 16 19  1  0  0  0  0
 19 20  1  0  0  0  0
 19 21  1  0  0  0  0
 19 22  1  0  0  0  0
 22 23  1  0  0  0  0
 22 24  1  0  0  0  0
 22 25  1  0  0  0  0
M  END
> <VM2 Rank>
46

> <Conf_Id>
750

> <Probability>
0.24

> <Sum Probability>
95.99

> <Delta G>
2.778

> <G>
-5.184

> <E>
-30.050

> <-TS>
24.866

> <U+W>
-50.618

> <U>
8.474

> <W>
-59.092

> <W(PB)>
-61.533

> <W(SA)>
2.441

> <Valence>
9.080

> <Coulomb>
-1.772

> <VdW>
1.165

> <VdW6>
-9.830

> <VdW12>
10.995

> <Bond>
0.240

> <Angle>
3.225

> <Pdih>
5.614

> <Idih>
0.001

> <Tether>
0.000

$$$$
VeraChem MOL file


 25 24  0  0  0  0  0  0  0  0999 V2000     
   20.5823   19.3993   27.1504 C   0  0  0  0  0  0  0  0  0  0  0  0
   21.4012   20.2963   27.1111 O   0  5  0  0  0  0  0  0  0  0  0  0
   20.0475   19.0206   28.1739 O   0  0  0  0  0  0  0  0  0  0  0  0
   20.1871   18.7268   25.8408 C   0  0  0  0  0  0  0  0  0  0  0  0
   19.9325   17.6824   26.0567 H   0  0  0  0  0  0  0  0  0  0  0  0
   21.0693   18.7200   25.1905 H   0  0  0  0  0  0  0  0  0  0  0  0
   18.9989   19.4334   25.1384 C   0  0  0  0  0  0  0  0  0  0  0  0
   18.1629   19.5063   25.8476 H   0  0  0  0  0  0  0  0  0  0  0  0
   19.2784   20.4668   24.8943 H   0  0  0  0  0  0  0  0  0  0  0  0
   18.5033   18.6982   23.8674 C   0  0  0  0  0  0  0  0  0  0  0  0
   17.6534   19.2533   23.4475 H   0  0  0  0  0  0  0  0  0  0  0  0
   18.1082   17.7155   24.1588 H   0  0  0  0  0  0  0  0  0  0  0  0
   19.5661   18.4945   22.7577 C   0  0  0  0  0  0  0  0  0  0  0  0
   20.3759   17.8518   23.1266 H   0  0  0  0  0  0  0  0  0  0  0  0
   19.0917   17.9435   21.9359 H   0  0  0  0  0  0  0  0  0  0  0  0
   20.1558   19.8195   22.2150 C   0  0  0  0  0  0  0  0  0  0  0  0
   20.6398   20.3649   23.0354 H   0  0  0  0  0  0  0  0  0  0  0  0
   19.3454   20.4629   21.8467 H   0  0  0  0  0  0  0  0  0  0  0  0
   21.2034   19.6132   21.0960 C   0  0  0  0  0  0  0  0  0  0  0  0
   21.6686   20.5821   20.8677 H   0  0  0  0  0  0  0  0  0  0  0  0
   22.0095   18.9603   21.4582 H   0  0  0  0  0  0  0  0  0  0  0  0
   20.6072   19.0321   19.7954 C   0  0  0  0  0  0  0  0  0  0  0  0
   21.3697   18.9966   19.0065 H   0  0  0  0  0  0  0  0  0  0  0  0
   20.2372   18.0102   19.9444 H   0  0  0  0  0  0  0  0  0  0  0  0
   19.7756   19.6508   19.4336 H   0  0  0  0  0  0  0  0  0  0  0  0
  1  2  1  0  0  0  0
  1  3  2  0  0  0  0
  1  4  1  0  0  0  0
  4  5  1  0  0  0  0
  4  6  1  0  0  0  0
  4  7  1  0  0  0  0
  7  8  1  0  0  0  0
  7  9  1  0  0  0  0
  7 10  1  0  0  0  0
 10 11  1  0  0  0  0
 10 12  1  0  0  0  0
 10 13  1  0  0  0  0
 13 14  1  0  0  0  0
 13 15  1  0  0  0  0
 13 16  1  0  0  0  0
 16 17  1  0  0  0  0
 16 18  1  0  0  0  0
 16 19  1  0  0  0  0
 19 20  1  0  0  0  0
 19 21  1  0  0  0  0
 19 22  1  0  0  0  0
 22 23  1  0  0  0  0
 22 24  1  0  0  0  0
 22 25  1  0  0  0  0
M  END
> <VM2 Rank>
47

> <Conf_Id>
800

> <Probability>
0.22

> <Sum Probability>
96.22

> <Delta G>
2.816

> <G>
-5.146

> <E>
-30.061

> <-TS>
24.915

> <U+W>
-50.629

> <U>
8.774

> <W>
-59.402

> <W(PB)>
-61.850

> <W(SA)>
2.447

> <Valence>
9.062

> <Coulomb>
-1.371

> <VdW>
1.083

> <VdW6>
-9.990

> <VdW12>
11.073

> <Bond>
0.239

> <Angle>
3.221

> <Pdih>
5.602

> <Idih>
0.001

> <Tether>
0.000

$$$$
VeraChem MOL file


 25 24  0  0  0  0  0  0  0  0999 V2000     
   19.8268   19.4077   27.2705 C   0  0  0  0  0  0  0  0  0  0  0  0
   20.7397   19.6267   28.0421 O   0  5  0  0  0  0  0  0  0  0  0  0
   18.7173   19.8897   27.3862 O   0  0  0  0  0  0  0  0  0  0  0  0
   20.0936   18.4921   26.0812 C   0  0  0  0  0  0  0  0  0  0  0  0
   19.1631   17.9627   25.8433 H   0  0  0  0  0  0  0  0  0  0  0  0
   20.8266   17.7374   26.3901 H   0  0  0  0  0  0  0  0  0  0  0  0
   20.6053   19.2574   24.8360 C   0  0  0  0  0  0  0  0  0  0  0  0
   19.8648   20.0193   24.5584 H   0  0  0  0  0  0  0  0  0  0  0  0
   21.5323   19.7891   25.0914 H   0  0  0  0  0  0  0  0  0  0  0  0
   20.8606   18.3071   23.6434 C   0  0  0  0  0  0  0  0  0  0  0  0
   19.9258   17.8051   23.3614 H   0  0  0  0  0  0  0  0  0  0  0  0
   21.5493   17.5124   23.9608 H   0  0  0  0  0  0  0  0  0  0  0  0
   21.4710   19.0171   22.4090 C   0  0  0  0  0  0  0  0  0  0  0  0
   22.4498   19.4311   22.6867 H   0  0  0  0  0  0  0  0  0  0  0  0
   21.6755   18.2670   21.6338 H   0  0  0  0  0  0  0  0  0  0  0  0
   20.6065   20.1547   21.8039 C   0  0  0  0  0  0  0  0  0  0  0  0
   21.1304   20.5649   20.9300 H   0  0  0  0  0  0  0  0  0  0  0  0
   20.5385   20.9813   22.5231 H   0  0  0  0  0  0  0  0  0  0  0  0
   19.1761   19.7409   21.3784 C   0  0  0  0  0  0  0  0  0  0  0  0
   18.6024   19.4098   22.2542 H   0  0  0  0  0  0  0  0  0  0  0  0
   18.6555   20.6275   20.9916 H   0  0  0  0  0  0  0  0  0  0  0  0
   19.1560   18.6406   20.2953 C   0  0  0  0  0  0  0  0  0  0  0  0
   19.5723   17.6994   20.6757 H   0  0  0  0  0  0  0  0  0  0  0  0
   18.1273   18.4419   19.9684 H   0  0  0  0  0  0  0  0  0  0  0  0
   19.7383   18.9446   19.4158 H   0  0  0  0  0  0  0  0  0  0  0  0
  1  2  1  0  0  0  0
  1  3  2  0  0  0  0
  1  4  1  0  0  0  0
  4  5  1  0  0  0  0
  4  6  1  0  0  0  0
  4  7  1  0  0  0  0
  7  8  1  0  0  0  0
  7  9  1  0  0  0  0
  7 10  1  0  0  0  0
 10 11  1  0  0  0  0
 10 12  1  0  0  0  0
 10 13  1  0  0  0  0
 13 14  1  0  0  0  0
 13 15  1  0  0  0  0
 13 16  1  0  0  0  0
 16 17  1  0  0  0  0
 16 18  1  0  0  0  0
 16 19  1  0  0  0  0
 19 20  1  0  0  0  0
 19 21  1  0  0  0  0
 19 22  1  0  0  0  0
 22 23  1  0  0  0  0
 22 24  1  0  0  0  0
 22 25  1  0  0  0  0
M  END
> <VM2 Rank>
48

> <Conf_Id>
191

> <Probability>
0.22

> <Sum Probability>
96.44

> <Delta G>
2.828

> <G>
-5.134

> <E>
-30.277

> <-TS>
25.143

> <U+W>
-50.845

> <U>
8.646

> <W>
-59.491

> <W(PB)>
-61.923

> <W(SA)>
2.431

> <Valence>
8.924

> <Coulomb>
-1.171

> <VdW>
0.894

> <VdW6>
-10.224

> <VdW12>
11.117

> <Bond>
0.231

> <Angle>
3.232

> <Pdih>
5.461

> <Idih>
0.001

> <Tether>
0.000

$$$$
VeraChem MOL file


 25 24  0  0  0  0  0  0  0  0999 V2000     
   20.0117   19.3529   27.4547 C   0  0  0  0  0  0  0  0  0  0  0  0
   20.9724   19.4999   28.1842 O   0  5  0  0  0  0  0  0  0  0  0  0
   18.8748   19.6410   27.7728 O   0  0  0  0  0  0  0  0  0  0  0  0
   20.2491   18.7974   26.0550 C   0  0  0  0  0  0  0  0  0  0  0  0
   19.3678   18.2087   25.7773 H   0  0  0  0  0  0  0  0  0  0  0  0
   21.1001   18.1076   26.1030 H   0  0  0  0  0  0  0  0  0  0  0  0
   20.5193   19.9086   25.0073 C   0  0  0  0  0  0  0  0  0  0  0  0
   19.6411   20.5647   24.9322 H   0  0  0  0  0  0  0  0  0  0  0  0
   21.3455   20.5372   25.3676 H   0  0  0  0  0  0  0  0  0  0  0  0
   20.8873   19.3650   23.6060 C   0  0  0  0  0  0  0  0  0  0  0  0
   21.7594   18.7019   23.6849 H   0  0  0  0  0  0  0  0  0  0  0  0
   21.1963   20.2147   22.9838 H   0  0  0  0  0  0  0  0  0  0  0  0
   19.7229   18.6180   22.9102 C   0  0  0  0  0  0  0  0  0  0  0  0
   19.4065   17.7729   23.5342 H   0  0  0  0  0  0  0  0  0  0  0  0
   18.8516   19.2809   22.8306 H   0  0  0  0  0  0  0  0  0  0  0  0
   20.0933   18.0607   21.5121 C   0  0  0  0  0  0  0  0  0  0  0  0
   19.2362   17.4949   21.1222 H   0  0  0  0  0  0  0  0  0  0  0  0
   20.9094   17.3341   21.6240 H   0  0  0  0  0  0  0  0  0  0  0  0
   20.5093   19.1196   20.4608 C   0  0  0  0  0  0  0  0  0  0  0  0
   21.4340   19.6223   20.7732 H   0  0  0  0  0  0  0  0  0  0  0  0
   20.7491   18.6029   19.5214 H   0  0  0  0  0  0  0  0  0  0  0  0
   19.4130   20.1707   20.1828 C   0  0  0  0  0  0  0  0  0  0  0  0
   19.2236   20.7922   21.0671 H   0  0  0  0  0  0  0  0  0  0  0  0
   19.7184   20.8380   19.3666 H   0  0  0  0  0  0  0  0  0  0  0  0
   18.4709   19.6883   19.8916 H   0  0  0  0  0  0  0  0  0  0  0  0
  1  2  1  0  0  0  0
  1  3  2  0  0  0  0
  1  4  1  0  0  0  0
  4  5  1  0  0  0  0
  4  6  1  0  0  0  0
  4  7  1  0  0  0  0
  7  8  1  0  0  0  0
  7  9  1  0  0  0  0
  7 10  1  0  0  0  0
 10 11  1  0  0  0  0
 10 12  1  0  0  0  0
 10 13  1  0  0  0  0
 13 14  1  0  0  0  0
 13 15  1  0  0  0  0
 13 16  1  0  0  0  0
 16 17  1  0  0  0  0
 16 18  1  0  0  0  0
 16 19  1  0  0  0  0
 19 20  1  0  0  0  0
 19 21  1  0  0  0  0
 19 22  1  0  0  0  0
 22 23  1  0  0  0  0
 22 24  1  0  0  0  0
 22 25  1  0  0  0  0
M  END
> <VM2 Rank>
49

> <Conf_Id>
697

> <Probability>
0.21

> <Sum Probability>
96.64

> <Delta G>
2.869

> <G>
-5.093

> <E>
-29.959

> <-TS>
24.866

> <U+W>
-50.527

> <U>
8.474

> <W>
-59.000

> <W(PB)>
-61.454

> <W(SA)>
2.453

> <Valence>
9.080

> <Coulomb>
-1.772

> <VdW>
1.165

> <VdW6>
-9.830

> <VdW12>
10.995

> <Bond>
0.240

> <Angle>
3.225

> <Pdih>
5.614

> <Idih>
0.001

> <Tether>
0.000

$$$$
VeraChem MOL file


 25 24  0  0  0  0  0  0  0  0999 V2000     
   20.2860   19.7656   27.1402 C   0  0  0  0  0  0  0  0  0  0  0  0
   21.3354   20.3775   27.1088 O   0  5  0  0  0  0  0  0  0  0  0  0
   19.7760   19.3562   28.1644 O   0  0  0  0  0  0  0  0  0  0  0  0
   19.5818   19.4751   25.8198 C   0  0  0  0  0  0  0  0  0  0  0  0
   19.7776   20.3168   25.1458 H   0  0  0  0  0  0  0  0  0  0  0  0
   18.5018   19.4510   26.0071 H   0  0  0  0  0  0  0  0  0  0  0  0
   20.0432   18.1427   25.1745 C   0  0  0  0  0  0  0  0  0  0  0  0
   21.1184   18.1924   24.9579 H   0  0  0  0  0  0  0  0  0  0  0  0
   19.9202   17.3343   25.9084 H   0  0  0  0  0  0  0  0  0  0  0  0
   19.2556   17.7684   23.8934 C   0  0  0  0  0  0  0  0  0  0  0  0
   18.2044   17.5966   24.1621 H   0  0  0  0  0  0  0  0  0  0  0  0
   19.6319   16.8078   23.5158 H   0  0  0  0  0  0  0  0  0  0  0  0
   19.3091   18.8121   22.7488 C   0  0  0  0  0  0  0  0  0  0  0  0
   18.6937   18.4354   21.9221 H   0  0  0  0  0  0  0  0  0  0  0  0
   18.8403   19.7500   23.0735 H   0  0  0  0  0  0  0  0  0  0  0  0
   20.7425   19.0943   22.2352 C   0  0  0  0  0  0  0  0  0  0  0  0
   21.2118   18.1557   21.9109 H   0  0  0  0  0  0  0  0  0  0  0  0
   21.3545   19.4814   23.0600 H   0  0  0  0  0  0  0  0  0  0  0  0
   20.7905   20.1237   21.0818 C   0  0  0  0  0  0  0  0  0  0  0  0
   20.3113   21.0599   21.3998 H   0  0  0  0  0  0  0  0  0  0  0  0
   21.8412   20.3687   20.8735 H   0  0  0  0  0  0  0  0  0  0  0  0
   20.1329   19.6183   19.7791 C   0  0  0  0  0  0  0  0  0  0  0  0
   19.0525   19.4749   19.9039 H   0  0  0  0  0  0  0  0  0  0  0  0
   20.2793   20.3444   18.9691 H   0  0  0  0  0  0  0  0  0  0  0  0
   20.5731   18.6643   19.4611 H   0  0  0  0  0  0  0  0  0  0  0  0
  1  2  1  0  0  0  0
  1  3  2  0  0  0  0
  1  4  1  0  0  0  0
  4  5  1  0  0  0  0
  4  6  1  0  0  0  0
  4  7  1  0  0  0  0
  7  8  1  0  0  0  0
  7  9  1  0  0  0  0
  7 10  1  0  0  0  0
 10 11  1  0  0  0  0
 10 12  1  0  0  0  0
 10 13  1  0  0  0  0
 13 14  1  0  0  0  0
 13 15  1  0  0  0  0
 13 16  1  0  0  0  0
 16 17  1  0  0  0  0
 16 18  1  0  0  0  0
 16 19  1  0  0  0  0
 19 20  1  0  0  0  0
 19 21  1  0  0  0  0
 19 22  1  0  0  0  0
 22 23  1  0  0  0  0
 22 24  1  0  0  0  0
 22 25  1  0  0  0  0
M  END
> <VM2 Rank>
50

> <Conf_Id>
456

> <Probability>
0.20

> <Sum Probability>
96.84

> <Delta G>
2.892

> <G>
-5.070

> <E>
-29.985

> <-TS>
24.915

> <U+W>
-50.553

> <U>
8.774

> <W>
-59.327

> <W(PB)>
-61.793

> <W(SA)>
2.466

> <Valence>
9.062

> <Coulomb>
-1.371

> <VdW>
1.083

> <VdW6>
-9.990

> <VdW12>
11.073

> <Bond>
0.239

> <Angle>
3.221

> <Pdih>
5.601

> <Idih>
0.001

> <Tether>
0.000

$$$$
VeraChem MOL file


 25 24  0  0  0  0  0  0  0  0999 V2000     
   20.4697   19.4486   27.2632 C   0  0  0  0  0  0  0  0  0  0  0  0
   21.5112   20.0680   27.3538 O   0  5  0  0  0  0  0  0  0  0  0  0
   19.5545   19.5505   28.0562 O   0  0  0  0  0  0  0  0  0  0  0  0
   20.2940   18.5049   26.0788 C   0  0  0  0  0  0  0  0  0  0  0  0
   19.6699   17.6637   26.4033 H   0  0  0  0  0  0  0  0  0  0  0  0
   21.2784   18.0975   25.8188 H   0  0  0  0  0  0  0  0  0  0  0  0
   19.6608   19.1974   24.8470 C   0  0  0  0  0  0  0  0  0  0  0  0
   18.6801   19.6076   25.1244 H   0  0  0  0  0  0  0  0  0  0  0  0
   20.2922   20.0466   24.5536 H   0  0  0  0  0  0  0  0  0  0  0  0
   19.5007   18.2207   23.6591 C   0  0  0  0  0  0  0  0  0  0  0  0
   18.9258   17.3455   23.9911 H   0  0  0  0  0  0  0  0  0  0  0  0
   20.4848   17.8408   23.3549 H   0  0  0  0  0  0  0  0  0  0  0  0
   18.7770   18.8458   22.4401 C   0  0  0  0  0  0  0  0  0  0  0  0
   18.6513   18.0747   21.6688 H   0  0  0  0  0  0  0  0  0  0  0  0
   17.7603   19.1329   22.7410 H   0  0  0  0  0  0  0  0  0  0  0  0
   19.4763   20.0829   21.8169 C   0  0  0  0  0  0  0  0  0  0  0  0
   19.4557   20.9125   22.5356 H   0  0  0  0  0  0  0  0  0  0  0  0
   18.8846   20.4222   20.9560 H   0  0  0  0  0  0  0  0  0  0  0  0
   20.9373   19.8528   21.3579 C   0  0  0  0  0  0  0  0  0  0  0  0
   21.3324   20.7977   20.9604 H   0  0  0  0  0  0  0  0  0  0  0  0
   21.5685   19.5984   22.2197 H   0  0  0  0  0  0  0  0  0  0  0  0
   21.0715   18.7624   20.2730 C   0  0  0  0  0  0  0  0  0  0  0  0
   20.4352   18.9888   19.4077 H   0  0  0  0  0  0  0  0  0  0  0  0
   22.1093   18.6950   19.9221 H   0  0  0  0  0  0  0  0  0  0  0  0
   20.7868   17.7765   20.6616 H   0  0  0  0  0  0  0  0  0  0  0  0
  1  2  1  0  0  0  0
  1  3  2  0  0  0  0
  1  4  1  0  0  0  0
  4  5  1  0  0  0  0
  4  6  1  0  0  0  0
  4  7  1  0  0  0  0
  7  8  1  0  0  0  0
  7  9  1  0  0  0  0
  7 10  1  0  0  0  0
 10 11  1  0  0  0  0
 10 12  1  0  0  0  0
 10 13  1  0  0  0  0
 13 14  1  0  0  0  0
 13 15  1  0  0  0  0
 13 16  1  0  0  0  0
 16 17  1  0  0  0  0
 16 18  1  0  0  0  0
 16 19  1  0  0  0  0
 19 20  1  0  0  0  0
 19 21  1  0  0  0  0
 19 22  1  0  0  0  0
 22 23  1  0  0  0  0
 22 24  1  0  0  0  0
 22 25  1  0  0  0  0
M  END
> <VM2 Rank>
51

> <Conf_Id>
29

> <Probability>
0.20

> <Sum Probability>
97.04

> <Delta G>
2.893

> <G>
-5.069

> <E>
-30.212

> <-TS>
25.143

> <U+W>
-50.780

> <U>
8.646

> <W>
-59.426

> <W(PB)>
-61.868

> <W(SA)>
2.442

> <Valence>
8.924

> <Coulomb>
-1.171

> <VdW>
0.894

> <VdW6>
-10.223

> <VdW12>
11.117

> <Bond>
0.231

> <Angle>
3.232

> <Pdih>
5.461

> <Idih>
0.001

> <Tether>
0.000

$$$$
VeraChem MOL file


 25 24  0  0  0  0  0  0  0  0999 V2000     
   19.9727   19.1630   27.2024 C   0  0  0  0  0  0  0  0  0  0  0  0
   20.8703   18.4599   27.6232 O   0  5  0  0  0  0  0  0  0  0  0  0
   18.7940   18.9321   27.3880 O   0  0  0  0  0  0  0  0  0  0  0  0
   20.3443   20.4159   26.4144 C   0  0  0  0  0  0  0  0  0  0  0  0
   21.3872   20.6725   26.6364 H   0  0  0  0  0  0  0  0  0  0  0  0
   19.7273   21.2383   26.7951 H   0  0  0  0  0  0  0  0  0  0  0  0
   20.1394   20.2801   24.8833 C   0  0  0  0  0  0  0  0  0  0  0  0
   19.0948   20.0039   24.6871 H   0  0  0  0  0  0  0  0  0  0  0  0
   20.3030   21.2590   24.4129 H   0  0  0  0  0  0  0  0  0  0  0  0
   21.0949   19.2420   24.2477 C   0  0  0  0  0  0  0  0  0  0  0  0
   20.8925   18.2451   24.6630 H   0  0  0  0  0  0  0  0  0  0  0  0
   22.1282   19.4890   24.5269 H   0  0  0  0  0  0  0  0  0  0  0  0
   21.0023   19.1861   22.7043 C   0  0  0  0  0  0  0  0  0  0  0  0
   21.2253   20.1792   22.2929 H   0  0  0  0  0  0  0  0  0  0  0  0
   21.7848   18.5109   22.3323 H   0  0  0  0  0  0  0  0  0  0  0  0
   19.6268   18.6954   22.1898 C   0  0  0  0  0  0  0  0  0  0  0  0
   18.8471   19.4246   22.4455 H   0  0  0  0  0  0  0  0  0  0  0  0
   19.3637   17.7621   22.7059 H   0  0  0  0  0  0  0  0  0  0  0  0
   19.6002   18.4394   20.6649 C   0  0  0  0  0  0  0  0  0  0  0  0
   20.3651   17.6965   20.3997 H   0  0  0  0  0  0  0  0  0  0  0  0
   18.6312   17.9953   20.3984 H   0  0  0  0  0  0  0  0  0  0  0  0
   19.8081   19.7203   19.8280 C   0  0  0  0  0  0  0  0  0  0  0  0
   19.6973   19.5022   18.7580 H   0  0  0  0  0  0  0  0  0  0  0  0
   19.0702   20.4879   20.0950 H   0  0  0  0  0  0  0  0  0  0  0  0
   20.8109   20.1390   19.9798 H   0  0  0  0  0  0  0  0  0  0  0  0
  1  2  1  0  0  0  0
  1  3  2  0  0  0  0
  1  4  1  0  0  0  0
  4  5  1  0  0  0  0
  4  6  1  0  0  0  0
  4  7  1  0  0  0  0
  7  8  1  0  0  0  0
  7  9  1  0  0  0  0
  7 10  1  0  0  0  0
 10 11  1  0  0  0  0
 10 12  1  0  0  0  0
 10 13  1  0  0  0  0
 13 14  1  0  0  0  0
 13 15  1  0  0  0  0
 13 16  1  0  0  0  0
 16 17  1  0  0  0  0
 16 18  1  0  0  0  0
 16 19  1  0  0  0  0
 19 20  1  0  0  0  0
 19 21  1  0  0  0  0
 19 22  1  0  0  0  0
 22 23  1  0  0  0  0
 22 24  1  0  0  0  0
 22 25  1  0  0  0  0
M  END
> <VM2 Rank>
52

> <Conf_Id>
1109

> <Probability>
0.12

> <Sum Probability>
97.16

> <Delta G>
3.176

> <G>
-4.786

> <E>
-29.735

> <-TS>
24.948

> <U+W>
-50.302

> <U>
9.531

> <W>
-59.833

> <W(PB)>
-62.309

> <W(SA)>
2.476

> <Valence>
8.779

> <Coulomb>
-0.178

> <VdW>
0.930

> <VdW6>
-9.874

> <VdW12>
10.804

> <Bond>
0.204

> <Angle>
2.848

> <Pdih>
5.726

> <Idih>
0.001

> <Tether>
0.000

$$$$
VeraChem MOL file


 25 24  0  0  0  0  0  0  0  0999 V2000     
   20.0081   19.4683   27.1974 C   0  0  0  0  0  0  0  0  0  0  0  0
   21.0441   19.9606   27.5991 O   0  5  0  0  0  0  0  0  0  0  0  0
   18.9140   19.9680   27.3715 O   0  0  0  0  0  0  0  0  0  0  0  0
   20.0806   18.1391   26.4511 C   0  0  0  0  0  0  0  0  0  0  0  0
   19.2933   17.4921   26.8555 H   0  0  0  0  0  0  0  0  0  0  0  0
   21.0381   17.6582   26.6851 H   0  0  0  0  0  0  0  0  0  0  0  0
   19.9065   18.2694   24.9157 C   0  0  0  0  0  0  0  0  0  0  0  0
   19.8403   17.2645   24.4774 H   0  0  0  0  0  0  0  0  0  0  0  0
   18.9520   18.7706   24.7070 H   0  0  0  0  0  0  0  0  0  0  0  0
   21.0716   19.0408   24.2509 C   0  0  0  0  0  0  0  0  0  0  0  0
   22.0222   18.5731   24.5417 H   0  0  0  0  0  0  0  0  0  0  0  0
   21.1040   20.0702   24.6335 H   0  0  0  0  0  0  0  0  0  0  0  0
   20.9885   19.0672   22.7062 C   0  0  0  0  0  0  0  0  0  0  0  0
   21.9033   19.5334   22.3157 H   0  0  0  0  0  0  0  0  0  0  0  0
   20.9770   18.0368   22.3275 H   0  0  0  0  0  0  0  0  0  0  0  0
   19.7598   19.8427   22.1712 C   0  0  0  0  0  0  0  0  0  0  0  0
   19.7189   20.8274   22.6564 H   0  0  0  0  0  0  0  0  0  0  0  0
   18.8349   19.3196   22.4472 H   0  0  0  0  0  0  0  0  0  0  0  0
   19.7868   20.0493   20.6389 C   0  0  0  0  0  0  0  0  0  0  0  0
   18.9440   20.6944   20.3548 H   0  0  0  0  0  0  0  0  0  0  0  0
   20.7003   20.5887   20.3529 H   0  0  0  0  0  0  0  0  0  0  0  0
   19.6931   18.7287   19.8440 C   0  0  0  0  0  0  0  0  0  0  0  0
   20.5740   18.0968   20.0127 H   0  0  0  0  0  0  0  0  0  0  0  0
   18.8001   18.1591   20.1326 H   0  0  0  0  0  0  0  0  0  0  0  0
   19.6311   18.9321   18.7672 H   0  0  0  0  0  0  0  0  0  0  0  0
  1  2  1  0  0  0  0
  1  3  2  0  0  0  0
  1  4  1  0  0  0  0
  4  5  1  0  0  0  0
  4  6  1  0  0  0  0
  4  7  1  0  0  0  0
  7  8  1  0  0  0  0
  7  9  1  0  0  0  0
  7 10  1  0  0  0  0
 10 11  1  0  0  0  0
 10 12  1  0  0  0  0
 10 13  1  0  0  0  0
 13 14  1  0  0  0  0
 13 15  1  0  0  0  0
 13 16  1  0  0  0  0
 16 17  1  0  0  0  0
 16 18  1  0  0  0  0
 16 19  1  0  0  0  0
 19 20  1  0  0  0  0
 19 21  1  0  0  0  0
 19 22  1  0  0  0  0
 22 23  1  0  0  0  0
 22 24  1  0  0  0  0
 22 25  1  0  0  0  0
M  END
> <VM2 Rank>
53

> <Conf_Id>
1060

> <Probability>
0.12

> <Sum Probability>
97.28

> <Delta G>
3.204

> <G>
-4.758

> <E>
-29.706

> <-TS>
24.948

> <U+W>
-50.274

> <U>
9.530

> <W>
-59.804

> <W(PB)>
-62.267

> <W(SA)>
2.464

> <Valence>
8.779

> <Coulomb>
-0.179

> <VdW>
0.930

> <VdW6>
-9.873

> <VdW12>
10.803

> <Bond>
0.204

> <Angle>
2.848

> <Pdih>
5.727

> <Idih>
0.001

> <Tether>
0.000

$$$$
VeraChem MOL file


 25 24  0  0  0  0  0  0  0  0999 V2000     
   20.0304   19.4113   27.3164 C   0  0  0  0  0  0  0  0  0  0  0  0
   21.0736   19.8951   27.7096 O   0  5  0  0  0  0  0  0  0  0  0  0
   18.9338   19.8278   27.6345 O   0  0  0  0  0  0  0  0  0  0  0  0
   20.0985   18.2027   26.3871 C   0  0  0  0  0  0  0  0  0  0  0  0
   19.3804   17.4628   26.7598 H   0  0  0  0  0  0  0  0  0  0  0  0
   21.0939   17.7502   26.4727 H   0  0  0  0  0  0  0  0  0  0  0  0
   19.7838   18.5275   24.9035 C   0  0  0  0  0  0  0  0  0  0  0  0
   19.7054   17.5833   24.3497 H   0  0  0  0  0  0  0  0  0  0  0  0
   18.8018   19.0163   24.8383 H   0  0  0  0  0  0  0  0  0  0  0  0
   20.8614   19.4262   24.2506 C   0  0  0  0  0  0  0  0  0  0  0  0
   21.8351   18.9183   24.2801 H   0  0  0  0  0  0  0  0  0  0  0  0
   20.9739   20.3442   24.8435 H   0  0  0  0  0  0  0  0  0  0  0  0
   20.5285   19.8259   22.7934 C   0  0  0  0  0  0  0  0  0  0  0  0
   19.5607   20.3440   22.7739 H   0  0  0  0  0  0  0  0  0  0  0  0
   21.2784   20.5521   22.4516 H   0  0  0  0  0  0  0  0  0  0  0  0
   20.5076   18.6258   21.8151 C   0  0  0  0  0  0  0  0  0  0  0  0
   19.6788   17.9506   22.0644 H   0  0  0  0  0  0  0  0  0  0  0  0
   21.4323   18.0460   21.9395 H   0  0  0  0  0  0  0  0  0  0  0  0
   20.3871   19.0481   20.3323 C   0  0  0  0  0  0  0  0  0  0  0  0
   21.2226   19.7102   20.0657 H   0  0  0  0  0  0  0  0  0  0  0  0
   20.4865   18.1541   19.7015 H   0  0  0  0  0  0  0  0  0  0  0  0
   19.0482   19.7435   20.0035 C   0  0  0  0  0  0  0  0  0  0  0  0
   18.9548   20.7013   20.5305 H   0  0  0  0  0  0  0  0  0  0  0  0
   18.9755   19.9476   18.9274 H   0  0  0  0  0  0  0  0  0  0  0  0
   18.1971   19.1104   20.2860 H   0  0  0  0  0  0  0  0  0  0  0  0
  1  2  1  0  0  0  0
  1  3  2  0  0  0  0
  1  4  1  0  0  0  0
  4  5  1  0  0  0  0
  4  6  1  0  0  0  0
  4  7  1  0  0  0  0
  7  8  1  0  0  0  0
  7  9  1  0  0  0  0
  7 10  1  0  0  0  0
 10 11  1  0  0  0  0
 10 12  1  0  0  0  0
 10 13  1  0  0  0  0
 13 14  1  0  0  0  0
 13 15  1  0  0  0  0
 13 16  1  0  0  0  0
 16 17  1  0  0  0  0
 16 18  1  0  0  0  0
 16 19  1  0  0  0  0
 19 20  1  0  0  0  0
 19 21  1  0  0  0  0
 19 22  1  0  0  0  0
 22 23  1  0  0  0  0
 22 24  1  0  0  0  0
 22 25  1  0  0  0  0
M  END
> <VM2 Rank>
54

> <Conf_Id>
453

> <Probability>
0.11

> <Sum Probability>
97.39

> <Delta G>
3.221

> <G>
-4.742

> <E>
-29.700

> <-TS>
24.958

> <U+W>
-50.268

> <U>
9.318

> <W>
-59.585

> <W(PB)>
-62.043

> <W(SA)>
2.458

> <Valence>
8.828

> <Coulomb>
-0.524

> <VdW>
1.014

> <VdW6>
-9.805

> <VdW12>
10.819

> <Bond>
0.208

> <Angle>
2.883

> <Pdih>
5.736

> <Idih>
0.000

> <Tether>
0.000

$$$$
VeraChem MOL file


 25 24  0  0  0  0  0  0  0  0999 V2000     
   20.1299   19.6131   27.1786 C   0  0  0  0  0  0  0  0  0  0  0  0
   21.2436   20.0171   27.4497 O   0  5  0  0  0  0  0  0  0  0  0  0
   19.1160   20.2550   27.3713 O   0  0  0  0  0  0  0  0  0  0  0  0
   19.9929   18.2151   26.5822 C   0  0  0  0  0  0  0  0  0  0  0  0
   19.1745   17.7116   27.1102 H   0  0  0  0  0  0  0  0  0  0  0  0
   20.9070   17.6501   26.8014 H   0  0  0  0  0  0  0  0  0  0  0  0
   19.7091   18.2064   25.0577 C   0  0  0  0  0  0  0  0  0  0  0  0
   19.4975   17.1765   24.7401 H   0  0  0  0  0  0  0  0  0  0  0  0
   18.8012   18.7922   24.8627 H   0  0  0  0  0  0  0  0  0  0  0  0
   20.8942   18.7625   24.2321 C   0  0  0  0  0  0  0  0  0  0  0  0
   21.8083   18.2225   24.5143 H   0  0  0  0  0  0  0  0  0  0  0  0
   21.0667   19.8168   24.4891 H   0  0  0  0  0  0  0  0  0  0  0  0
   20.6996   18.6299   22.7027 C   0  0  0  0  0  0  0  0  0  0  0  0
   21.6420   18.9113   22.2159 H   0  0  0  0  0  0  0  0  0  0  0  0
   20.5177   17.5779   22.4444 H   0  0  0  0  0  0  0  0  0  0  0  0
   19.5525   19.5105   22.1486 C   0  0  0  0  0  0  0  0  0  0  0  0
   19.7332   20.5620   22.4102 H   0  0  0  0  0  0  0  0  0  0  0  0
   18.6086   19.2273   22.6313 H   0  0  0  0  0  0  0  0  0  0  0  0
   19.3639   19.3830   20.6187 C   0  0  0  0  0  0  0  0  0  0  0  0
   19.1941   18.3307   20.3521 H   0  0  0  0  0  0  0  0  0  0  0  0
   18.4533   19.9263   20.3306 H   0  0  0  0  0  0  0  0  0  0  0  0
   20.5514   19.9414   19.8045 C   0  0  0  0  0  0  0  0  0  0  0  0
   21.4620   19.3514   19.9659 H   0  0  0  0  0  0  0  0  0  0  0  0
   20.3258   19.9152   18.7305 H   0  0  0  0  0  0  0  0  0  0  0  0
   20.7616   20.9830   20.0800 H   0  0  0  0  0  0  0  0  0  0  0  0
  1  2  1  0  0  0  0
  1  3  2  0  0  0  0
  1  4  1  0  0  0  0
  4  5  1  0  0  0  0
  4  6  1  0  0  0  0
  4  7  1  0  0  0  0
  7  8  1  0  0  0  0
  7  9  1  0  0  0  0
  7 10  1  0  0  0  0
 10 11  1  0  0  0  0
 10 12  1  0  0  0  0
 10 13  1  0  0  0  0
 13 14  1  0  0  0  0
 13 15  1  0  0  0  0
 13 16  1  0  0  0  0
 16 17  1  0  0  0  0
 16 18  1  0  0  0  0
 16 19  1  0  0  0  0
 19 20  1  0  0  0  0
 19 21  1  0  0  0  0
 19 22  1  0  0  0  0
 22 23  1  0  0  0  0
 22 24  1  0  0  0  0
 22 25  1  0  0  0  0
M  END
> <VM2 Rank>
55

> <Conf_Id>
163

> <Probability>
0.11

> <Sum Probability>
97.50

> <Delta G>
3.221

> <G>
-4.741

> <E>
-29.609

> <-TS>
24.868

> <U+W>
-50.176

> <U>
9.764

> <W>
-59.940

> <W(PB)>
-62.392

> <W(SA)>
2.452

> <Valence>
8.882

> <Coulomb>
-0.122

> <VdW>
1.003

> <VdW6>
-9.782

> <VdW12>
10.785

> <Bond>
0.212

> <Angle>
2.941

> <Pdih>
5.730

> <Idih>
0.001

> <Tether>
0.000

$$$$
VeraChem MOL file


 25 24  0  0  0  0  0  0  0  0999 V2000     
   20.1409   19.6138   27.1785 C   0  0  0  0  0  0  0  0  0  0  0  0
   21.0689   20.3798   27.3489 O   0  5  0  0  0  0  0  0  0  0  0  0
   18.9913   19.8731   27.4757 O   0  0  0  0  0  0  0  0  0  0  0  0
   20.4410   18.2437   26.5771 C   0  0  0  0  0  0  0  0  0  0  0  0
   19.6116   17.5672   26.8164 H   0  0  0  0  0  0  0  0  0  0  0  0
   21.3287   17.8493   27.0853 H   0  0  0  0  0  0  0  0  0  0  0  0
   20.6885   18.2690   25.0464 C   0  0  0  0  0  0  0  0  0  0  0  0
   21.5096   18.9654   24.8314 H   0  0  0  0  0  0  0  0  0  0  0  0
   21.0221   17.2740   24.7225 H   0  0  0  0  0  0  0  0  0  0  0  0
   19.4235   18.6685   24.2491 C   0  0  0  0  0  0  0  0  0  0  0  0
   19.1241   19.6926   24.5115 H   0  0  0  0  0  0  0  0  0  0  0  0
   18.5924   18.0169   24.5515 H   0  0  0  0  0  0  0  0  0  0  0  0
   19.5981   18.5594   22.7154 C   0  0  0  0  0  0  0  0  0  0  0  0
   19.9066   17.5388   22.4515 H   0  0  0  0  0  0  0  0  0  0  0  0
   18.6166   18.7178   22.2508 H   0  0  0  0  0  0  0  0  0  0  0  0
   20.6107   19.5782   22.1363 C   0  0  0  0  0  0  0  0  0  0  0  0
   21.5938   19.4183   22.5968 H   0  0  0  0  0  0  0  0  0  0  0  0
   20.3035   20.5985   22.4036 H   0  0  0  0  0  0  0  0  0  0  0  0
   20.7787   19.4735   20.6023 C   0  0  0  0  0  0  0  0  0  0  0  0
   21.6058   20.1279   20.2942 H   0  0  0  0  0  0  0  0  0  0  0  0
   21.0749   18.4510   20.3303 H   0  0  0  0  0  0  0  0  0  0  0  0
   19.5114   19.8749   19.8164 C   0  0  0  0  0  0  0  0  0  0  0  0
   19.1766   20.8816   20.0983 H   0  0  0  0  0  0  0  0  0  0  0  0
   19.7136   19.8760   18.7376 H   0  0  0  0  0  0  0  0  0  0  0  0
   18.6872   19.1740   19.9979 H   0  0  0  0  0  0  0  0  0  0  0  0
  1  2  1  0  0  0  0
  1  3  2  0  0  0  0
  1  4  1  0  0  0  0
  4  5  1  0  0  0  0
  4  6  1  0  0  0  0
  4  7  1  0  0  0  0
  7  8  1  0  0  0  0
  7  9  1  0  0  0  0
  7 10  1  0  0  0  0
 10 11  1  0  0  0  0
 10 12  1  0  0  0  0
 10 13  1  0  0  0  0
 13 14  1  0  0  0  0
 13 15  1  0  0  0  0
 13 16  1  0  0  0  0
 16 17  1  0  0  0  0
 16 18  1  0  0  0  0
 16 19  1  0  0  0  0
 19 20  1  0  0  0  0
 19 21  1  0  0  0  0
 19 22  1  0  0  0  0
 22 23  1  0  0  0  0
 22 24  1  0  0  0  0
 22 25  1  0  0  0  0
M  END
> <VM2 Rank>
56

> <Conf_Id>
1091

> <Probability>
0.11

> <Sum Probability>
97.61

> <Delta G>
3.247

> <G>
-4.716

> <E>
-29.583

> <-TS>
24.868

> <U+W>
-50.151

> <U>
9.763

> <W>
-59.914

> <W(PB)>
-62.383

> <W(SA)>
2.468

> <Valence>
8.883

> <Coulomb>
-0.122

> <VdW>
1.003

> <VdW6>
-9.782

> <VdW12>
10.785

> <Bond>
0.212

> <Angle>
2.941

> <Pdih>
5.730

> <Idih>
0.001

> <Tether>
0.000

$$$$
VeraChem MOL file


 25 24  0  0  0  0  0  0  0  0999 V2000     
   20.2004   19.1782   27.3626 C   0  0  0  0  0  0  0  0  0  0  0  0
   21.3179   19.4038   27.7837 O   0  5  0  0  0  0  0  0  0  0  0  0
   19.5553   18.1926   27.6618 O   0  0  0  0  0  0  0  0  0  0  0  0
   19.5672   20.1987   26.4209 C   0  0  0  0  0  0  0  0  0  0  0  0
   19.7371   21.1917   26.8532 H   0  0  0  0  0  0  0  0  0  0  0  0
   18.4822   20.0389   26.4091 H   0  0  0  0  0  0  0  0  0  0  0  0
   20.1298   20.1602   24.9760 C   0  0  0  0  0  0  0  0  0  0  0  0
   19.7318   21.0222   24.4262 H   0  0  0  0  0  0  0  0  0  0  0  0
   21.2216   20.2800   25.0076 H   0  0  0  0  0  0  0  0  0  0  0  0
   19.7667   18.8522   24.2321 C   0  0  0  0  0  0  0  0  0  0  0  0
   18.6746   18.7563   24.1609 H   0  0  0  0  0  0  0  0  0  0  0  0
   20.1137   17.9943   24.8241 H   0  0  0  0  0  0  0  0  0  0  0  0
   20.3897   18.7493   22.8193 C   0  0  0  0  0  0  0  0  0  0  0  0
   21.4799   18.8642   22.8890 H   0  0  0  0  0  0  0  0  0  0  0  0
   20.2075   17.7348   22.4426 H   0  0  0  0  0  0  0  0  0  0  0  0
   19.8179   19.7798   21.8143 C   0  0  0  0  0  0  0  0  0  0  0  0
   20.0053   20.7953   22.1851 H   0  0  0  0  0  0  0  0  0  0  0  0
   18.7272   19.6676   21.7487 H   0  0  0  0  0  0  0  0  0  0  0  0
   20.4353   19.6667   20.4006 C   0  0  0  0  0  0  0  0  0  0  0  0
   20.0819   20.5123   19.7945 H   0  0  0  0  0  0  0  0  0  0  0  0
   21.5278   19.7659   20.4635 H   0  0  0  0  0  0  0  0  0  0  0  0
   20.0728   18.3526   19.6748 C   0  0  0  0  0  0  0  0  0  0  0  0
   20.4533   18.3658   18.6453 H   0  0  0  0  0  0  0  0  0  0  0  0
   20.5101   17.4816   20.1782 H   0  0  0  0  0  0  0  0  0  0  0  0
   18.9845   18.2153   19.6308 H   0  0  0  0  0  0  0  0  0  0  0  0
  1  2  1  0  0  0  0
  1  3  2  0  0  0  0
  1  4  1  0  0  0  0
  4  5  1  0  0  0  0
  4  6  1  0  0  0  0
  4  7  1  0  0  0  0
  7  8  1  0  0  0  0
  7  9  1  0  0  0  0
  7 10  1  0  0  0  0
 10 11  1  0  0  0  0
 10 12  1  0  0  0  0
 10 13  1  0  0  0  0
 13 14  1  0  0  0  0
 13 15  1  0  0  0  0
 13 16  1  0  0  0  0
 16 17  1  0  0  0  0
 16 18  1  0  0  0  0
 16 19  1  0  0  0  0
 19 20  1  0  0  0  0
 19 21  1  0  0  0  0
 19 22  1  0  0  0  0
 22 23  1  0  0  0  0
 22 24  1  0  0  0  0
 22 25  1  0  0  0  0
M  END
> <VM2 Rank>
57

> <Conf_Id>
278

> <Probability>
0.11

> <Sum Probability>
97.72

> <Delta G>
3.248

> <G>
-4.715

> <E>
-29.586

> <-TS>
24.871

> <U+W>
-50.154

> <U>
9.417

> <W>
-59.570

> <W(PB)>
-62.044

> <W(SA)>
2.474

> <Valence>
8.939

> <Coulomb>
-0.614

> <VdW>
1.091

> <VdW6>
-9.710

> <VdW12>
10.802

> <Bond>
0.216

> <Angle>
2.979

> <Pdih>
5.743

> <Idih>
0.000

> <Tether>
0.000

$$$$
VeraChem MOL file


 25 24  0  0  0  0  0  0  0  0999 V2000     
   20.0888   19.4182   27.3598 C   0  0  0  0  0  0  0  0  0  0  0  0
   20.9783   20.1347   27.7752 O   0  5  0  0  0  0  0  0  0  0  0  0
   18.9169   19.5663   27.6458 O   0  0  0  0  0  0  0  0  0  0  0  0
   20.4688   18.2582   26.4436 C   0  0  0  0  0  0  0  0  0  0  0  0
   19.6470   17.5319   26.4385 H   0  0  0  0  0  0  0  0  0  0  0  0
   21.3333   17.7562   26.8936 H   0  0  0  0  0  0  0  0  0  0  0  0
   20.8152   18.6851   24.9933 C   0  0  0  0  0  0  0  0  0  0  0  0
   21.6107   19.4427   25.0175 H   0  0  0  0  0  0  0  0  0  0  0  0
   21.2222   17.8145   24.4639 H   0  0  0  0  0  0  0  0  0  0  0  0
   19.5882   19.2364   24.2276 C   0  0  0  0  0  0  0  0  0  0  0  0
   19.1511   20.0662   24.7997 H   0  0  0  0  0  0  0  0  0  0  0  0
   18.8113   18.4624   24.1643 H   0  0  0  0  0  0  0  0  0  0  0  0
   19.9241   19.7516   22.8075 C   0  0  0  0  0  0  0  0  0  0  0  0
   19.0347   20.2591   22.4129 H   0  0  0  0  0  0  0  0  0  0  0  0
   20.7144   20.5120   22.8696 H   0  0  0  0  0  0  0  0  0  0  0  0
   20.3518   18.6309   21.8278 C   0  0  0  0  0  0  0  0  0  0  0  0
   19.5633   17.8684   21.7699 H   0  0  0  0  0  0  0  0  0  0  0  0
   21.2454   18.1266   22.2164 H   0  0  0  0  0  0  0  0  0  0  0  0
   20.6762   19.1482   20.4066 C   0  0  0  0  0  0  0  0  0  0  0  0
   21.4559   19.9204   20.4616 H   0  0  0  0  0  0  0  0  0  0  0  0
   21.0999   18.3213   19.8201 H   0  0  0  0  0  0  0  0  0  0  0  0
   19.4446   19.7042   19.6589 C   0  0  0  0  0  0  0  0  0  0  0  0
   19.0565   20.6098   20.1415 H   0  0  0  0  0  0  0  0  0  0  0  0
   19.7092   19.9667   18.6265 H   0  0  0  0  0  0  0  0  0  0  0  0
   18.6382   18.9603   19.6221 H   0  0  0  0  0  0  0  0  0  0  0  0
  1  2  1  0  0  0  0
  1  3  2  0  0  0  0
  1  4  1  0  0  0  0
  4  5  1  0  0  0  0
  4  6  1  0  0  0  0
  4  7  1  0  0  0  0
  7  8  1  0  0  0  0
  7  9  1  0  0  0  0
  7 10  1  0  0  0  0
 10 11  1  0  0  0  0
 10 12  1  0  0  0  0
 10 13  1  0  0  0  0
 13 14  1  0  0  0  0
 13 15  1  0  0  0  0
 13 16  1  0  0  0  0
 16 17  1  0  0  0  0
 16 18  1  0  0  0  0
 16 19  1  0  0  0  0
 19 20  1  0  0  0  0
 19 21  1  0  0  0  0
 19 22  1  0  0  0  0
 22 23  1  0  0  0  0
 22 24  1  0  0  0  0
 22 25  1  0  0  0  0
M  END
> <VM2 Rank>
58

> <Conf_Id>
596

> <Probability>
0.11

> <Sum Probability>
97.83

> <Delta G>
3.259

> <G>
-4.703

> <E>
-29.574

> <-TS>
24.871

> <U+W>
-50.141

> <U>
9.416

> <W>
-59.558

> <W(PB)>
-62.022

> <W(SA)>
2.464

> <Valence>
8.939

> <Coulomb>
-0.615

> <VdW>
1.092

> <VdW6>
-9.710

> <VdW12>
10.802

> <Bond>
0.216

> <Angle>
2.979

> <Pdih>
5.743

> <Idih>
0.000

> <Tether>
0.000

$$$$
VeraChem MOL file


 25 24  0  0  0  0  0  0  0  0999 V2000     
   20.1960   19.5404   27.2068 C   0  0  0  0  0  0  0  0  0  0  0  0
   21.3737   19.4980   27.5040 O   0  5  0  0  0  0  0  0  0  0  0  0
   19.3213   18.9874   27.8441 O   0  0  0  0  0  0  0  0  0  0  0  0
   19.7889   20.3475   25.9772 C   0  0  0  0  0  0  0  0  0  0  0  0
   20.6017   21.0403   25.7277 H   0  0  0  0  0  0  0  0  0  0  0  0
   18.9249   20.9604   26.2597 H   0  0  0  0  0  0  0  0  0  0  0  0
   19.4271   19.4806   24.7431 C   0  0  0  0  0  0  0  0  0  0  0  0
   18.6397   18.7652   25.0181 H   0  0  0  0  0  0  0  0  0  0  0  0
   19.0055   20.1357   23.9700 H   0  0  0  0  0  0  0  0  0  0  0  0
   20.6487   18.7224   24.1707 C   0  0  0  0  0  0  0  0  0  0  0  0
   21.1011   18.1149   24.9664 H   0  0  0  0  0  0  0  0  0  0  0  0
   21.4205   19.4402   23.8639 H   0  0  0  0  0  0  0  0  0  0  0  0
   20.2962   17.7845   22.9886 C   0  0  0  0  0  0  0  0  0  0  0  0
   21.2073   17.2573   22.6745 H   0  0  0  0  0  0  0  0  0  0  0  0
   19.6058   17.0083   23.3457 H   0  0  0  0  0  0  0  0  0  0  0  0
   19.6686   18.4771   21.7524 C   0  0  0  0  0  0  0  0  0  0  0  0
   18.6974   18.9140   22.0189 H   0  0  0  0  0  0  0  0  0  0  0  0
   19.4574   17.7083   20.9967 H   0  0  0  0  0  0  0  0  0  0  0  0
   20.5744   19.5607   21.1252 C   0  0  0  0  0  0  0  0  0  0  0  0
   20.7328   20.3789   21.8402 H   0  0  0  0  0  0  0  0  0  0  0  0
   21.5617   19.1341   20.9011 H   0  0  0  0  0  0  0  0  0  0  0  0
   19.9583   20.1355   19.8337 C   0  0  0  0  0  0  0  0  0  0  0  0
   18.9811   20.5935   20.0355 H   0  0  0  0  0  0  0  0  0  0  0  0
   20.6113   20.9057   19.4033 H   0  0  0  0  0  0  0  0  0  0  0  0
   19.8197   19.3491   19.0802 H   0  0  0  0  0  0  0  0  0  0  0  0
  1  2  1  0  0  0  0
  1  3  2  0  0  0  0
  1  4  1  0  0  0  0
  4  5  1  0  0  0  0
  4  6  1  0  0  0  0
  4  7  1  0  0  0  0
  7  8  1  0  0  0  0
  7  9  1  0  0  0  0
  7 10  1  0  0  0  0
 10 11  1  0  0  0  0
 10 12  1  0  0  0  0
 10 13  1  0  0  0  0
 13 14  1  0  0  0  0
 13 15  1  0  0  0  0
 13 16  1  0  0  0  0
 16 17  1  0  0  0  0
 16 18  1  0  0  0  0
 16 19  1  0  0  0  0
 19 20  1  0  0  0  0
 19 21  1  0  0  0  0
 19 22  1  0  0  0  0
 22 23  1  0  0  0  0
 22 24  1  0  0  0  0
 22 25  1  0  0  0  0
M  END
> <VM2 Rank>
59

> <Conf_Id>
743

> <Probability>
0.10

> <Sum Probability>
97.92

> <Delta G>
3.326

> <G>
-4.637

> <E>
-29.789

> <-TS>
25.152

> <U+W>
-50.357

> <U>
9.264

> <W>
-59.620

> <W(PB)>
-62.088

> <W(SA)>
2.468

> <Valence>
8.801

> <Coulomb>
-0.375

> <VdW>
0.837

> <VdW6>
-10.171

> <VdW12>
11.008

> <Bond>
0.218

> <Angle>
3.129

> <Pdih>
5.454

> <Idih>
0.001

> <Tether>
0.000

$$$$
VeraChem MOL file


 25 24  0  0  0  0  0  0  0  0999 V2000     
   20.1864   19.8264   26.8662 C   0  0  0  0  0  0  0  0  0  0  0  0
   21.2239   20.4502   26.7581 O   0  5  0  0  0  0  0  0  0  0  0  0
   19.1327   20.3270   27.2069 O   0  0  0  0  0  0  0  0  0  0  0  0
   20.2110   18.3272   26.5818 C   0  0  0  0  0  0  0  0  0  0  0  0
   19.6746   17.8299   27.3984 H   0  0  0  0  0  0  0  0  0  0  0  0
   21.2502   17.9794   26.6260 H   0  0  0  0  0  0  0  0  0  0  0  0
   19.5714   17.9320   25.2254 C   0  0  0  0  0  0  0  0  0  0  0  0
   19.5068   16.8370   25.1677 H   0  0  0  0  0  0  0  0  0  0  0  0
   18.5413   18.3124   25.1841 H   0  0  0  0  0  0  0  0  0  0  0  0
   20.3725   18.4604   24.0142 C   0  0  0  0  0  0  0  0  0  0  0  0
   21.4038   18.0857   24.0638 H   0  0  0  0  0  0  0  0  0  0  0  0
   20.4269   19.5558   24.0662 H   0  0  0  0  0  0  0  0  0  0  0  0
   19.7301   18.0328   22.6745 C   0  0  0  0  0  0  0  0  0  0  0  0
   19.6145   16.9405   22.6667 H   0  0  0  0  0  0  0  0  0  0  0  0
   18.7158   18.4464   22.6011 H   0  0  0  0  0  0  0  0  0  0  0  0
   20.5600   18.4430   21.4318 C   0  0  0  0  0  0  0  0  0  0  0  0
   20.0616   18.0563   20.5326 H   0  0  0  0  0  0  0  0  0  0  0  0
   21.5367   17.9423   21.4757 H   0  0  0  0  0  0  0  0  0  0  0  0
   20.7881   19.9654   21.2606 C   0  0  0  0  0  0  0  0  0  0  0  0
   21.3783   20.3570   22.0998 H   0  0  0  0  0  0  0  0  0  0  0  0
   21.3963   20.1286   20.3603 H   0  0  0  0  0  0  0  0  0  0  0  0
   19.4769   20.7695   21.1264 C   0  0  0  0  0  0  0  0  0  0  0  0
   18.8582   20.3789   20.3081 H   0  0  0  0  0  0  0  0  0  0  0  0
   18.8894   20.7304   22.0524 H   0  0  0  0  0  0  0  0  0  0  0  0
   19.6930   21.8245   20.9142 H   0  0  0  0  0  0  0  0  0  0  0  0
  1  2  1  0  0  0  0
  1  3  2  0  0  0  0
  1  4  1  0  0  0  0
  4  5  1  0  0  0  0
  4  6  1  0  0  0  0
  4  7  1  0  0  0  0
  7  8  1  0  0  0  0
  7  9  1  0  0  0  0
  7 10  1  0  0  0  0
 10 11  1  0  0  0  0
 10 12  1  0  0  0  0
 10 13  1  0  0  0  0
 13 14  1  0  0  0  0
 13 15  1  0  0  0  0
 13 16  1  0  0  0  0
 16 17  1  0  0  0  0
 16 18  1  0  0  0  0
 16 19  1  0  0  0  0
 19 20  1  0  0  0  0
 19 21  1  0  0  0  0
 19 22  1  0  0  0  0
 22 23  1  0  0  0  0
 22 24  1  0  0  0  0
 22 25  1  0  0  0  0
M  END
> <VM2 Rank>
60

> <Conf_Id>
236

> <Probability>
0.09

> <Sum Probability>
98.01

> <Delta G>
3.346

> <G>
-4.617

> <E>
-29.741

> <-TS>
25.125

> <U+W>
-50.309

> <U>
10.400

> <W>
-60.709

> <W(PB)>
-63.150

> <W(SA)>
2.441

> <Valence>
8.736

> <Coulomb>
0.892

> <VdW>
0.772

> <VdW6>
-10.163

> <VdW12>
10.935

> <Bond>
0.210

> <Angle>
3.058

> <Pdih>
5.466

> <Idih>
0.001

> <Tether>
0.000

$$$$
VeraChem MOL file


 25 24  0  0  0  0  0  0  0  0999 V2000     
   20.2745   19.1493   27.2161 C   0  0  0  0  0  0  0  0  0  0  0  0
   21.3425   19.6549   27.5002 O   0  5  0  0  0  0  0  0  0  0  0  0
   19.2486   19.3516   27.8356 O   0  0  0  0  0  0  0  0  0  0  0  0
   20.2205   18.1919   26.0288 C   0  0  0  0  0  0  0  0  0  0  0  0
   19.6563   17.3074   26.3473 H   0  0  0  0  0  0  0  0  0  0  0  0
   21.2395   17.8545   25.8039 H   0  0  0  0  0  0  0  0  0  0  0  0
   19.5641   18.7949   24.7596 C   0  0  0  0  0  0  0  0  0  0  0  0
   19.4344   17.9932   24.0213 H   0  0  0  0  0  0  0  0  0  0  0  0
   18.5596   19.1640   25.0087 H   0  0  0  0  0  0  0  0  0  0  0  0
   20.4049   19.9377   24.1416 C   0  0  0  0  0  0  0  0  0  0  0  0
   21.3964   19.5591   23.8611 H   0  0  0  0  0  0  0  0  0  0  0  0
   20.5812   20.7086   24.9043 H   0  0  0  0  0  0  0  0  0  0  0  0
   19.7295   20.6121   22.9209 C   0  0  0  0  0  0  0  0  0  0  0  0
   18.7902   21.0782   23.2482 H   0  0  0  0  0  0  0  0  0  0  0  0
   20.3703   21.4344   22.5746 H   0  0  0  0  0  0  0  0  0  0  0  0
   19.4285   19.6752   21.7237 C   0  0  0  0  0  0  0  0  0  0  0  0
   18.9447   20.2677   20.9353 H   0  0  0  0  0  0  0  0  0  0  0  0
   18.6980   18.9108   22.0188 H   0  0  0  0  0  0  0  0  0  0  0  0
   20.6875   18.9963   21.1388 C   0  0  0  0  0  0  0  0  0  0  0  0
   21.4366   19.7594   20.8865 H   0  0  0  0  0  0  0  0  0  0  0  0
   21.1419   18.3359   21.8892 H   0  0  0  0  0  0  0  0  0  0  0  0
   20.3524   18.1700   19.8807 C   0  0  0  0  0  0  0  0  0  0  0  0
   19.6249   17.3810   20.1120 H   0  0  0  0  0  0  0  0  0  0  0  0
   19.9289   18.8070   19.0931 H   0  0  0  0  0  0  0  0  0  0  0  0
   21.2556   17.6916   19.4804 H   0  0  0  0  0  0  0  0  0  0  0  0
  1  2  1  0  0  0  0
  1  3  2  0  0  0  0
  1  4  1  0  0  0  0
  4  5  1  0  0  0  0
  4  6  1  0  0  0  0
  4  7  1  0  0  0  0
  7  8  1  0  0  0  0
  7  9  1  0  0  0  0
  7 10  1  0  0  0  0
 10 11  1  0  0  0  0
 10 12  1  0  0  0  0
 10 13  1  0  0  0  0
 13 14  1  0  0  0  0
 13 15  1  0  0  0  0
 13 16  1  0  0  0  0
 16 17  1  0  0  0  0
 16 18  1  0  0  0  0
 16 19  1  0  0  0  0
 19 20  1  0  0  0  0
 19 21  1  0  0  0  0
 19 22  1  0  0  0  0
 22 23  1  0  0  0  0
 22 24  1  0  0  0  0
 22 25  1  0  0  0  0
M  END
> <VM2 Rank>
61

> <Conf_Id>
864

> <Probability>
0.09

> <Sum Probability>
98.10

> <Delta G>
3.369

> <G>
-4.593

> <E>
-29.745

> <-TS>
25.152

> <U+W>
-50.313

> <U>
9.263

> <W>
-59.576

> <W(PB)>
-62.031

> <W(SA)>
2.456

> <Valence>
8.801

> <Coulomb>
-0.375

> <VdW>
0.837

> <VdW6>
-10.171

> <VdW12>
11.008

> <Bond>
0.218

> <Angle>
3.129

> <Pdih>
5.454

> <Idih>
0.000

> <Tether>
0.000

$$$$
VeraChem MOL file


 25 24  0  0  0  0  0  0  0  0999 V2000     
   20.0503   19.8177   26.8678 C   0  0  0  0  0  0  0  0  0  0  0  0
   21.0392   20.4491   27.1849 O   0  5  0  0  0  0  0  0  0  0  0  0
   18.9396   20.3038   26.7847 O   0  0  0  0  0  0  0  0  0  0  0  0
   20.2107   18.3272   26.5818 C   0  0  0  0  0  0  0  0  0  0  0  0
   19.2257   17.8497   26.6495 H   0  0  0  0  0  0  0  0  0  0  0  0
   20.8248   17.9035   27.3851 H   0  0  0  0  0  0  0  0  0  0  0  0
   20.8641   18.0148   25.2104 C   0  0  0  0  0  0  0  0  0  0  0  0
   21.8360   18.5235   25.1459 H   0  0  0  0  0  0  0  0  0  0  0  0
   21.0665   16.9370   25.1496 H   0  0  0  0  0  0  0  0  0  0  0  0
   19.9744   18.4350   24.0189 C   0  0  0  0  0  0  0  0  0  0  0  0
   19.7820   19.5146   24.0736 H   0  0  0  0  0  0  0  0  0  0  0  0
   19.0007   17.9319   24.0916 H   0  0  0  0  0  0  0  0  0  0  0  0
   20.6349   18.0907   22.6640 C   0  0  0  0  0  0  0  0  0  0  0  0
   21.5863   18.6301   22.5678 H   0  0  0  0  0  0  0  0  0  0  0  0
   20.8887   17.0221   22.6519 H   0  0  0  0  0  0  0  0  0  0  0  0
   19.7311   18.3900   21.4414 C   0  0  0  0  0  0  0  0  0  0  0  0
   18.8274   17.7690   21.5071 H   0  0  0  0  0  0  0  0  0  0  0  0
   20.2538   18.0685   20.5303 H   0  0  0  0  0  0  0  0  0  0  0  0
   19.3070   19.8707   21.2777 C   0  0  0  0  0  0  0  0  0  0  0  0
   18.6623   19.9536   20.3920 H   0  0  0  0  0  0  0  0  0  0  0  0
   18.6914   20.1851   22.1309 H   0  0  0  0  0  0  0  0  0  0  0  0
   20.5017   20.8350   21.1143 C   0  0  0  0  0  0  0  0  0  0  0  0
   21.1459   20.5252   20.2813 H   0  0  0  0  0  0  0  0  0  0  0  0
   20.1480   21.8535   20.9087 H   0  0  0  0  0  0  0  0  0  0  0  0
   21.1107   20.8725   22.0264 H   0  0  0  0  0  0  0  0  0  0  0  0
  1  2  1  0  0  0  0
  1  3  2  0  0  0  0
  1  4  1  0  0  0  0
  4  5  1  0  0  0  0
  4  6  1  0  0  0  0
  4  7  1  0  0  0  0
  7  8  1  0  0  0  0
  7  9  1  0  0  0  0
  7 10  1  0  0  0  0
 10 11  1  0  0  0  0
 10 12  1  0  0  0  0
 10 13  1  0  0  0  0
 13 14  1  0  0  0  0
 13 15  1  0  0  0  0
 13 16  1  0  0  0  0
 16 17  1  0  0  0  0
 16 18  1  0  0  0  0
 16 19  1  0  0  0  0
 19 20  1  0  0  0  0
 19 21  1  0  0  0  0
 19 22  1  0  0  0  0
 22 23  1  0  0  0  0
 22 24  1  0  0  0  0
 22 25  1  0  0  0  0
M  END
> <VM2 Rank>
62

> <Conf_Id>
734

> <Probability>
0.09

> <Sum Probability>
98.19

> <Delta G>
3.372

> <G>
-4.590

> <E>
-29.714

> <-TS>
25.124

> <U+W>
-50.282

> <U>
10.400

> <W>
-60.682

> <W(PB)>
-63.131

> <W(SA)>
2.449

> <Valence>
8.736

> <Coulomb>
0.892

> <VdW>
0.772

> <VdW6>
-10.163

> <VdW12>
10.935

> <Bond>
0.210

> <Angle>
3.058

> <Pdih>
5.466

> <Idih>
0.001

> <Tether>
0.000

$$$$
VeraChem MOL file


 25 24  0  0  0  0  0  0  0  0999 V2000     
   20.3849   19.6566   26.8940 C   0  0  0  0  0  0  0  0  0  0  0  0
   21.3303   20.3104   26.4996 O   0  5  0  0  0  0  0  0  0  0  0  0
   20.4223   18.9482   27.8811 O   0  0  0  0  0  0  0  0  0  0  0  0
   19.0698   19.7492   26.1254 C   0  0  0  0  0  0  0  0  0  0  0  0
   19.1167   20.6122   25.4516 H   0  0  0  0  0  0  0  0  0  0  0  0
   18.2813   19.9681   26.8548 H   0  0  0  0  0  0  0  0  0  0  0  0
   18.7006   18.4601   25.3414 C   0  0  0  0  0  0  0  0  0  0  0  0
   18.5920   17.6322   26.0556 H   0  0  0  0  0  0  0  0  0  0  0  0
   17.7161   18.5932   24.8731 H   0  0  0  0  0  0  0  0  0  0  0  0
   19.7293   18.0522   24.2582 C   0  0  0  0  0  0  0  0  0  0  0  0
   19.4115   17.0966   23.8192 H   0  0  0  0  0  0  0  0  0  0  0  0
   20.7064   17.8680   24.7256 H   0  0  0  0  0  0  0  0  0  0  0  0
   19.8829   19.0983   23.1302 C   0  0  0  0  0  0  0  0  0  0  0  0
   18.8933   19.3311   22.7164 H   0  0  0  0  0  0  0  0  0  0  0  0
   20.2905   20.0311   23.5414 H   0  0  0  0  0  0  0  0  0  0  0  0
   20.8173   18.5911   22.0074 C   0  0  0  0  0  0  0  0  0  0  0  0
   20.3922   17.6867   21.5513 H   0  0  0  0  0  0  0  0  0  0  0  0
   21.7779   18.2945   22.4505 H   0  0  0  0  0  0  0  0  0  0  0  0
   21.0877   19.6458   20.9092 C   0  0  0  0  0  0  0  0  0  0  0  0
   21.5202   20.5491   21.3611 H   0  0  0  0  0  0  0  0  0  0  0  0
   21.8463   19.2503   20.2197 H   0  0  0  0  0  0  0  0  0  0  0  0
   19.8279   20.0221   20.0995 C   0  0  0  0  0  0  0  0  0  0  0  0
   19.0842   20.5278   20.7280 H   0  0  0  0  0  0  0  0  0  0  0  0
   20.0881   20.7037   19.2794 H   0  0  0  0  0  0  0  0  0  0  0  0
   19.3607   19.1301   19.6625 H   0  0  0  0  0  0  0  0  0  0  0  0
  1  2  1  0  0  0  0
  1  3  2  0  0  0  0
  1  4  1  0  0  0  0
  4  5  1  0  0  0  0
  4  6  1  0  0  0  0
  4  7  1  0  0  0  0
  7  8  1  0  0  0  0
  7  9  1  0  0  0  0
  7 10  1  0  0  0  0
 10 11  1  0  0  0  0
 10 12  1  0  0  0  0
 10 13  1  0  0  0  0
 13 14  1  0  0  0  0
 13 15  1  0  0  0  0
 13 16  1  0  0  0  0
 16 17  1  0  0  0  0
 16 18  1  0  0  0  0
 16 19  1  0  0  0  0
 19 20  1  0  0  0  0
 19 21  1  0  0  0  0
 19 22  1  0  0  0  0
 22 23  1  0  0  0  0
 22 24  1  0  0  0  0
 22 25  1  0  0  0  0
M  END
> <VM2 Rank>
63

> <Conf_Id>
995

> <Probability>
0.08

> <Sum Probability>
98.27

> <Delta G>
3.458

> <G>
-4.504

> <E>
-29.476

> <-TS>
24.971

> <U+W>
-50.043

> <U>
10.315

> <W>
-60.358

> <W(PB)>
-62.816

> <W(SA)>
2.458

> <Valence>
8.797

> <Coulomb>
0.776

> <VdW>
0.742

> <VdW6>
-10.191

> <VdW12>
10.932

> <Bond>
0.216

> <Angle>
2.999

> <Pdih>
5.581

> <Idih>
0.001

> <Tether>
0.000

$$$$
VeraChem MOL file


 25 24  0  0  0  0  0  0  0  0999 V2000     
   19.7510   19.2499   26.9049 C   0  0  0  0  0  0  0  0  0  0  0  0
   20.4145   19.2186   27.9229 O   0  5  0  0  0  0  0  0  0  0  0  0
   18.8181   20.0098   26.7338 O   0  0  0  0  0  0  0  0  0  0  0  0
   20.0929   18.2612   25.7938 C   0  0  0  0  0  0  0  0  0  0  0  0
   19.2560   18.2235   25.0871 H   0  0  0  0  0  0  0  0  0  0  0  0
   20.1586   17.2669   26.2506 H   0  0  0  0  0  0  0  0  0  0  0  0
   21.4209   18.5753   25.0522 C   0  0  0  0  0  0  0  0  0  0  0  0
   22.2459   18.5374   25.7768 H   0  0  0  0  0  0  0  0  0  0  0  0
   21.6247   17.7804   24.3232 H   0  0  0  0  0  0  0  0  0  0  0  0
   21.4478   19.9538   24.3426 C   0  0  0  0  0  0  0  0  0  0  0  0
   22.4249   20.0815   23.8573 H   0  0  0  0  0  0  0  0  0  0  0  0
   21.3815   20.7470   25.0998 H   0  0  0  0  0  0  0  0  0  0  0  0
   20.3322   20.1790   23.2913 C   0  0  0  0  0  0  0  0  0  0  0  0
   19.3494   20.1661   23.7812 H   0  0  0  0  0  0  0  0  0  0  0  0
   20.4495   21.1886   22.8748 H   0  0  0  0  0  0  0  0  0  0  0  0
   20.3559   19.1526   22.1352 C   0  0  0  0  0  0  0  0  0  0  0  0
   20.1671   18.1447   22.5271 H   0  0  0  0  0  0  0  0  0  0  0  0
   21.3544   19.1381   21.6775 H   0  0  0  0  0  0  0  0  0  0  0  0
   19.2995   19.4809   21.0592 C   0  0  0  0  0  0  0  0  0  0  0  0
   18.3001   19.4986   21.5157 H   0  0  0  0  0  0  0  0  0  0  0  0
   19.4832   20.4855   20.6536 H   0  0  0  0  0  0  0  0  0  0  0  0
   19.3203   18.4529   19.9101 C   0  0  0  0  0  0  0  0  0  0  0  0
   19.1073   17.4426   20.2832 H   0  0  0  0  0  0  0  0  0  0  0  0
   18.5637   18.7018   19.1547 H   0  0  0  0  0  0  0  0  0  0  0  0
   20.3004   18.4364   19.4157 H   0  0  0  0  0  0  0  0  0  0  0  0
  1  2  1  0  0  0  0
  1  3  2  0  0  0  0
  1  4  1  0  0  0  0
  4  5  1  0  0  0  0
  4  6  1  0  0  0  0
  4  7  1  0  0  0  0
  7  8  1  0  0  0  0
  7  9  1  0  0  0  0
  7 10  1  0  0  0  0
 10 11  1  0  0  0  0
 10 12  1  0  0  0  0
 10 13  1  0  0  0  0
 13 14  1  0  0  0  0
 13 15  1  0  0  0  0
 13 16  1  0  0  0  0
 16 17  1  0  0  0  0
 16 18  1  0  0  0  0
 16 19  1  0  0  0  0
 19 20  1  0  0  0  0
 19 21  1  0  0  0  0
 19 22  1  0  0  0  0
 22 23  1  0  0  0  0
 22 24  1  0  0  0  0
 22 25  1  0  0  0  0
M  END
> <VM2 Rank>
64

> <Conf_Id>
961

> <Probability>
0.08

> <Sum Probability>
98.34

> <Delta G>
3.465

> <G>
-4.498

> <E>
-29.749

> <-TS>
25.251

> <U+W>
-50.317

> <U>
9.772

> <W>
-60.089

> <W(PB)>
-62.536

> <W(SA)>
2.447

> <Valence>
8.741

> <Coulomb>
0.479

> <VdW>
0.553

> <VdW6>
-10.627

> <VdW12>
11.179

> <Bond>
0.227

> <Angle>
3.155

> <Pdih>
5.358

> <Idih>
0.001

> <Tether>
0.000

$$$$
VeraChem MOL file


 25 24  0  0  0  0  0  0  0  0999 V2000     
   20.3188   19.6317   26.9954 C   0  0  0  0  0  0  0  0  0  0  0  0
   21.3259   20.2591   26.7329 O   0  5  0  0  0  0  0  0  0  0  0  0
   19.4270   20.0567   27.7036 O   0  0  0  0  0  0  0  0  0  0  0  0
   20.1764   18.2219   26.4287 C   0  0  0  0  0  0  0  0  0  0  0  0
   19.9181   17.5602   27.2637 H   0  0  0  0  0  0  0  0  0  0  0  0
   21.1544   17.8898   26.0629 H   0  0  0  0  0  0  0  0  0  0  0  0
   19.0990   18.0897   25.3175 C   0  0  0  0  0  0  0  0  0  0  0  0
   19.0262   17.0381   25.0092 H   0  0  0  0  0  0  0  0  0  0  0  0
   18.1213   18.3530   25.7443 H   0  0  0  0  0  0  0  0  0  0  0  0
   19.3488   18.9710   24.0686 C   0  0  0  0  0  0  0  0  0  0  0  0
   19.3874   20.0288   24.3627 H   0  0  0  0  0  0  0  0  0  0  0  0
   18.4827   18.8664   23.4031 H   0  0  0  0  0  0  0  0  0  0  0  0
   20.6404   18.5985   23.2998 C   0  0  0  0  0  0  0  0  0  0  0  0
   21.5054   18.7253   23.9636 H   0  0  0  0  0  0  0  0  0  0  0  0
   20.6138   17.5370   23.0187 H   0  0  0  0  0  0  0  0  0  0  0  0
   20.8788   19.4635   22.0390 C   0  0  0  0  0  0  0  0  0  0  0  0
   21.8812   19.2390   21.6495 H   0  0  0  0  0  0  0  0  0  0  0  0
   20.8857   20.5260   22.3182 H   0  0  0  0  0  0  0  0  0  0  0  0
   19.8426   19.2242   20.9174 C   0  0  0  0  0  0  0  0  0  0  0  0
   19.7959   18.1528   20.6784 H   0  0  0  0  0  0  0  0  0  0  0  0
   18.8415   19.5211   21.2558 H   0  0  0  0  0  0  0  0  0  0  0  0
   20.1955   20.0178   19.6431 C   0  0  0  0  0  0  0  0  0  0  0  0
   20.2226   21.0961   19.8475 H   0  0  0  0  0  0  0  0  0  0  0  0
   21.1766   19.7180   19.2520 H   0  0  0  0  0  0  0  0  0  0  0  0
   19.4493   19.8402   18.8578 H   0  0  0  0  0  0  0  0  0  0  0  0
  1  2  1  0  0  0  0
  1  3  2  0  0  0  0
  1  4  1  0  0  0  0
  4  5  1  0  0  0  0
  4  6  1  0  0  0  0
  4  7  1  0  0  0  0
  7  8  1  0  0  0  0
  7  9  1  0  0  0  0
  7 10  1  0  0  0  0
 10 11  1  0  0  0  0
 10 12  1  0  0  0  0
 10 13  1  0  0  0  0
 13 14  1  0  0  0  0
 13 15  1  0  0  0  0
 13 16  1  0  0  0  0
 16 17  1  0  0  0  0
 16 18  1  0  0  0  0
 16 19  1  0  0  0  0
 19 20  1  0  0  0  0
 19 21  1  0  0  0  0
 19 22  1  0  0  0  0
 22 23  1  0  0  0  0
 22 24  1  0  0  0  0
 22 25  1  0  0  0  0
M  END
> <VM2 Rank>
65

> <Conf_Id>
247

> <Probability>
0.07

> <Sum Probability>
98.42

> <Delta G>
3.483

> <G>
-4.479

> <E>
-29.376

> <-TS>
24.897

> <U+W>
-49.943

> <U>
10.274

> <W>
-60.217

> <W(PB)>
-62.638

> <W(SA)>
2.421

> <Valence>
8.912

> <Coulomb>
0.552

> <VdW>
0.809

> <VdW6>
-10.135

> <VdW12>
10.945

> <Bond>
0.229

> <Angle>
3.100

> <Pdih>
5.582

> <Idih>
0.001

> <Tether>
0.000

$$$$
VeraChem MOL file


 25 24  0  0  0  0  0  0  0  0999 V2000     
   20.3623   19.8169   26.7408 C   0  0  0  0  0  0  0  0  0  0  0  0
   21.3893   20.4534   26.6102 O   0  5  0  0  0  0  0  0  0  0  0  0
   19.3150   20.3003   27.1238 O   0  0  0  0  0  0  0  0  0  0  0  0
   20.3978   18.3233   26.4292 C   0  0  0  0  0  0  0  0  0  0  0  0
   19.5468   17.8416   26.9257 H   0  0  0  0  0  0  0  0  0  0  0  0
   21.3059   17.9137   26.8870 H   0  0  0  0  0  0  0  0  0  0  0  0
   20.3896   17.9975   24.9132 C   0  0  0  0  0  0  0  0  0  0  0  0
   21.2359   18.5090   24.4355 H   0  0  0  0  0  0  0  0  0  0  0  0
   20.5509   16.9197   24.7773 H   0  0  0  0  0  0  0  0  0  0  0  0
   19.0643   18.4064   24.2272 C   0  0  0  0  0  0  0  0  0  0  0  0
   18.9195   19.4916   24.3105 H   0  0  0  0  0  0  0  0  0  0  0  0
   18.2258   17.9479   24.7688 H   0  0  0  0  0  0  0  0  0  0  0  0
   18.9797   17.9767   22.7409 C   0  0  0  0  0  0  0  0  0  0  0  0
   19.0089   16.8801   22.6857 H   0  0  0  0  0  0  0  0  0  0  0  0
   17.9992   18.2736   22.3444 H   0  0  0  0  0  0  0  0  0  0  0  0
   20.0862   18.5504   21.8200 C   0  0  0  0  0  0  0  0  0  0  0  0
   19.9199   18.1706   20.8027 H   0  0  0  0  0  0  0  0  0  0  0  0
   21.0677   18.1681   22.1295 H   0  0  0  0  0  0  0  0  0  0  0  0
   20.1175   20.0949   21.7802 C   0  0  0  0  0  0  0  0  0  0  0  0
   19.1218   20.4793   21.5196 H   0  0  0  0  0  0  0  0  0  0  0  0
   20.3652   20.4919   22.7739 H   0  0  0  0  0  0  0  0  0  0  0  0
   21.1513   20.6142   20.7607 C   0  0  0  0  0  0  0  0  0  0  0  0
   20.9134   20.2660   19.7470 H   0  0  0  0  0  0  0  0  0  0  0  0
   21.1640   21.7118   20.7477 H   0  0  0  0  0  0  0  0  0  0  0  0
   22.1612   20.2666   21.0148 H   0  0  0  0  0  0  0  0  0  0  0  0
  1  2  1  0  0  0  0
  1  3  2  0  0  0  0
  1  4  1  0  0  0  0
  4  5  1  0  0  0  0
  4  6  1  0  0  0  0
  4  7  1  0  0  0  0
  7  8  1  0  0  0  0
  7  9  1  0  0  0  0
  7 10  1  0  0  0  0
 10 11  1  0  0  0  0
 10 12  1  0  0  0  0
 10 13  1  0  0  0  0
 13 14  1  0  0  0  0
 13 15  1  0  0  0  0
 13 16  1  0  0  0  0
 16 17  1  0  0  0  0
 16 18  1  0  0  0  0
 16 19  1  0  0  0  0
 19 20  1  0  0  0  0
 19 21  1  0  0  0  0
 19 22  1  0  0  0  0
 22 23  1  0  0  0  0
 22 24  1  0  0  0  0
 22 25  1  0  0  0  0
M  END
> <VM2 Rank>
66

> <Conf_Id>
1062

> <Probability>
0.07

> <Sum Probability>
98.49

> <Delta G>
3.507

> <G>
-4.455

> <E>
-29.615

> <-TS>
25.160

> <U+W>
-50.183

> <U>
10.374

> <W>
-60.557

> <W(PB)>
-62.972

> <W(SA)>
2.415

> <Valence>
8.732

> <Coulomb>
0.992

> <VdW>
0.650

> <VdW6>
-10.415

> <VdW12>
11.064

> <Bond>
0.214

> <Angle>
3.066

> <Pdih>
5.452

> <Idih>
0.001

> <Tether>
0.000

$$$$
VeraChem MOL file


 25 24  0  0  0  0  0  0  0  0999 V2000     
   20.4771   19.5592   26.8962 C   0  0  0  0  0  0  0  0  0  0  0  0
   21.1930   20.4558   26.4956 O   0  5  0  0  0  0  0  0  0  0  0  0
   19.7475   19.6623   27.8629 O   0  0  0  0  0  0  0  0  0  0  0  0
   20.5152   18.2207   26.1640 C   0  0  0  0  0  0  0  0  0  0  0  0
   20.6711   17.4412   26.9188 H   0  0  0  0  0  0  0  0  0  0  0  0
   21.3962   18.2017   25.5125 H   0  0  0  0  0  0  0  0  0  0  0  0
   19.2276   17.9026   25.3556 C   0  0  0  0  0  0  0  0  0  0  0  0
   19.3171   16.9000   24.9161 H   0  0  0  0  0  0  0  0  0  0  0  0
   18.3772   17.8592   26.0500 H   0  0  0  0  0  0  0  0  0  0  0  0
   18.9053   18.9229   24.2362 C   0  0  0  0  0  0  0  0  0  0  0  0
   18.7641   19.9208   24.6736 H   0  0  0  0  0  0  0  0  0  0  0  0
   17.9449   18.6466   23.7799 H   0  0  0  0  0  0  0  0  0  0  0  0
   19.9866   18.9884   23.1330 C   0  0  0  0  0  0  0  0  0  0  0  0
   20.9300   19.3549   23.5587 H   0  0  0  0  0  0  0  0  0  0  0  0
   20.1743   17.9767   22.7509 H   0  0  0  0  0  0  0  0  0  0  0  0
   19.5609   19.9189   21.9738 C   0  0  0  0  0  0  0  0  0  0  0  0
   19.3070   20.9058   22.3843 H   0  0  0  0  0  0  0  0  0  0  0  0
   18.6462   19.5319   21.5044 H   0  0  0  0  0  0  0  0  0  0  0  0
   20.6567   20.1016   20.8978 C   0  0  0  0  0  0  0  0  0  0  0  0
   20.3215   20.8618   20.1789 H   0  0  0  0  0  0  0  0  0  0  0  0
   21.5708   20.4959   21.3629 H   0  0  0  0  0  0  0  0  0  0  0  0
   20.9832   18.8017   20.1309 C   0  0  0  0  0  0  0  0  0  0  0  0
   20.0780   18.3724   19.6820 H   0  0  0  0  0  0  0  0  0  0  0  0
   21.6988   19.0021   19.3231 H   0  0  0  0  0  0  0  0  0  0  0  0
   21.4307   18.0486   20.7915 H   0  0  0  0  0  0  0  0  0  0  0  0
  1  2  1  0  0  0  0
  1  3  2  0  0  0  0
  1  4  1  0  0  0  0
  4  5  1  0  0  0  0
  4  6  1  0  0  0  0
  4  7  1  0  0  0  0
  7  8  1  0  0  0  0
  7  9  1  0  0  0  0
  7 10  1  0  0  0  0
 10 11  1  0  0  0  0
 10 12  1  0  0  0  0
 10 13  1  0  0  0  0
 13 14  1  0  0  0  0
 13 15  1  0  0  0  0
 13 16  1  0  0  0  0
 16 17  1  0  0  0  0
 16 18  1  0  0  0  0
 16 19  1  0  0  0  0
 19 20  1  0  0  0  0
 19 21  1  0  0  0  0
 19 22  1  0  0  0  0
 22 23  1  0  0  0  0
 22 24  1  0  0  0  0
 22 25  1  0  0  0  0
M  END
> <VM2 Rank>
67

> <Conf_Id>
958

> <Probability>
0.07

> <Sum Probability>
98.56

> <Delta G>
3.523

> <G>
-4.439

> <E>
-29.411

> <-TS>
24.972

> <U+W>
-49.979

> <U>
10.315

> <W>
-60.293

> <W(PB)>
-62.744

> <W(SA)>
2.451

> <Valence>
8.797

> <Coulomb>
0.776

> <VdW>
0.742

> <VdW6>
-10.191

> <VdW12>
10.932

> <Bond>
0.216

> <Angle>
2.999

> <Pdih>
5.581

> <Idih>
0.001

> <Tether>
0.000

$$$$
VeraChem MOL file


 25 24  0  0  0  0  0  0  0  0999 V2000     
   20.5566   19.3013   26.8956 C   0  0  0  0  0  0  0  0  0  0  0  0
   21.3812   20.1733   26.7042 O   0  5  0  0  0  0  0  0  0  0  0  0
   19.9260   19.1875   27.9286 O   0  0  0  0  0  0  0  0  0  0  0  0
   20.3175   18.2755   25.7913 C   0  0  0  0  0  0  0  0  0  0  0  0
   20.3892   17.2816   26.2480 H   0  0  0  0  0  0  0  0  0  0  0  0
   21.1359   18.3433   25.0654 H   0  0  0  0  0  0  0  0  0  0  0  0
   18.9437   18.4173   25.0809 C   0  0  0  0  0  0  0  0  0  0  0  0
   18.8258   17.6019   24.3556 H   0  0  0  0  0  0  0  0  0  0  0  0
   18.1470   18.2760   25.8242 H   0  0  0  0  0  0  0  0  0  0  0  0
   18.7256   19.7801   24.3740 C   0  0  0  0  0  0  0  0  0  0  0  0
   18.7080   20.5765   25.1307 H   0  0  0  0  0  0  0  0  0  0  0  0
   17.7293   19.7820   23.9115 H   0  0  0  0  0  0  0  0  0  0  0  0
   19.7790   20.1437   23.2977 C   0  0  0  0  0  0  0  0  0  0  0  0
   19.5249   21.1296   22.8855 H   0  0  0  0  0  0  0  0  0  0  0  0
   20.7665   20.2564   23.7648 H   0  0  0  0  0  0  0  0  0  0  0  0
   19.8593   19.1209   22.1409 C   0  0  0  0  0  0  0  0  0  0  0  0
   18.8605   18.9790   21.7063 H   0  0  0  0  0  0  0  0  0  0  0  0
   20.1835   18.1457   22.5269 H   0  0  0  0  0  0  0  0  0  0  0  0
   20.8403   19.5792   21.0414 C   0  0  0  0  0  0  0  0  0  0  0  0
   20.5212   20.5517   20.6416 H   0  0  0  0  0  0  0  0  0  0  0  0
   21.8396   19.7244   21.4747 H   0  0  0  0  0  0  0  0  0  0  0  0
   20.9239   18.5553   19.8915 C   0  0  0  0  0  0  0  0  0  0  0  0
   19.9427   18.4136   19.4198 H   0  0  0  0  0  0  0  0  0  0  0  0
   21.6252   18.8971   19.1192 H   0  0  0  0  0  0  0  0  0  0  0  0
   21.2720   17.5807   20.2581 H   0  0  0  0  0  0  0  0  0  0  0  0
  1  2  1  0  0  0  0
  1  3  2  0  0  0  0
  1  4  1  0  0  0  0
  4  5  1  0  0  0  0
  4  6  1  0  0  0  0
  4  7  1  0  0  0  0
  7  8  1  0  0  0  0
  7  9  1  0  0  0  0
  7 10  1  0  0  0  0
 10 11  1  0  0  0  0
 10 12  1  0  0  0  0
 10 13  1  0  0  0  0
 13 14  1  0  0  0  0
 13 15  1  0  0  0  0
 13 16  1  0  0  0  0
 16 17  1  0  0  0  0
 16 18  1  0  0  0  0
 16 19  1  0  0  0  0
 19 20  1  0  0  0  0
 19 21  1  0  0  0  0
 19 22  1  0  0  0  0
 22 23  1  0  0  0  0
 22 24  1  0  0  0  0
 22 25  1  0  0  0  0
M  END
> <VM2 Rank>
68

> <Conf_Id>
956

> <Probability>
0.07

> <Sum Probability>
98.62

> <Delta G>
3.530

> <G>
-4.433

> <E>
-29.684

> <-TS>
25.252

> <U+W>
-50.252

> <U>
9.772

> <W>
-60.024

> <W(PB)>
-62.442

> <W(SA)>
2.418

> <Valence>
8.741

> <Coulomb>
0.478

> <VdW>
0.552

> <VdW6>
-10.626

> <VdW12>
11.179

> <Bond>
0.227

> <Angle>
3.155

> <Pdih>
5.358

> <Idih>
0.001

> <Tether>
0.000

$$$$
VeraChem MOL file


 25 24  0  0  0  0  0  0  0  0999 V2000     
   19.9470   19.6079   26.9997 C   0  0  0  0  0  0  0  0  0  0  0  0
   20.7935   20.1440   27.6878 O   0  5  0  0  0  0  0  0  0  0  0  0
   18.8625   20.1017   26.7614 O   0  0  0  0  0  0  0  0  0  0  0  0
   20.2546   18.2268   26.4278 C   0  0  0  0  0  0  0  0  0  0  0  0
   19.3186   17.7725   26.0841 H   0  0  0  0  0  0  0  0  0  0  0  0
   20.6141   17.6047   27.2556 H   0  0  0  0  0  0  0  0  0  0  0  0
   21.3142   18.2313   25.2919 C   0  0  0  0  0  0  0  0  0  0  0  0
   22.2600   18.6174   25.6965 H   0  0  0  0  0  0  0  0  0  0  0  0
   21.5132   17.1970   24.9804 H   0  0  0  0  0  0  0  0  0  0  0  0
   20.9256   19.0718   24.0504 C   0  0  0  0  0  0  0  0  0  0  0  0
   21.7824   19.0772   23.3650 H   0  0  0  0  0  0  0  0  0  0  0  0
   20.7596   20.1165   24.3468 H   0  0  0  0  0  0  0  0  0  0  0  0
   19.6746   18.5368   23.3110 C   0  0  0  0  0  0  0  0  0  0  0  0
   19.8295   17.4870   23.0278 H   0  0  0  0  0  0  0  0  0  0  0  0
   18.8160   18.5536   23.9947 H   0  0  0  0  0  0  0  0  0  0  0  0
   19.2990   19.3627   22.0573 C   0  0  0  0  0  0  0  0  0  0  0  0
   19.1636   20.4161   22.3382 H   0  0  0  0  0  0  0  0  0  0  0  0
   18.3246   19.0120   21.6907 H   0  0  0  0  0  0  0  0  0  0  0  0
   20.3311   19.2554   20.9117 C   0  0  0  0  0  0  0  0  0  0  0  0
   21.2939   19.6777   21.2273 H   0  0  0  0  0  0  0  0  0  0  0  0
   20.5081   18.1982   20.6702 H   0  0  0  0  0  0  0  0  0  0  0  0
   19.8508   19.9957   19.6471 C   0  0  0  0  0  0  0  0  0  0  0  0
   19.6915   21.0622   19.8536 H   0  0  0  0  0  0  0  0  0  0  0  0
   20.5952   19.9134   18.8445 H   0  0  0  0  0  0  0  0  0  0  0  0
   18.9070   19.5730   19.2784 H   0  0  0  0  0  0  0  0  0  0  0  0
  1  2  1  0  0  0  0
  1  3  2  0  0  0  0
  1  4  1  0  0  0  0
  4  5  1  0  0  0  0
  4  6  1  0  0  0  0
  4  7  1  0  0  0  0
  7  8  1  0  0  0  0
  7  9  1  0  0  0  0
  7 10  1  0  0  0  0
 10 11  1  0  0  0  0
 10 12  1  0  0  0  0
 10 13  1  0  0  0  0
 13 14  1  0  0  0  0
 13 15  1  0  0  0  0
 13 16  1  0  0  0  0
 16 17  1  0  0  0  0
 16 18  1  0  0  0  0
 16 19  1  0  0  0  0
 19 20  1  0  0  0  0
 19 21  1  0  0  0  0
 19 22  1  0  0  0  0
 22 23  1  0  0  0  0
 22 24  1  0  0  0  0
 22 25  1  0  0  0  0
M  END
> <VM2 Rank>
69

> <Conf_Id>
408

> <Probability>
0.07

> <Sum Probability>
98.69

> <Delta G>
3.532

> <G>
-4.431

> <E>
-29.328

> <-TS>
24.897

> <U+W>
-49.895

> <U>
10.274

> <W>
-60.169

> <W(PB)>
-62.622

> <W(SA)>
2.453

> <Valence>
8.912

> <Coulomb>
0.552

> <VdW>
0.809

> <VdW6>
-10.135

> <VdW12>
10.945

> <Bond>
0.229

> <Angle>
3.100

> <Pdih>
5.582

> <Idih>
0.001

> <Tether>
0.000

$$$$
VeraChem MOL file


 25 24  0  0  0  0  0  0  0  0999 V2000     
   19.7023   19.5864   26.7632 C   0  0  0  0  0  0  0  0  0  0  0  0
   20.3528   19.9160   27.7356 O   0  5  0  0  0  0  0  0  0  0  0  0
   18.8540   20.2905   26.2516 O   0  0  0  0  0  0  0  0  0  0  0  0
   19.9457   18.2008   26.1718 C   0  0  0  0  0  0  0  0  0  0  0  0
   19.1188   17.9574   25.4950 H   0  0  0  0  0  0  0  0  0  0  0  0
   19.8925   17.4811   26.9969 H   0  0  0  0  0  0  0  0  0  0  0  0
   21.3112   18.0507   25.4468 C   0  0  0  0  0  0  0  0  0  0  0  0
   22.1166   18.2311   26.1721 H   0  0  0  0  0  0  0  0  0  0  0  0
   21.4278   17.0118   25.1101 H   0  0  0  0  0  0  0  0  0  0  0  0
   21.5050   19.0021   24.2404 C   0  0  0  0  0  0  0  0  0  0  0  0
   22.5243   18.8681   23.8533 H   0  0  0  0  0  0  0  0  0  0  0  0
   21.4366   20.0461   24.5761 H   0  0  0  0  0  0  0  0  0  0  0  0
   20.4941   18.7591   23.0960 C   0  0  0  0  0  0  0  0  0  0  0  0
   20.5161   17.7005   22.8039 H   0  0  0  0  0  0  0  0  0  0  0  0
   19.4799   18.9761   23.4538 H   0  0  0  0  0  0  0  0  0  0  0  0
   20.8045   19.6416   21.8647 C   0  0  0  0  0  0  0  0  0  0  0  0
   21.8444   19.4706   21.5544 H   0  0  0  0  0  0  0  0  0  0  0  0
   20.7330   20.7019   22.1432 H   0  0  0  0  0  0  0  0  0  0  0  0
   19.8802   19.3601   20.6571 C   0  0  0  0  0  0  0  0  0  0  0  0
   20.2406   19.9383   19.7952 H   0  0  0  0  0  0  0  0  0  0  0  0
   19.9534   18.3013   20.3728 H   0  0  0  0  0  0  0  0  0  0  0  0
   18.4032   19.7267   20.9188 C   0  0  0  0  0  0  0  0  0  0  0  0
   18.3085   20.7737   21.2351 H   0  0  0  0  0  0  0  0  0  0  0  0
   17.8070   19.5937   20.0069 H   0  0  0  0  0  0  0  0  0  0  0  0
   17.9645   19.0910   21.6980 H   0  0  0  0  0  0  0  0  0  0  0  0
  1  2  1  0  0  0  0
  1  3  2  0  0  0  0
  1  4  1  0  0  0  0
  4  5  1  0  0  0  0
  4  6  1  0  0  0  0
  4  7  1  0  0  0  0
  7  8  1  0  0  0  0
  7  9  1  0  0  0  0
  7 10  1  0  0  0  0
 10 11  1  0  0  0  0
 10 12  1  0  0  0  0
 10 13  1  0  0  0  0
 13 14  1  0  0  0  0
 13 15  1  0  0  0  0
 13 16  1  0  0  0  0
 16 17  1  0  0  0  0
 16 18  1  0  0  0  0
 16 19  1  0  0  0  0
 19 20  1  0  0  0  0
 19 21  1  0  0  0  0
 19 22  1  0  0  0  0
 22 23  1  0  0  0  0
 22 24  1  0  0  0  0
 22 25  1  0  0  0  0
M  END
> <VM2 Rank>
70

> <Conf_Id>
117

> <Probability>
0.07

> <Sum Probability>
98.76

> <Delta G>
3.534

> <G>
-4.428

> <E>
-29.382

> <-TS>
24.954

> <U+W>
-49.950

> <U>
10.718

> <W>
-60.667

> <W(PB)>
-63.101

> <W(SA)>
2.433

> <Valence>
8.800

> <Coulomb>
1.201

> <VdW>
0.718

> <VdW6>
-10.234

> <VdW12>
10.952

> <Bond>
0.218

> <Angle>
3.002

> <Pdih>
5.578

> <Idih>
0.001

> <Tether>
0.000

$$$$
VeraChem MOL file


 25 24  0  0  0  0  0  0  0  0999 V2000     
   20.5588   19.6410   26.7535 C   0  0  0  0  0  0  0  0  0  0  0  0
   21.2986   20.4466   26.2238 O   0  5  0  0  0  0  0  0  0  0  0  0
   19.8942   19.8864   27.7412 O   0  0  0  0  0  0  0  0  0  0  0  0
   20.4801   18.2349   26.1655 C   0  0  0  0  0  0  0  0  0  0  0  0
   20.6433   17.5288   26.9880 H   0  0  0  0  0  0  0  0  0  0  0  0
   21.3153   18.0979   25.4695 H   0  0  0  0  0  0  0  0  0  0  0  0
   19.1284   17.9115   25.4719 C   0  0  0  0  0  0  0  0  0  0  0  0
   19.1370   16.8657   25.1364 H   0  0  0  0  0  0  0  0  0  0  0  0
   18.3234   17.9891   26.2158 H   0  0  0  0  0  0  0  0  0  0  0  0
   18.7875   18.8289   24.2718 C   0  0  0  0  0  0  0  0  0  0  0  0
   18.7307   19.8736   24.6075 H   0  0  0  0  0  0  0  0  0  0  0  0
   17.7848   18.5661   23.9082 H   0  0  0  0  0  0  0  0  0  0  0  0
   19.7943   18.7145   23.1039 C   0  0  0  0  0  0  0  0  0  0  0  0
   20.7808   19.0588   23.4385 H   0  0  0  0  0  0  0  0  0  0  0  0
   19.9000   17.6613   22.8108 H   0  0  0  0  0  0  0  0  0  0  0  0
   19.3460   19.5488   21.8815 C   0  0  0  0  0  0  0  0  0  0  0  0
   19.2890   20.6100   22.1600 H   0  0  0  0  0  0  0  0  0  0  0  0
   18.3294   19.2469   21.5952 H   0  0  0  0  0  0  0  0  0  0  0  0
   20.2704   19.3851   20.6524 C   0  0  0  0  0  0  0  0  0  0  0  0
   20.3253   18.3252   20.3681 H   0  0  0  0  0  0  0  0  0  0  0  0
   19.8197   19.9119   19.8000 H   0  0  0  0  0  0  0  0  0  0  0  0
   21.6947   19.9362   20.8804 C   0  0  0  0  0  0  0  0  0  0  0  0
   22.2816   19.8787   19.9546 H   0  0  0  0  0  0  0  0  0  0  0  0
   21.6634   20.9871   21.1963 H   0  0  0  0  0  0  0  0  0  0  0  0
   22.2284   19.3621   21.6481 H   0  0  0  0  0  0  0  0  0  0  0  0
  1  2  1  0  0  0  0
  1  3  2  0  0  0  0
  1  4  1  0  0  0  0
  4  5  1  0  0  0  0
  4  6  1  0  0  0  0
  4  7  1  0  0  0  0
  7  8  1  0  0  0  0
  7  9  1  0  0  0  0
  7 10  1  0  0  0  0
 10 11  1  0  0  0  0
 10 12  1  0  0  0  0
 10 13  1  0  0  0  0
 13 14  1  0  0  0  0
 13 15  1  0  0  0  0
 13 16  1  0  0  0  0
 16 17  1  0  0  0  0
 16 18  1  0  0  0  0
 16 19  1  0  0  0  0
 19 20  1  0  0  0  0
 19 21  1  0  0  0  0
 19 22  1  0  0  0  0
 22 23  1  0  0  0  0
 22 24  1  0  0  0  0
 22 25  1  0  0  0  0
M  END
> <VM2 Rank>
71

> <Conf_Id>
670

> <Probability>
0.07

> <Sum Probability>
98.82

> <Delta G>
3.543

> <G>
-4.420

> <E>
-29.375

> <-TS>
24.955

> <U+W>
-49.942

> <U>
10.717

> <W>
-60.659

> <W(PB)>
-63.085

> <W(SA)>
2.426

> <Valence>
8.799

> <Coulomb>
1.200

> <VdW>
0.718

> <VdW6>
-10.234

> <VdW12>
10.951

> <Bond>
0.218

> <Angle>
3.002

> <Pdih>
5.579

> <Idih>
0.001

> <Tether>
0.000

$$$$
VeraChem MOL file


 25 24  0  0  0  0  0  0  0  0999 V2000     
   20.2954   19.8517   26.6956 C   0  0  0  0  0  0  0  0  0  0  0  0
   21.1052   20.6098   26.1991 O   0  5  0  0  0  0  0  0  0  0  0  0
   19.3846   20.2163   27.4132 O   0  0  0  0  0  0  0  0  0  0  0  0
   20.4458   18.3565   26.4290 C   0  0  0  0  0  0  0  0  0  0  0  0
   20.4260   17.8488   27.4003 H   0  0  0  0  0  0  0  0  0  0  0  0
   21.4393   18.1741   26.0038 H   0  0  0  0  0  0  0  0  0  0  0  0
   19.3407   17.7602   25.5147 C   0  0  0  0  0  0  0  0  0  0  0  0
   19.4922   16.6760   25.4267 H   0  0  0  0  0  0  0  0  0  0  0  0
   18.3664   17.8959   26.0042 H   0  0  0  0  0  0  0  0  0  0  0  0
   19.2786   18.3837   24.0987 C   0  0  0  0  0  0  0  0  0  0  0  0
   19.0678   19.4578   24.1846 H   0  0  0  0  0  0  0  0  0  0  0  0
   18.4294   17.9421   23.5598 H   0  0  0  0  0  0  0  0  0  0  0  0
   20.5707   18.1633   23.2751 C   0  0  0  0  0  0  0  0  0  0  0  0
   21.4038   18.7146   23.7314 H   0  0  0  0  0  0  0  0  0  0  0  0
   20.8414   17.0993   23.3099 H   0  0  0  0  0  0  0  0  0  0  0  0
   20.4340   18.5882   21.7936 C   0  0  0  0  0  0  0  0  0  0  0  0
   19.6115   18.0311   21.3247 H   0  0  0  0  0  0  0  0  0  0  0  0
   21.3499   18.2966   21.2617 H   0  0  0  0  0  0  0  0  0  0  0  0
   20.2074   20.1058   21.6091 C   0  0  0  0  0  0  0  0  0  0  0  0
   19.2559   20.4042   22.0685 H   0  0  0  0  0  0  0  0  0  0  0  0
   21.0006   20.6640   22.1255 H   0  0  0  0  0  0  0  0  0  0  0  0
   20.1905   20.4986   20.1179 C   0  0  0  0  0  0  0  0  0  0  0  0
   20.0254   21.5779   20.0042 H   0  0  0  0  0  0  0  0  0  0  0  0
   21.1442   20.2491   19.6347 H   0  0  0  0  0  0  0  0  0  0  0  0
   19.3875   19.9746   19.5832 H   0  0  0  0  0  0  0  0  0  0  0  0
  1  2  1  0  0  0  0
  1  3  2  0  0  0  0
  1  4  1  0  0  0  0
  4  5  1  0  0  0  0
  4  6  1  0  0  0  0
  4  7  1  0  0  0  0
  7  8  1  0  0  0  0
  7  9  1  0  0  0  0
  7 10  1  0  0  0  0
 10 11  1  0  0  0  0
 10 12  1  0  0  0  0
 10 13  1  0  0  0  0
 13 14  1  0  0  0  0
 13 15  1  0  0  0  0
 13 16  1  0  0  0  0
 16 17  1  0  0  0  0
 16 18  1  0  0  0  0
 16 19  1  0  0  0  0
 19 20  1  0  0  0  0
 19 21  1  0  0  0  0
 19 22  1  0  0  0  0
 22 23  1  0  0  0  0
 22 24  1  0  0  0  0
 22 25  1  0  0  0  0
M  END
> <VM2 Rank>
72

> <Conf_Id>
563

> <Probability>
0.05

> <Sum Probability>
98.88

> <Delta G>
3.683

> <G>
-4.279

> <E>
-29.279

> <-TS>
24.999

> <U+W>
-49.846

> <U>
10.631

> <W>
-60.478

> <W(PB)>
-62.904

> <W(SA)>
2.426

> <Valence>
8.788

> <Coulomb>
1.197

> <VdW>
0.647

> <VdW6>
-10.379

> <VdW12>
11.026

> <Bond>
0.219

> <Angle>
2.957

> <Pdih>
5.611

> <Idih>
0.001

> <Tether>
0.000

$$$$
VeraChem MOL file


 25 24  0  0  0  0  0  0  0  0999 V2000     
   19.9006   19.8369   26.6520 C   0  0  0  0  0  0  0  0  0  0  0  0
   20.8831   20.5047   26.9097 O   0  5  0  0  0  0  0  0  0  0  0  0
   18.8007   20.3127   26.4497 O   0  0  0  0  0  0  0  0  0  0  0  0
   20.0389   18.3157   26.6472 C   0  0  0  0  0  0  0  0  0  0  0  0
   19.0570   17.8691   26.4491 H   0  0  0  0  0  0  0  0  0  0  0  0
   20.3139   18.0282   27.6686 H   0  0  0  0  0  0  0  0  0  0  0  0
   21.0975   17.7489   25.6597 C   0  0  0  0  0  0  0  0  0  0  0  0
   22.0206   18.3420   25.7192 H   0  0  0  0  0  0  0  0  0  0  0  0
   21.3663   16.7379   25.9944 H   0  0  0  0  0  0  0  0  0  0  0  0
   20.6249   17.6484   24.1881 C   0  0  0  0  0  0  0  0  0  0  0  0
   19.7087   17.0446   24.1343 H   0  0  0  0  0  0  0  0  0  0  0  0
   21.3893   17.1003   23.6202 H   0  0  0  0  0  0  0  0  0  0  0  0
   20.3864   19.0156   23.5079 C   0  0  0  0  0  0  0  0  0  0  0  0
   19.5359   19.5233   23.9800 H   0  0  0  0  0  0  0  0  0  0  0  0
   21.2658   19.6580   23.6528 H   0  0  0  0  0  0  0  0  0  0  0  0
   20.1016   18.8606   21.9982 C   0  0  0  0  0  0  0  0  0  0  0  0
   19.2250   18.2139   21.8552 H   0  0  0  0  0  0  0  0  0  0  0  0
   20.9509   18.3605   21.5129 H   0  0  0  0  0  0  0  0  0  0  0  0
   19.8520   20.2243   21.3204 C   0  0  0  0  0  0  0  0  0  0  0  0
   19.0018   20.7269   21.8022 H   0  0  0  0  0  0  0  0  0  0  0  0
   20.7275   20.8733   21.4609 H   0  0  0  0  0  0  0  0  0  0  0  0
   19.5673   20.0664   19.8132 C   0  0  0  0  0  0  0  0  0  0  0  0
   18.6768   19.4467   19.6445 H   0  0  0  0  0  0  0  0  0  0  0  0
   19.3922   21.0451   19.3479 H   0  0  0  0  0  0  0  0  0  0  0  0
   20.4157   19.5943   19.3006 H   0  0  0  0  0  0  0  0  0  0  0  0
  1  2  1  0  0  0  0
  1  3  2  0  0  0  0
  1  4  1  0  0  0  0
  4  5  1  0  0  0  0
  4  6  1  0  0  0  0
  4  7  1  0  0  0  0
  7  8  1  0  0  0  0
  7  9  1  0  0  0  0
  7 10  1  0  0  0  0
 10 11  1  0  0  0  0
 10 12  1  0  0  0  0
 10 13  1  0  0  0  0
 13 14  1  0  0  0  0
 13 15  1  0  0  0  0
 13 16  1  0  0  0  0
 16 17  1  0  0  0  0
 16 18  1  0  0  0  0
 16 19  1  0  0  0  0
 19 20  1  0  0  0  0
 19 21  1  0  0  0  0
 19 22  1  0  0  0  0
 22 23  1  0  0  0  0
 22 24  1  0  0  0  0
 22 25  1  0  0  0  0
M  END
> <VM2 Rank>
73

> <Conf_Id>
811

> <Probability>
0.05

> <Sum Probability>
98.93

> <Delta G>
3.690

> <G>
-4.272

> <E>
-29.298

> <-TS>
25.026

> <U+W>
-49.866

> <U>
10.903

> <W>
-60.768

> <W(PB)>
-63.223

> <W(SA)>
2.454

> <Valence>
9.445

> <Coulomb>
0.779

> <VdW>
0.679

> <VdW6>
-10.008

> <VdW12>
10.687

> <Bond>
0.201

> <Angle>
3.198

> <Pdih>
6.039

> <Idih>
0.006

> <Tether>
0.000

$$$$
VeraChem MOL file


 25 24  0  0  0  0  0  0  0  0999 V2000     
   20.6870   19.3091   26.7099 C   0  0  0  0  0  0  0  0  0  0  0  0
   21.6741   19.8207   26.2193 O   0  5  0  0  0  0  0  0  0  0  0  0
   20.7271   18.3554   27.4625 O   0  0  0  0  0  0  0  0  0  0  0  0
   19.3230   19.9134   26.3879 C   0  0  0  0  0  0  0  0  0  0  0  0
   19.4745   20.8984   25.9318 H   0  0  0  0  0  0  0  0  0  0  0  0
   18.8110   20.0883   27.3412 H   0  0  0  0  0  0  0  0  0  0  0  0
   18.4312   19.0212   25.4815 C   0  0  0  0  0  0  0  0  0  0  0  0
   18.2399   18.0714   25.9997 H   0  0  0  0  0  0  0  0  0  0  0  0
   17.4529   19.5034   25.3522 H   0  0  0  0  0  0  0  0  0  0  0  0
   19.0382   18.7167   24.0900 C   0  0  0  0  0  0  0  0  0  0  0  0
   18.3648   18.0315   23.5577 H   0  0  0  0  0  0  0  0  0  0  0  0
   19.9884   18.1816   24.2184 H   0  0  0  0  0  0  0  0  0  0  0  0
   19.2576   19.9830   23.2269 C   0  0  0  0  0  0  0  0  0  0  0  0
   18.3329   20.5757   23.2178 H   0  0  0  0  0  0  0  0  0  0  0  0
   20.0320   20.6156   23.6810 H   0  0  0  0  0  0  0  0  0  0  0  0
   19.6548   19.6678   21.7651 C   0  0  0  0  0  0  0  0  0  0  0  0
   19.6804   20.6098   21.2004 H   0  0  0  0  0  0  0  0  0  0  0  0
   18.8787   19.0464   21.2979 H   0  0  0  0  0  0  0  0  0  0  0  0
   21.0276   18.9693   21.6393 C   0  0  0  0  0  0  0  0  0  0  0  0
   21.7944   19.5644   22.1546 H   0  0  0  0  0  0  0  0  0  0  0  0
   20.9992   17.9889   22.1328 H   0  0  0  0  0  0  0  0  0  0  0  0
   21.4323   18.7775   20.1637 C   0  0  0  0  0  0  0  0  0  0  0  0
   20.6954   18.1617   19.6316 H   0  0  0  0  0  0  0  0  0  0  0  0
   21.5084   19.7437   19.6480 H   0  0  0  0  0  0  0  0  0  0  0  0
   22.4070   18.2776   20.0919 H   0  0  0  0  0  0  0  0  0  0  0  0
  1  2  1  0  0  0  0
  1  3  2  0  0  0  0
  1  4  1  0  0  0  0
  4  5  1  0  0  0  0
  4  6  1  0  0  0  0
  4  7  1  0  0  0  0
  7  8  1  0  0  0  0
  7  9  1  0  0  0  0
  7 10  1  0  0  0  0
 10 11  1  0  0  0  0
 10 12  1  0  0  0  0
 10 13  1  0  0  0  0
 13 14  1  0  0  0  0
 13 15  1  0  0  0  0
 13 16  1  0  0  0  0
 16 17  1  0  0  0  0
 16 18  1  0  0  0  0
 16 19  1  0  0  0  0
 19 20  1  0  0  0  0
 19 21  1  0  0  0  0
 19 22  1  0  0  0  0
 22 23  1  0  0  0  0
 22 24  1  0  0  0  0
 22 25  1  0  0  0  0
M  END
> <VM2 Rank>
74

> <Conf_Id>
285

> <Probability>
0.05

> <Sum Probability>
98.98

> <Delta G>
3.691

> <G>
-4.271

> <E>
-29.270

> <-TS>
24.999

> <U+W>
-49.838

> <U>
10.633

> <W>
-60.470

> <W(PB)>
-62.867

> <W(SA)>
2.397

> <Valence>
8.788

> <Coulomb>
1.198

> <VdW>
0.647

> <VdW6>
-10.380

> <VdW12>
11.026

> <Bond>
0.219

> <Angle>
2.957

> <Pdih>
5.610

> <Idih>
0.001

> <Tether>
0.000

$$$$
VeraChem MOL file


 25 24  0  0  0  0  0  0  0  0999 V2000     
   20.6377   19.6690   26.6426 C   0  0  0  0  0  0  0  0  0  0  0  0
   20.0478   20.6950   26.9204 O   0  5  0  0  0  0  0  0  0  0  0  0
   21.8299   19.6227   26.4106 O   0  0  0  0  0  0  0  0  0  0  0  0
   19.8543   18.3577   26.6495 C   0  0  0  0  0  0  0  0  0  0  0  0
   19.5071   18.2118   27.6789 H   0  0  0  0  0  0  0  0  0  0  0  0
   20.5408   17.5311   26.4298 H   0  0  0  0  0  0  0  0  0  0  0  0
   18.6308   18.3108   25.6915 C   0  0  0  0  0  0  0  0  0  0  0  0
   17.9589   17.5140   26.0383 H   0  0  0  0  0  0  0  0  0  0  0  0
   18.0573   19.2448   25.7704 H   0  0  0  0  0  0  0  0  0  0  0  0
   18.9769   18.0238   24.2093 C   0  0  0  0  0  0  0  0  0  0  0  0
   18.0369   17.8641   23.6635 H   0  0  0  0  0  0  0  0  0  0  0  0
   19.5395   17.0831   24.1364 H   0  0  0  0  0  0  0  0  0  0  0  0
   19.7673   19.1566   23.5160 C   0  0  0  0  0  0  0  0  0  0  0  0
   19.2569   20.1157   23.6788 H   0  0  0  0  0  0  0  0  0  0  0  0
   20.7651   19.2431   23.9641 H   0  0  0  0  0  0  0  0  0  0  0  0
   19.9197   18.9020   22.0005 C   0  0  0  0  0  0  0  0  0  0  0  0
   18.9259   18.8220   21.5390 H   0  0  0  0  0  0  0  0  0  0  0  0
   20.4258   17.9402   21.8396 H   0  0  0  0  0  0  0  0  0  0  0  0
   20.7188   20.0267   21.3093 C   0  0  0  0  0  0  0  0  0  0  0  0
   20.2148   20.9902   21.4678 H   0  0  0  0  0  0  0  0  0  0  0  0
   21.7144   20.1086   21.7672 H   0  0  0  0  0  0  0  0  0  0  0  0
   20.8697   19.7697   19.7964 C   0  0  0  0  0  0  0  0  0  0  0  0
   19.8883   19.7148   19.3075 H   0  0  0  0  0  0  0  0  0  0  0  0
   21.4402   20.5786   19.3216 H   0  0  0  0  0  0  0  0  0  0  0  0
   21.3993   18.8264   19.6092 H   0  0  0  0  0  0  0  0  0  0  0  0
  1  2  1  0  0  0  0
  1  3  2  0  0  0  0
  1  4  1  0  0  0  0
  4  5  1  0  0  0  0
  4  6  1  0  0  0  0
  4  7  1  0  0  0  0
  7  8  1  0  0  0  0
  7  9  1  0  0  0  0
  7 10  1  0  0  0  0
 10 11  1  0  0  0  0
 10 12  1  0  0  0  0
 10 13  1  0  0  0  0
 13 14  1  0  0  0  0
 13 15  1  0  0  0  0
 13 16  1  0  0  0  0
 16 17  1  0  0  0  0
 16 18  1  0  0  0  0
 16 19  1  0  0  0  0
 19 20  1  0  0  0  0
 19 21  1  0  0  0  0
 19 22  1  0  0  0  0
 22 23  1  0  0  0  0
 22 24  1  0  0  0  0
 22 25  1  0  0  0  0
M  END
> <VM2 Rank>
75

> <Conf_Id>
81

> <Probability>
0.05

> <Sum Probability>
99.03

> <Delta G>
3.709

> <G>
-4.253

> <E>
-29.280

> <-TS>
25.026

> <U+W>
-49.847

> <U>
10.903

> <W>
-60.751

> <W(PB)>
-63.220

> <W(SA)>
2.469

> <Valence>
9.445

> <Coulomb>
0.779

> <VdW>
0.679

> <VdW6>
-10.008

> <VdW12>
10.687

> <Bond>
0.201

> <Angle>
3.198

> <Pdih>
6.039

> <Idih>
0.006

> <Tether>
0.000

$$$$
VeraChem MOL file


 25 24  0  0  0  0  0  0  0  0999 V2000     
   20.2719   19.9683   26.9781 C   0  0  0  0  0  0  0  0  0  0  0  0
   21.2025   19.8129   27.7441 O   0  5  0  0  0  0  0  0  0  0  0  0
   19.2317   20.5164   27.2853 O   0  0  0  0  0  0  0  0  0  0  0  0
   20.4080   19.4240   25.5607 C   0  0  0  0  0  0  0  0  0  0  0  0
   21.4654   19.4768   25.2754 H   0  0  0  0  0  0  0  0  0  0  0  0
   19.8517   20.0929   24.8946 H   0  0  0  0  0  0  0  0  0  0  0  0
   19.8870   17.9711   25.4234 C   0  0  0  0  0  0  0  0  0  0  0  0
   20.3633   17.3518   26.1962 H   0  0  0  0  0  0  0  0  0  0  0  0
   18.8092   17.9523   25.6359 H   0  0  0  0  0  0  0  0  0  0  0  0
   20.1551   17.3242   24.0412 C   0  0  0  0  0  0  0  0  0  0  0  0
   19.7855   16.2904   24.0827 H   0  0  0  0  0  0  0  0  0  0  0  0
   21.2365   17.2473   23.8638 H   0  0  0  0  0  0  0  0  0  0  0  0
   19.4644   18.0362   22.8505 C   0  0  0  0  0  0  0  0  0  0  0  0
   19.1404   17.2734   22.1293 H   0  0  0  0  0  0  0  0  0  0  0  0
   18.5506   18.5415   23.1920 H   0  0  0  0  0  0  0  0  0  0  0  0
   20.3888   19.0335   22.1127 C   0  0  0  0  0  0  0  0  0  0  0  0
   21.2672   18.4984   21.7268 H   0  0  0  0  0  0  0  0  0  0  0  0
   20.7647   19.7934   22.8078 H   0  0  0  0  0  0  0  0  0  0  0  0
   19.6596   19.7294   20.9442 C   0  0  0  0  0  0  0  0  0  0  0  0
   19.2907   18.9751   20.2354 H   0  0  0  0  0  0  0  0  0  0  0  0
   18.7801   20.2670   21.3249 H   0  0  0  0  0  0  0  0  0  0  0  0
   20.5840   20.7181   20.2056 C   0  0  0  0  0  0  0  0  0  0  0  0
   21.4578   20.2013   19.7876 H   0  0  0  0  0  0  0  0  0  0  0  0
   20.0496   21.2034   19.3787 H   0  0  0  0  0  0  0  0  0  0  0  0
   20.9423   21.5029   20.8847 H   0  0  0  0  0  0  0  0  0  0  0  0
  1  2  1  0  0  0  0
  1  3  2  0  0  0  0
  1  4  1  0  0  0  0
  4  5  1  0  0  0  0
  4  6  1  0  0  0  0
  4  7  1  0  0  0  0
  7  8  1  0  0  0  0
  7  9  1  0  0  0  0
  7 10  1  0  0  0  0
 10 11  1  0  0  0  0
 10 12  1  0  0  0  0
 10 13  1  0  0  0  0
 13 14  1  0  0  0  0
 13 15  1  0  0  0  0
 13 16  1  0  0  0  0
 16 17  1  0  0  0  0
 16 18  1  0  0  0  0
 16 19  1  0  0  0  0
 19 20  1  0  0  0  0
 19 21  1  0  0  0  0
 19 22  1  0  0  0  0
 22 23  1  0  0  0  0
 22 24  1  0  0  0  0
 22 25  1  0  0  0  0
M  END
> <VM2 Rank>
76

> <Conf_Id>
934

> <Probability>
0.05

> <Sum Probability>
99.08

> <Delta G>
3.722

> <G>
-4.240

> <E>
-29.021

> <-TS>
24.781

> <U+W>
-49.589

> <U>
10.016

> <W>
-59.605

> <W(PB)>
-62.067

> <W(SA)>
2.462

> <Valence>
10.523

> <Coulomb>
-1.441

> <VdW>
0.934

> <VdW6>
-9.399

> <VdW12>
10.333

> <Bond>
0.199

> <Angle>
2.988

> <Pdih>
7.335

> <Idih>
0.001

> <Tether>
0.000

$$$$
VeraChem MOL file


 25 24  0  0  0  0  0  0  0  0999 V2000     
   20.3929   19.4813   27.1365 C   0  0  0  0  0  0  0  0  0  0  0  0
   21.4289   20.1161   27.1622 O   0  5  0  0  0  0  0  0  0  0  0  0
   20.0018   18.7940   28.0592 O   0  0  0  0  0  0  0  0  0  0  0  0
   19.5473   19.5336   25.8693 C   0  0  0  0  0  0  0  0  0  0  0  0
   19.6715   20.5282   25.4263 H   0  0  0  0  0  0  0  0  0  0  0  0
   18.4941   19.4342   26.1576 H   0  0  0  0  0  0  0  0  0  0  0  0
   19.9288   18.4312   24.8477 C   0  0  0  0  0  0  0  0  0  0  0  0
   20.9765   18.5586   24.5445 H   0  0  0  0  0  0  0  0  0  0  0  0
   19.8732   17.4537   25.3461 H   0  0  0  0  0  0  0  0  0  0  0  0
   19.0123   18.4018   23.5989 C   0  0  0  0  0  0  0  0  0  0  0  0
   17.9846   18.1812   23.9179 H   0  0  0  0  0  0  0  0  0  0  0  0
   19.3112   17.5618   22.9582 H   0  0  0  0  0  0  0  0  0  0  0  0
   19.0010   19.7059   22.7586 C   0  0  0  0  0  0  0  0  0  0  0  0
   18.3283   19.5676   21.9023 H   0  0  0  0  0  0  0  0  0  0  0  0
   18.5533   20.5145   23.3508 H   0  0  0  0  0  0  0  0  0  0  0  0
   20.3893   20.1729   22.2470 C   0  0  0  0  0  0  0  0  0  0  0  0
   21.0169   20.4501   23.1042 H   0  0  0  0  0  0  0  0  0  0  0  0
   20.2565   21.0952   21.6656 H   0  0  0  0  0  0  0  0  0  0  0  0
   21.1516   19.1414   21.3793 C   0  0  0  0  0  0  0  0  0  0  0  0
   22.1274   19.5661   21.1069 H   0  0  0  0  0  0  0  0  0  0  0  0
   21.3660   18.2386   21.9664 H   0  0  0  0  0  0  0  0  0  0  0  0
   20.3992   18.7558   20.0872 C   0  0  0  0  0  0  0  0  0  0  0  0
   20.1579   19.6464   19.4926 H   0  0  0  0  0  0  0  0  0  0  0  0
   21.0151   18.0913   19.4676 H   0  0  0  0  0  0  0  0  0  0  0  0
   19.4640   18.2282   20.3131 H   0  0  0  0  0  0  0  0  0  0  0  0
  1  2  1  0  0  0  0
  1  3  2  0  0  0  0
  1  4  1  0  0  0  0
  4  5  1  0  0  0  0
  4  6  1  0  0  0  0
  4  7  1  0  0  0  0
  7  8  1  0  0  0  0
  7  9  1  0  0  0  0
  7 10  1  0  0  0  0
 10 11  1  0  0  0  0
 10 12  1  0  0  0  0
 10 13  1  0  0  0  0
 13 14  1  0  0  0  0
 13 15  1  0  0  0  0
 13 16  1  0  0  0  0
 16 17  1  0  0  0  0
 16 18  1  0  0  0  0
 16 19  1  0  0  0  0
 19 20  1  0  0  0  0
 19 21  1  0  0  0  0
 19 22  1  0  0  0  0
 22 23  1  0  0  0  0
 22 24  1  0  0  0  0
 22 25  1  0  0  0  0
M  END
> <VM2 Rank>
77

> <Conf_Id>
1092

> <Probability>
0.05

> <Sum Probability>
99.13

> <Delta G>
3.736

> <G>
-4.226

> <E>
-29.677

> <-TS>
25.450

> <U+W>
-50.244

> <U>
9.324

> <W>
-59.568

> <W(PB)>
-61.965

> <W(SA)>
2.397

> <Valence>
9.360

> <Coulomb>
-0.854

> <VdW>
0.818

> <VdW6>
-11.207

> <VdW12>
12.025

> <Bond>
0.279

> <Angle>
3.545

> <Pdih>
5.535

> <Idih>
0.001

> <Tether>
0.000

$$$$
VeraChem MOL file


 25 24  0  0  0  0  0  0  0  0999 V2000     
   19.7543   18.8237   27.0174 C   0  0  0  0  0  0  0  0  0  0  0  0
   20.5055   18.2718   27.7970 O   0  5  0  0  0  0  0  0  0  0  0  0
   18.6634   19.2597   27.3282 O   0  0  0  0  0  0  0  0  0  0  0  0
   20.2161   18.9997   25.5753 C   0  0  0  0  0  0  0  0  0  0  0  0
   19.3296   18.9385   24.9342 H   0  0  0  0  0  0  0  0  0  0  0  0
   20.8678   18.1555   25.3207 H   0  0  0  0  0  0  0  0  0  0  0  0
   20.9583   20.3399   25.3423 C   0  0  0  0  0  0  0  0  0  0  0  0
   20.2656   21.1729   25.5257 H   0  0  0  0  0  0  0  0  0  0  0  0
   21.7573   20.4345   26.0907 H   0  0  0  0  0  0  0  0  0  0  0  0
   21.5853   20.4864   23.9330 C   0  0  0  0  0  0  0  0  0  0  0  0
   22.3529   19.7157   23.7793 H   0  0  0  0  0  0  0  0  0  0  0  0
   22.1177   21.4470   23.9063 H   0  0  0  0  0  0  0  0  0  0  0  0
   20.5642   20.4680   22.7672 C   0  0  0  0  0  0  0  0  0  0  0  0
   19.5902   20.8402   23.1132 H   0  0  0  0  0  0  0  0  0  0  0  0
   20.9041   21.1725   21.9958 H   0  0  0  0  0  0  0  0  0  0  0  0
   20.4077   19.0756   22.1113 C   0  0  0  0  0  0  0  0  0  0  0  0
   20.1036   18.3326   22.8579 H   0  0  0  0  0  0  0  0  0  0  0  0
   21.3796   18.7469   21.7186 H   0  0  0  0  0  0  0  0  0  0  0  0
   19.3742   19.0980   20.9657 C   0  0  0  0  0  0  0  0  0  0  0  0
   18.3995   19.4255   21.3532 H   0  0  0  0  0  0  0  0  0  0  0  0
   19.6785   19.8312   20.2059 H   0  0  0  0  0  0  0  0  0  0  0  0
   19.2240   17.7112   20.3085 C   0  0  0  0  0  0  0  0  0  0  0  0
   18.8889   16.9642   21.0400 H   0  0  0  0  0  0  0  0  0  0  0  0
   18.4858   17.7455   19.4968 H   0  0  0  0  0  0  0  0  0  0  0  0
   20.1783   17.3720   19.8847 H   0  0  0  0  0  0  0  0  0  0  0  0
  1  2  1  0  0  0  0
  1  3  2  0  0  0  0
  1  4  1  0  0  0  0
  4  5  1  0  0  0  0
  4  6  1  0  0  0  0
  4  7  1  0  0  0  0
  7  8  1  0  0  0  0
  7  9  1  0  0  0  0
  7 10  1  0  0  0  0
 10 11  1  0  0  0  0
 10 12  1  0  0  0  0
 10 13  1  0  0  0  0
 13 14  1  0  0  0  0
 13 15  1  0  0  0  0
 13 16  1  0  0  0  0
 16 17  1  0  0  0  0
 16 18  1  0  0  0  0
 16 19  1  0  0  0  0
 19 20  1  0  0  0  0
 19 21  1  0  0  0  0
 19 22  1  0  0  0  0
 22 23  1  0  0  0  0
 22 24  1  0  0  0  0
 22 25  1  0  0  0  0
M  END
> <VM2 Rank>
78

> <Conf_Id>
614

> <Probability>
0.05

> <Sum Probability>
99.17

> <Delta G>
3.762

> <G>
-4.200

> <E>
-28.981

> <-TS>
24.781

> <U+W>
-49.549

> <U>
10.016

> <W>
-59.565

> <W(PB)>
-62.019

> <W(SA)>
2.454

> <Valence>
10.523

> <Coulomb>
-1.441

> <VdW>
0.934

> <VdW6>
-9.398

> <VdW12>
10.333

> <Bond>
0.199

> <Angle>
2.988

> <Pdih>
7.334

> <Idih>
0.001

> <Tether>
0.000

$$$$
VeraChem MOL file


 25 24  0  0  0  0  0  0  0  0999 V2000     
   20.3699   19.5169   27.1355 C   0  0  0  0  0  0  0  0  0  0  0  0
   21.3722   20.2037   27.1598 O   0  5  0  0  0  0  0  0  0  0  0  0
   19.5592   19.4771   28.0400 O   0  0  0  0  0  0  0  0  0  0  0  0
   20.1042   18.6738   25.8936 C   0  0  0  0  0  0  0  0  0  0  0  0
   19.5750   17.7654   26.2048 H   0  0  0  0  0  0  0  0  0  0  0  0
   21.0736   18.3635   25.4875 H   0  0  0  0  0  0  0  0  0  0  0  0
   19.2813   19.4310   24.8194 C   0  0  0  0  0  0  0  0  0  0  0  0
   18.3541   19.7992   25.2797 H   0  0  0  0  0  0  0  0  0  0  0  0
   19.8340   20.3225   24.4946 H   0  0  0  0  0  0  0  0  0  0  0  0
   18.9115   18.5573   23.5944 C   0  0  0  0  0  0  0  0  0  0  0  0
   18.2843   19.1473   22.9133 H   0  0  0  0  0  0  0  0  0  0  0  0
   18.2815   17.7228   23.9308 H   0  0  0  0  0  0  0  0  0  0  0  0
   20.1180   17.9814   22.8074 C   0  0  0  0  0  0  0  0  0  0  0  0
   20.6569   17.2666   23.4427 H   0  0  0  0  0  0  0  0  0  0  0  0
   19.7386   17.3902   21.9638 H   0  0  0  0  0  0  0  0  0  0  0  0
   21.1253   19.0365   22.2792 C   0  0  0  0  0  0  0  0  0  0  0  0
   21.9272   18.5159   21.7385 H   0  0  0  0  0  0  0  0  0  0  0  0
   21.6129   19.5301   23.1302 H   0  0  0  0  0  0  0  0  0  0  0  0
   20.5188   20.1182   21.3516 C   0  0  0  0  0  0  0  0  0  0  0  0
   19.7681   20.7057   21.8965 H   0  0  0  0  0  0  0  0  0  0  0  0
   21.3126   20.8241   21.0712 H   0  0  0  0  0  0  0  0  0  0  0  0
   19.8926   19.5379   20.0651 C   0  0  0  0  0  0  0  0  0  0  0  0
   19.0228   18.9094   20.2938 H   0  0  0  0  0  0  0  0  0  0  0  0
   19.5547   20.3461   19.4038 H   0  0  0  0  0  0  0  0  0  0  0  0
   20.6214   18.9306   19.5129 H   0  0  0  0  0  0  0  0  0  0  0  0
  1  2  1  0  0  0  0
  1  3  2  0  0  0  0
  1  4  1  0  0  0  0
  4  5  1  0  0  0  0
  4  6  1  0  0  0  0
  4  7  1  0  0  0  0
  7  8  1  0  0  0  0
  7  9  1  0  0  0  0
  7 10  1  0  0  0  0
 10 11  1  0  0  0  0
 10 12  1  0  0  0  0
 10 13  1  0  0  0  0
 13 14  1  0  0  0  0
 13 15  1  0  0  0  0
 13 16  1  0  0  0  0
 16 17  1  0  0  0  0
 16 18  1  0  0  0  0
 16 19  1  0  0  0  0
 19 20  1  0  0  0  0
 19 21  1  0  0  0  0
 19 22  1  0  0  0  0
 22 23  1  0  0  0  0
 22 24  1  0  0  0  0
 22 25  1  0  0  0  0
M  END
> <VM2 Rank>
79

> <Conf_Id>
537

> <Probability>
0.04

> <Sum Probability>
99.22

> <Delta G>
3.780

> <G>
-4.183

> <E>
-29.633

> <-TS>
25.450

> <U+W>
-50.200

> <U>
9.324

> <W>
-59.524

> <W(PB)>
-61.905

> <W(SA)>
2.381

> <Valence>
9.360

> <Coulomb>
-0.855

> <VdW>
0.818

> <VdW6>
-11.207

> <VdW12>
12.025

> <Bond>
0.279

> <Angle>
3.545

> <Pdih>
5.535

> <Idih>
0.001

> <Tether>
0.000

$$$$
VeraChem MOL file


 25 24  0  0  0  0  0  0  0  0999 V2000     
   19.5514   19.1587   26.9671 C   0  0  0  0  0  0  0  0  0  0  0  0
   20.0437   19.0195   28.0695 O   0  5  0  0  0  0  0  0  0  0  0  0
   18.4654   19.6685   26.7741 O   0  0  0  0  0  0  0  0  0  0  0  0
   20.3505   18.6868   25.7578 C   0  0  0  0  0  0  0  0  0  0  0  0
   19.6396   18.3476   24.9980 H   0  0  0  0  0  0  0  0  0  0  0  0
   20.9360   17.8106   26.0605 H   0  0  0  0  0  0  0  0  0  0  0  0
   21.2907   19.7853   25.1945 C   0  0  0  0  0  0  0  0  0  0  0  0
   20.7147   20.6894   24.9528 H   0  0  0  0  0  0  0  0  0  0  0  0
   21.9898   20.0730   25.9920 H   0  0  0  0  0  0  0  0  0  0  0  0
   22.1077   19.3237   23.9611 C   0  0  0  0  0  0  0  0  0  0  0  0
   22.2829   18.2400   24.0042 H   0  0  0  0  0  0  0  0  0  0  0  0
   23.1015   19.7887   24.0158 H   0  0  0  0  0  0  0  0  0  0  0  0
   21.4884   19.7082   22.5939 C   0  0  0  0  0  0  0  0  0  0  0  0
   21.4110   20.8018   22.5233 H   0  0  0  0  0  0  0  0  0  0  0  0
   22.1836   19.3973   21.8021 H   0  0  0  0  0  0  0  0  0  0  0  0
   20.1041   19.0782   22.3220 C   0  0  0  0  0  0  0  0  0  0  0  0
   19.3700   19.4809   23.0320 H   0  0  0  0  0  0  0  0  0  0  0  0
   20.1547   17.9930   22.4841 H   0  0  0  0  0  0  0  0  0  0  0  0
   19.6188   19.3629   20.8850 C   0  0  0  0  0  0  0  0  0  0  0  0
   19.5710   20.4480   20.7187 H   0  0  0  0  0  0  0  0  0  0  0  0
   20.3421   18.9604   20.1623 H   0  0  0  0  0  0  0  0  0  0  0  0
   18.2322   18.7422   20.6209 C   0  0  0  0  0  0  0  0  0  0  0  0
   17.4814   19.1507   21.3100 H   0  0  0  0  0  0  0  0  0  0  0  0
   17.9022   18.9541   19.5956 H   0  0  0  0  0  0  0  0  0  0  0  0
   18.2589   17.6522   20.7501 H   0  0  0  0  0  0  0  0  0  0  0  0
  1  2  1  0  0  0  0
  1  3  2  0  0  0  0
  1  4  1  0  0  0  0
  4  5  1  0  0  0  0
  4  6  1  0  0  0  0
  4  7  1  0  0  0  0
  7  8  1  0  0  0  0
  7  9  1  0  0  0  0
  7 10  1  0  0  0  0
 10 11  1  0  0  0  0
 10 12  1  0  0  0  0
 10 13  1  0  0  0  0
 13 14  1  0  0  0  0
 13 15  1  0  0  0  0
 13 16  1  0  0  0  0
 16 17  1  0  0  0  0
 16 18  1  0  0  0  0
 16 19  1  0  0  0  0
 19 20  1  0  0  0  0
 19 21  1  0  0  0  0
 19 22  1  0  0  0  0
 22 23  1  0  0  0  0
 22 24  1  0  0  0  0
 22 25  1  0  0  0  0
M  END
> <VM2 Rank>
80

> <Conf_Id>
767

> <Probability>
0.04

> <Sum Probability>
99.26

> <Delta G>
3.841

> <G>
-4.121

> <E>
-28.910

> <-TS>
24.789

> <U+W>
-49.477

> <U>
10.344

> <W>
-59.821

> <W(PB)>
-62.262

> <W(SA)>
2.440

> <Valence>
10.527

> <Coulomb>
-1.067

> <VdW>
0.883

> <VdW6>
-9.455

> <VdW12>
10.339

> <Bond>
0.207

> <Angle>
3.010

> <Pdih>
7.310

> <Idih>
0.001

> <Tether>
0.000

$$$$
VeraChem MOL file


 25 24  0  0  0  0  0  0  0  0999 V2000     
   20.7674   19.2359   26.9532 C   0  0  0  0  0  0  0  0  0  0  0  0
   21.7752   19.8791   26.7362 O   0  5  0  0  0  0  0  0  0  0  0  0
   20.3223   19.0366   28.0663 O   0  0  0  0  0  0  0  0  0  0  0  0
   20.0069   18.6651   25.7617 C   0  0  0  0  0  0  0  0  0  0  0  0
   19.5442   17.7221   26.0763 H   0  0  0  0  0  0  0  0  0  0  0  0
   20.7375   18.4177   24.9853 H   0  0  0  0  0  0  0  0  0  0  0  0
   18.9226   19.6350   25.2219 C   0  0  0  0  0  0  0  0  0  0  0  0
   18.2113   19.8330   26.0356 H   0  0  0  0  0  0  0  0  0  0  0  0
   19.3738   20.6043   24.9684 H   0  0  0  0  0  0  0  0  0  0  0  0
   18.1424   19.0719   24.0069 C   0  0  0  0  0  0  0  0  0  0  0  0
   17.0993   19.4076   24.0851 H   0  0  0  0  0  0  0  0  0  0  0  0
   18.1067   17.9748   24.0524 H   0  0  0  0  0  0  0  0  0  0  0  0
   18.6764   19.5297   22.6263 C   0  0  0  0  0  0  0  0  0  0  0  0
   18.0081   19.1322   21.8503 H   0  0  0  0  0  0  0  0  0  0  0  0
   18.6133   20.6242   22.5556 H   0  0  0  0  0  0  0  0  0  0  0  0
   20.1226   19.0795   22.3218 C   0  0  0  0  0  0  0  0  0  0  0  0
   20.2135   17.9968   22.4834 H   0  0  0  0  0  0  0  0  0  0  0  0
   20.8161   19.5728   23.0152 H   0  0  0  0  0  0  0  0  0  0  0  0
   20.5348   19.4211   20.8744 C   0  0  0  0  0  0  0  0  0  0  0  0
   19.8517   18.9294   20.1680 H   0  0  0  0  0  0  0  0  0  0  0  0
   20.4413   20.5033   20.7086 H   0  0  0  0  0  0  0  0  0  0  0  0
   21.9823   18.9802   20.5774 C   0  0  0  0  0  0  0  0  0  0  0  0
   22.0966   17.8959   20.7057 H   0  0  0  0  0  0  0  0  0  0  0  0
   22.2591   19.2306   19.5451 H   0  0  0  0  0  0  0  0  0  0  0  0
   22.6911   19.4815   21.2495 H   0  0  0  0  0  0  0  0  0  0  0  0
  1  2  1  0  0  0  0
  1  3  2  0  0  0  0
  1  4  1  0  0  0  0
  4  5  1  0  0  0  0
  4  6  1  0  0  0  0
  4  7  1  0  0  0  0
  7  8  1  0  0  0  0
  7  9  1  0  0  0  0
  7 10  1  0  0  0  0
 10 11  1  0  0  0  0
 10 12  1  0  0  0  0
 10 13  1  0  0  0  0
 13 14  1  0  0  0  0
 13 15  1  0  0  0  0
 13 16  1  0  0  0  0
 16 17  1  0  0  0  0
 16 18  1  0  0  0  0
 16 19  1  0  0  0  0
 19 20  1  0  0  0  0
 19 21  1  0  0  0  0
 19 22  1  0  0  0  0
 22 23  1  0  0  0  0
 22 24  1  0  0  0  0
 22 25  1  0  0  0  0
M  END
> <VM2 Rank>
81

> <Conf_Id>
985

> <Probability>
0.04

> <Sum Probability>
99.30

> <Delta G>
3.860

> <G>
-4.102

> <E>
-28.891

> <-TS>
24.789

> <U+W>
-49.459

> <U>
10.344

> <W>
-59.802

> <W(PB)>
-62.244

> <W(SA)>
2.441

> <Valence>
10.527

> <Coulomb>
-1.067

> <VdW>
0.883

> <VdW6>
-9.455

> <VdW12>
10.339

> <Bond>
0.207

> <Angle>
3.010

> <Pdih>
7.309

> <Idih>
0.001

> <Tether>
0.000

$$$$
VeraChem MOL file


 25 24  0  0  0  0  0  0  0  0999 V2000     
   20.3481   19.8220   27.0877 C   0  0  0  0  0  0  0  0  0  0  0  0
   21.4743   20.2661   27.1939 O   0  5  0  0  0  0  0  0  0  0  0  0
   19.3696   20.3413   27.5872 O   0  0  0  0  0  0  0  0  0  0  0  0
   20.1492   18.5528   26.2669 C   0  0  0  0  0  0  0  0  0  0  0  0
   19.3199   17.9881   26.7094 H   0  0  0  0  0  0  0  0  0  0  0  0
   21.0512   17.9371   26.3670 H   0  0  0  0  0  0  0  0  0  0  0  0
   19.8632   18.8424   24.7728 C   0  0  0  0  0  0  0  0  0  0  0  0
   18.9615   19.4646   24.6893 H   0  0  0  0  0  0  0  0  0  0  0  0
   20.6987   19.4232   24.3602 H   0  0  0  0  0  0  0  0  0  0  0  0
   19.6780   17.5412   23.9606 C   0  0  0  0  0  0  0  0  0  0  0  0
   18.9241   16.9149   24.4568 H   0  0  0  0  0  0  0  0  0  0  0  0
   20.6139   16.9661   23.9744 H   0  0  0  0  0  0  0  0  0  0  0  0
   19.2336   17.7647   22.4933 C   0  0  0  0  0  0  0  0  0  0  0  0
   19.0858   16.7756   22.0388 H   0  0  0  0  0  0  0  0  0  0  0  0
   18.2504   18.2542   22.4675 H   0  0  0  0  0  0  0  0  0  0  0  0
   20.2476   18.5488   21.6218 C   0  0  0  0  0  0  0  0  0  0  0  0
   20.2360   18.1254   20.6081 H   0  0  0  0  0  0  0  0  0  0  0  0
   21.2671   18.4003   22.0032 H   0  0  0  0  0  0  0  0  0  0  0  0
   19.9265   20.0577   21.5160 C   0  0  0  0  0  0  0  0  0  0  0  0
   18.9267   20.1909   21.0804 H   0  0  0  0  0  0  0  0  0  0  0  0
   19.8986   20.5172   22.5114 H   0  0  0  0  0  0  0  0  0  0  0  0
   20.9630   20.7969   20.6459 C   0  0  0  0  0  0  0  0  0  0  0  0
   20.9867   20.3860   19.6281 H   0  0  0  0  0  0  0  0  0  0  0  0
   20.7175   21.8644   20.5749 H   0  0  0  0  0  0  0  0  0  0  0  0
   21.9696   20.7085   21.0752 H   0  0  0  0  0  0  0  0  0  0  0  0
  1  2  1  0  0  0  0
  1  3  2  0  0  0  0
  1  4  1  0  0  0  0
  4  5  1  0  0  0  0
  4  6  1  0  0  0  0
  4  7  1  0  0  0  0
  7  8  1  0  0  0  0
  7  9  1  0  0  0  0
  7 10  1  0  0  0  0
 10 11  1  0  0  0  0
 10 12  1  0  0  0  0
 10 13  1  0  0  0  0
 13 14  1  0  0  0  0
 13 15  1  0  0  0  0
 13 16  1  0  0  0  0
 16 17  1  0  0  0  0
 16 18  1  0  0  0  0
 16 19  1  0  0  0  0
 19 20  1  0  0  0  0
 19 21  1  0  0  0  0
 19 22  1  0  0  0  0
 22 23  1  0  0  0  0
 22 24  1  0  0  0  0
 22 25  1  0  0  0  0
M  END
> <VM2 Rank>
82

> <Conf_Id>
7

> <Probability>
0.04

> <Sum Probability>
99.33

> <Delta G>
3.865

> <G>
-4.098

> <E>
-28.879

> <-TS>
24.782

> <U+W>
-49.447

> <U>
10.480

> <W>
-59.927

> <W(PB)>
-62.373

> <W(SA)>
2.445

> <Valence>
10.552

> <Coulomb>
-0.995

> <VdW>
0.923

> <VdW6>
-9.371

> <VdW12>
10.295

> <Bond>
0.194

> <Angle>
2.991

> <Pdih>
7.366

> <Idih>
0.001

> <Tether>
0.000

$$$$
VeraChem MOL file


 25 24  0  0  0  0  0  0  0  0999 V2000     
   19.7425   19.6047   27.1883 C   0  0  0  0  0  0  0  0  0  0  0  0
   20.5884   19.9590   27.9856 O   0  5  0  0  0  0  0  0  0  0  0  0
   18.6154   20.0576   27.1565 O   0  0  0  0  0  0  0  0  0  0  0  0
   20.1230   18.5477   26.1577 C   0  0  0  0  0  0  0  0  0  0  0  0
   19.2273   17.9581   25.9281 H   0  0  0  0  0  0  0  0  0  0  0  0
   20.8496   17.8681   26.6187 H   0  0  0  0  0  0  0  0  0  0  0  0
   20.7080   19.1568   24.8598 C   0  0  0  0  0  0  0  0  0  0  0  0
   19.9764   19.8510   24.4290 H   0  0  0  0  0  0  0  0  0  0  0  0
   21.5965   19.7530   25.1099 H   0  0  0  0  0  0  0  0  0  0  0  0
   21.0904   18.0632   23.8344 C   0  0  0  0  0  0  0  0  0  0  0  0
   20.2259   17.4203   23.6195 H   0  0  0  0  0  0  0  0  0  0  0  0
   21.8481   17.4136   24.2937 H   0  0  0  0  0  0  0  0  0  0  0  0
   21.6683   18.6354   22.5152 C   0  0  0  0  0  0  0  0  0  0  0  0
   22.1604   19.5998   22.7010 H   0  0  0  0  0  0  0  0  0  0  0  0
   22.4607   17.9587   22.1675 H   0  0  0  0  0  0  0  0  0  0  0  0
   20.6392   18.7764   21.3653 C   0  0  0  0  0  0  0  0  0  0  0  0
   20.2236   17.7885   21.1243 H   0  0  0  0  0  0  0  0  0  0  0  0
   21.1724   19.1135   20.4658 H   0  0  0  0  0  0  0  0  0  0  0  0
   19.4855   19.7593   21.6610 C   0  0  0  0  0  0  0  0  0  0  0  0
   18.8672   19.3720   22.4814 H   0  0  0  0  0  0  0  0  0  0  0  0
   19.8943   20.7249   21.9888 H   0  0  0  0  0  0  0  0  0  0  0  0
   18.5923   19.9739   20.4223 C   0  0  0  0  0  0  0  0  0  0  0  0
   18.1503   19.0261   20.0883 H   0  0  0  0  0  0  0  0  0  0  0  0
   17.7732   20.6677   20.6519 H   0  0  0  0  0  0  0  0  0  0  0  0
   19.1698   20.3956   19.5892 H   0  0  0  0  0  0  0  0  0  0  0  0
  1  2  1  0  0  0  0
  1  3  2  0  0  0  0
  1  4  1  0  0  0  0
  4  5  1  0  0  0  0
  4  6  1  0  0  0  0
  4  7  1  0  0  0  0
  7  8  1  0  0  0  0
  7  9  1  0  0  0  0
  7 10  1  0  0  0  0
 10 11  1  0  0  0  0
 10 12  1  0  0  0  0
 10 13  1  0  0  0  0
 13 14  1  0  0  0  0
 13 15  1  0  0  0  0
 13 16  1  0  0  0  0
 16 17  1  0  0  0  0
 16 18  1  0  0  0  0
 16 19  1  0  0  0  0
 19 20  1  0  0  0  0
 19 21  1  0  0  0  0
 19 22  1  0  0  0  0
 22 23  1  0  0  0  0
 22 24  1  0  0  0  0
 22 25  1  0  0  0  0
M  END
> <VM2 Rank>
83

> <Conf_Id>
720

> <Probability>
0.04

> <Sum Probability>
99.37

> <Delta G>
3.907

> <G>
-4.055

> <E>
-28.830

> <-TS>
24.775

> <U+W>
-49.398

> <U>
10.175

> <W>
-59.573

> <W(PB)>
-62.030

> <W(SA)>
2.457

> <Valence>
10.554

> <Coulomb>
-1.316

> <VdW>
0.936

> <VdW6>
-9.356

> <VdW12>
10.292

> <Bond>
0.194

> <Angle>
2.996

> <Pdih>
7.363

> <Idih>
0.001

> <Tether>
0.000

$$$$
VeraChem MOL file


 25 24  0  0  0  0  0  0  0  0999 V2000     
   20.0360   19.0481   27.5084 C   0  0  0  0  0  0  0  0  0  0  0  0
   21.0804   19.1184   28.1256 O   0  5  0  0  0  0  0  0  0  0  0  0
   18.9543   19.3385   27.9800 O   0  0  0  0  0  0  0  0  0  0  0  0
   20.0882   18.5908   26.0551 C   0  0  0  0  0  0  0  0  0  0  0  0
   19.1582   18.0535   25.8334 H   0  0  0  0  0  0  0  0  0  0  0  0
   20.9101   17.8720   25.9534 H   0  0  0  0  0  0  0  0  0  0  0  0
   20.2777   19.7636   25.0618 C   0  0  0  0  0  0  0  0  0  0  0  0
   19.4539   20.4803   25.1846 H   0  0  0  0  0  0  0  0  0  0  0  0
   21.2058   20.2989   25.3058 H   0  0  0  0  0  0  0  0  0  0  0  0
   20.3273   19.2740   23.5981 C   0  0  0  0  0  0  0  0  0  0  0  0
   19.3977   18.7371   23.3696 H   0  0  0  0  0  0  0  0  0  0  0  0
   21.1544   18.5614   23.4760 H   0  0  0  0  0  0  0  0  0  0  0  0
   20.5043   20.4470   22.6086 C   0  0  0  0  0  0  0  0  0  0  0  0
   19.6286   21.1078   22.6658 H   0  0  0  0  0  0  0  0  0  0  0  0
   21.3668   21.0508   22.9220 H   0  0  0  0  0  0  0  0  0  0  0  0
   20.7259   20.0122   21.1379 C   0  0  0  0  0  0  0  0  0  0  0  0
   21.6520   19.4274   21.0532 H   0  0  0  0  0  0  0  0  0  0  0  0
   20.8934   20.9227   20.5465 H   0  0  0  0  0  0  0  0  0  0  0  0
   19.5428   19.2378   20.5049 C   0  0  0  0  0  0  0  0  0  0  0  0
   18.5967   19.5336   20.9788 H   0  0  0  0  0  0  0  0  0  0  0  0
   19.4587   19.5279   19.4484 H   0  0  0  0  0  0  0  0  0  0  0  0
   19.7161   17.7037   20.5656 C   0  0  0  0  0  0  0  0  0  0  0  0
   19.7886   17.3411   21.5972 H   0  0  0  0  0  0  0  0  0  0  0  0
   18.8614   17.2020   20.0937 H   0  0  0  0  0  0  0  0  0  0  0  0
   20.6239   17.3922   20.0329 H   0  0  0  0  0  0  0  0  0  0  0  0
  1  2  1  0  0  0  0
  1  3  2  0  0  0  0
  1  4  1  0  0  0  0
  4  5  1  0  0  0  0
  4  6  1  0  0  0  0
  4  7  1  0  0  0  0
  7  8  1  0  0  0  0
  7  9  1  0  0  0  0
  7 10  1  0  0  0  0
 10 11  1  0  0  0  0
 10 12  1  0  0  0  0
 10 13  1  0  0  0  0
 13 14  1  0  0  0  0
 13 15  1  0  0  0  0
 13 16  1  0  0  0  0
 16 17  1  0  0  0  0
 16 18  1  0  0  0  0
 16 19  1  0  0  0  0
 19 20  1  0  0  0  0
 19 21  1  0  0  0  0
 19 22  1  0  0  0  0
 22 23  1  0  0  0  0
 22 24  1  0  0  0  0
 22 25  1  0  0  0  0
M  END
> <VM2 Rank>
84

> <Conf_Id>
1106

> <Probability>
0.03

> <Sum Probability>
99.40

> <Delta G>
3.933

> <G>
-4.029

> <E>
-28.762

> <-TS>
24.733

> <U+W>
-49.330

> <U>
9.707

> <W>
-59.037

> <W(PB)>
-61.493

> <W(SA)>
2.456

> <Valence>
10.529

> <Coulomb>
-1.841

> <VdW>
1.019

> <VdW6>
-9.201

> <VdW12>
10.221

> <Bond>
0.191

> <Angle>
3.009

> <Pdih>
7.328

> <Idih>
0.001

> <Tether>
0.000

$$$$
VeraChem MOL file


 25 24  0  0  0  0  0  0  0  0999 V2000     
   19.8963   19.1945   27.5097 C   0  0  0  0  0  0  0  0  0  0  0  0
   20.8613   19.3849   28.2233 O   0  5  0  0  0  0  0  0  0  0  0  0
   18.7595   19.4892   27.8218 O   0  0  0  0  0  0  0  0  0  0  0  0
   20.1274   18.5709   26.1379 C   0  0  0  0  0  0  0  0  0  0  0  0
   19.2457   17.9705   25.8837 H   0  0  0  0  0  0  0  0  0  0  0  0
   20.9774   17.8824   26.2154 H   0  0  0  0  0  0  0  0  0  0  0  0
   20.3922   19.6251   25.0348 C   0  0  0  0  0  0  0  0  0  0  0  0
   19.5380   20.3140   24.9790 H   0  0  0  0  0  0  0  0  0  0  0  0
   21.2697   20.2264   25.3103 H   0  0  0  0  0  0  0  0  0  0  0  0
   20.6217   18.9692   23.6559 C   0  0  0  0  0  0  0  0  0  0  0  0
   19.7473   18.3620   23.3933 H   0  0  0  0  0  0  0  0  0  0  0  0
   21.4761   18.2813   23.7166 H   0  0  0  0  0  0  0  0  0  0  0  0
   20.8915   20.0258   22.5589 C   0  0  0  0  0  0  0  0  0  0  0  0
   20.0710   20.7552   22.5202 H   0  0  0  0  0  0  0  0  0  0  0  0
   21.7902   20.5907   22.8420 H   0  0  0  0  0  0  0  0  0  0  0  0
   21.1208   19.4094   21.1554 C   0  0  0  0  0  0  0  0  0  0  0  0
   21.5494   18.4020   21.2468 H   0  0  0  0  0  0  0  0  0  0  0  0
   21.8810   20.0110   20.6385 H   0  0  0  0  0  0  0  0  0  0  0  0
   19.8633   19.3725   20.2519 C   0  0  0  0  0  0  0  0  0  0  0  0
   19.4933   20.3949   20.0941 H   0  0  0  0  0  0  0  0  0  0  0  0
   20.1562   18.9958   19.2622 H   0  0  0  0  0  0  0  0  0  0  0  0
   18.7189   18.4926   20.7965 C   0  0  0  0  0  0  0  0  0  0  0  0
   17.9139   18.4078   20.0552 H   0  0  0  0  0  0  0  0  0  0  0  0
   19.0754   17.4803   21.0270 H   0  0  0  0  0  0  0  0  0  0  0  0
   18.2855   18.9261   21.7063 H   0  0  0  0  0  0  0  0  0  0  0  0
  1  2  1  0  0  0  0
  1  3  2  0  0  0  0
  1  4  1  0  0  0  0
  4  5  1  0  0  0  0
  4  6  1  0  0  0  0
  4  7  1  0  0  0  0
  7  8  1  0  0  0  0
  7  9  1  0  0  0  0
  7 10  1  0  0  0  0
 10 11  1  0  0  0  0
 10 12  1  0  0  0  0
 10 13  1  0  0  0  0
 13 14  1  0  0  0  0
 13 15  1  0  0  0  0
 13 16  1  0  0  0  0
 16 17  1  0  0  0  0
 16 18  1  0  0  0  0
 16 19  1  0  0  0  0
 19 20  1  0  0  0  0
 19 21  1  0  0  0  0
 19 22  1  0  0  0  0
 22 23  1  0  0  0  0
 22 24  1  0  0  0  0
 22 25  1  0  0  0  0
M  END
> <VM2 Rank>
85

> <Conf_Id>
1082

> <Probability>
0.03

> <Sum Probability>
99.44

> <Delta G>
3.935

> <G>
-4.027

> <E>
-28.762

> <-TS>
24.735

> <U+W>
-49.330

> <U>
9.739

> <W>
-59.069

> <W(PB)>
-61.524

> <W(SA)>
2.454

> <Valence>
10.506

> <Coulomb>
-1.761

> <VdW>
0.994

> <VdW6>
-9.209

> <VdW12>
10.203

> <Bond>
0.193

> <Angle>
2.980

> <Pdih>
7.333

> <Idih>
0.001

> <Tether>
0.000

$$$$
VeraChem MOL file


 25 24  0  0  0  0  0  0  0  0999 V2000     
   19.8956   19.7930   27.0929 C   0  0  0  0  0  0  0  0  0  0  0  0
   20.8112   20.4338   27.5703 O   0  5  0  0  0  0  0  0  0  0  0  0
   18.7248   20.0898   27.2260 O   0  0  0  0  0  0  0  0  0  0  0  0
   20.2358   18.5583   26.2659 C   0  0  0  0  0  0  0  0  0  0  0  0
   19.4222   17.8329   26.3857 H   0  0  0  0  0  0  0  0  0  0  0  0
   21.1403   18.1045   26.6883 H   0  0  0  0  0  0  0  0  0  0  0  0
   20.4481   18.8799   24.7661 C   0  0  0  0  0  0  0  0  0  0  0  0
   19.5362   19.3488   24.3736 H   0  0  0  0  0  0  0  0  0  0  0  0
   21.2609   19.6119   24.6629 H   0  0  0  0  0  0  0  0  0  0  0  0
   20.7791   17.6118   23.9478 C   0  0  0  0  0  0  0  0  0  0  0  0
   19.9247   16.9220   23.9823 H   0  0  0  0  0  0  0  0  0  0  0  0
   21.6179   17.0874   24.4257 H   0  0  0  0  0  0  0  0  0  0  0  0
   21.1575   17.8880   22.4710 C   0  0  0  0  0  0  0  0  0  0  0  0
   22.0694   18.4989   22.4234 H   0  0  0  0  0  0  0  0  0  0  0  0
   21.4198   16.9251   22.0119 H   0  0  0  0  0  0  0  0  0  0  0  0
   20.0321   18.5350   21.6242 C   0  0  0  0  0  0  0  0  0  0  0  0
   19.0488   18.2582   22.0287 H   0  0  0  0  0  0  0  0  0  0  0  0
   20.0743   18.1151   20.6099 H   0  0  0  0  0  0  0  0  0  0  0  0
   20.1554   20.0724   21.5133 C   0  0  0  0  0  0  0  0  0  0  0  0
   20.1474   20.5331   22.5085 H   0  0  0  0  0  0  0  0  0  0  0  0
   21.1198   20.3315   21.0550 H   0  0  0  0  0  0  0  0  0  0  0  0
   19.0134   20.6720   20.6684 C   0  0  0  0  0  0  0  0  0  0  0  0
   19.1189   21.7620   20.5933 H   0  0  0  0  0  0  0  0  0  0  0  0
   19.0188   20.2599   19.6508 H   0  0  0  0  0  0  0  0  0  0  0  0
   18.0364   20.4565   21.1206 H   0  0  0  0  0  0  0  0  0  0  0  0
  1  2  1  0  0  0  0
  1  3  2  0  0  0  0
  1  4  1  0  0  0  0
  4  5  1  0  0  0  0
  4  6  1  0  0  0  0
  4  7  1  0  0  0  0
  7  8  1  0  0  0  0
  7  9  1  0  0  0  0
  7 10  1  0  0  0  0
 10 11  1  0  0  0  0
 10 12  1  0  0  0  0
 10 13  1  0  0  0  0
 13 14  1  0  0  0  0
 13 15  1  0  0  0  0
 13 16  1  0  0  0  0
 16 17  1  0  0  0  0
 16 18  1  0  0  0  0
 16 19  1  0  0  0  0
 19 20  1  0  0  0  0
 19 21  1  0  0  0  0
 19 22  1  0  0  0  0
 22 23  1  0  0  0  0
 22 24  1  0  0  0  0
 22 25  1  0  0  0  0
M  END
> <VM2 Rank>
86

> <Conf_Id>
802

> <Probability>
0.03

> <Sum Probability>
99.47

> <Delta G>
3.938

> <G>
-4.024

> <E>
-28.806

> <-TS>
24.782

> <U+W>
-49.373

> <U>
10.480

> <W>
-59.854

> <W(PB)>
-62.311

> <W(SA)>
2.457

> <Valence>
10.552

> <Coulomb>
-0.995

> <VdW>
0.923

> <VdW6>
-9.371

> <VdW12>
10.294

> <Bond>
0.194

> <Angle>
2.991

> <Pdih>
7.366

> <Idih>
0.001

> <Tether>
0.000

$$$$
VeraChem MOL file


 25 24  0  0  0  0  0  0  0  0999 V2000     
   20.5262   19.6548   27.1793 C   0  0  0  0  0  0  0  0  0  0  0  0
   21.5855   20.2476   27.1221 O   0  5  0  0  0  0  0  0  0  0  0  0
   19.6607   19.8996   27.9964 O   0  0  0  0  0  0  0  0  0  0  0  0
   20.2599   18.5565   26.1561 C   0  0  0  0  0  0  0  0  0  0  0  0
   19.6366   17.7905   26.6327 H   0  0  0  0  0  0  0  0  0  0  0  0
   21.2179   18.0855   25.9051 H   0  0  0  0  0  0  0  0  0  0  0  0
   19.5723   19.0842   24.8729 C   0  0  0  0  0  0  0  0  0  0  0  0
   18.6211   19.5626   25.1443 H   0  0  0  0  0  0  0  0  0  0  0  0
   20.1993   19.8654   24.4265 H   0  0  0  0  0  0  0  0  0  0  0  0
   19.3089   17.9493   23.8550 C   0  0  0  0  0  0  0  0  0  0  0  0
   18.6509   17.2091   24.3307 H   0  0  0  0  0  0  0  0  0  0  0  0
   20.2431   17.4215   23.6193 H   0  0  0  0  0  0  0  0  0  0  0  0
   18.6326   18.4412   22.5502 C   0  0  0  0  0  0  0  0  0  0  0  0
   17.9251   17.6685   22.2199 H   0  0  0  0  0  0  0  0  0  0  0  0
   18.0260   19.3353   22.7487 H   0  0  0  0  0  0  0  0  0  0  0  0
   19.6086   18.7105   21.3771 C   0  0  0  0  0  0  0  0  0  0  0  0
   19.0162   18.9756   20.4907 H   0  0  0  0  0  0  0  0  0  0  0  0
   20.1410   17.7832   21.1253 H   0  0  0  0  0  0  0  0  0  0  0  0
   20.6343   19.8328   21.6477 C   0  0  0  0  0  0  0  0  0  0  0  0
   20.1134   20.7389   21.9862 H   0  0  0  0  0  0  0  0  0  0  0  0
   21.3155   19.5286   22.4532 H   0  0  0  0  0  0  0  0  0  0  0  0
   21.4641   20.1575   20.3891 C   0  0  0  0  0  0  0  0  0  0  0  0
   20.8187   20.5011   19.5701 H   0  0  0  0  0  0  0  0  0  0  0  0
   22.1933   20.9502   20.6008 H   0  0  0  0  0  0  0  0  0  0  0  0
   22.0154   19.2732   20.0437 H   0  0  0  0  0  0  0  0  0  0  0  0
  1  2  1  0  0  0  0
  1  3  2  0  0  0  0
  1  4  1  0  0  0  0
  4  5  1  0  0  0  0
  4  6  1  0  0  0  0
  4  7  1  0  0  0  0
  7  8  1  0  0  0  0
  7  9  1  0  0  0  0
  7 10  1  0  0  0  0
 10 11  1  0  0  0  0
 10 12  1  0  0  0  0
 10 13  1  0  0  0  0
 13 14  1  0  0  0  0
 13 15  1  0  0  0  0
 13 16  1  0  0  0  0
 16 17  1  0  0  0  0
 16 18  1  0  0  0  0
 16 19  1  0  0  0  0
 19 20  1  0  0  0  0
 19 21  1  0  0  0  0
 19 22  1  0  0  0  0
 22 23  1  0  0  0  0
 22 24  1  0  0  0  0
 22 25  1  0  0  0  0
M  END
> <VM2 Rank>
87

> <Conf_Id>
717

> <Probability>
0.03

> <Sum Probability>
99.51

> <Delta G>
3.946

> <G>
-4.017

> <E>
-28.792

> <-TS>
24.775

> <U+W>
-49.359

> <U>
10.175

> <W>
-59.534

> <W(PB)>
-62.004

> <W(SA)>
2.470

> <Valence>
10.554

> <Coulomb>
-1.316

> <VdW>
0.936

> <VdW6>
-9.356

> <VdW12>
10.292

> <Bond>
0.194

> <Angle>
2.996

> <Pdih>
7.363

> <Idih>
0.001

> <Tether>
0.000

$$$$
VeraChem MOL file


 25 24  0  0  0  0  0  0  0  0999 V2000     
   20.4334   19.2288   27.5034 C   0  0  0  0  0  0  0  0  0  0  0  0
   21.5305   19.6659   27.7896 O   0  5  0  0  0  0  0  0  0  0  0  0
   19.4687   19.2961   28.2394 O   0  0  0  0  0  0  0  0  0  0  0  0
   20.2517   18.5789   26.1364 C   0  0  0  0  0  0  0  0  0  0  0  0
   19.4980   17.7882   26.2326 H   0  0  0  0  0  0  0  0  0  0  0  0
   21.1964   18.0947   25.8612 H   0  0  0  0  0  0  0  0  0  0  0  0
   19.8300   19.5892   25.0413 C   0  0  0  0  0  0  0  0  0  0  0  0
   18.8898   20.0748   25.3378 H   0  0  0  0  0  0  0  0  0  0  0  0
   20.5884   20.3809   24.9668 H   0  0  0  0  0  0  0  0  0  0  0  0
   19.6539   18.9074   23.6671 C   0  0  0  0  0  0  0  0  0  0  0  0
   18.8954   18.1168   23.7465 H   0  0  0  0  0  0  0  0  0  0  0  0
   20.5920   18.4158   23.3836 H   0  0  0  0  0  0  0  0  0  0  0  0
   19.2269   19.9196   22.5781 C   0  0  0  0  0  0  0  0  0  0  0  0
   18.2705   20.3662   22.8825 H   0  0  0  0  0  0  0  0  0  0  0  0
   19.9470   20.7473   22.5216 H   0  0  0  0  0  0  0  0  0  0  0  0
   19.0456   19.2769   21.1793 C   0  0  0  0  0  0  0  0  0  0  0  0
   18.2035   19.7762   20.6809 H   0  0  0  0  0  0  0  0  0  0  0  0
   18.7508   18.2234   21.2792 H   0  0  0  0  0  0  0  0  0  0  0  0
   20.2765   19.3988   20.2472 C   0  0  0  0  0  0  0  0  0  0  0  0
   20.0113   18.9864   19.2640 H   0  0  0  0  0  0  0  0  0  0  0  0
   20.5098   20.4597   20.0823 H   0  0  0  0  0  0  0  0  0  0  0  0
   21.5358   18.6724   20.7641 C   0  0  0  0  0  0  0  0  0  0  0  0
   21.3163   17.6234   21.0013 H   0  0  0  0  0  0  0  0  0  0  0  0
   22.3278   18.6896   20.0044 H   0  0  0  0  0  0  0  0  0  0  0  0
   21.9313   19.1589   21.6644 H   0  0  0  0  0  0  0  0  0  0  0  0
  1  2  1  0  0  0  0
  1  3  2  0  0  0  0
  1  4  1  0  0  0  0
  4  5  1  0  0  0  0
  4  6  1  0  0  0  0
  4  7  1  0  0  0  0
  7  8  1  0  0  0  0
  7  9  1  0  0  0  0
  7 10  1  0  0  0  0
 10 11  1  0  0  0  0
 10 12  1  0  0  0  0
 10 13  1  0  0  0  0
 13 14  1  0  0  0  0
 13 15  1  0  0  0  0
 13 16  1  0  0  0  0
 16 17  1  0  0  0  0
 16 18  1  0  0  0  0
 16 19  1  0  0  0  0
 19 20  1  0  0  0  0
 19 21  1  0  0  0  0
 19 22  1  0  0  0  0
 22 23  1  0  0  0  0
 22 24  1  0  0  0  0
 22 25  1  0  0  0  0
M  END
> <VM2 Rank>
88

> <Conf_Id>
521

> <Probability>
0.03

> <Sum Probability>
99.54

> <Delta G>
3.949

> <G>
-4.013

> <E>
-28.749

> <-TS>
24.736

> <U+W>
-49.317

> <U>
9.739

> <W>
-59.056

> <W(PB)>
-61.488

> <W(SA)>
2.432

> <Valence>
10.506

> <Coulomb>
-1.761

> <VdW>
0.994

> <VdW6>
-9.209

> <VdW12>
10.204

> <Bond>
0.193

> <Angle>
2.979

> <Pdih>
7.333

> <Idih>
0.001

> <Tether>
0.000

$$$$
VeraChem MOL file


 25 24  0  0  0  0  0  0  0  0999 V2000     
   20.1750   19.6571   27.4903 C   0  0  0  0  0  0  0  0  0  0  0  0
   21.0936   19.1760   28.1238 O   0  5  0  0  0  0  0  0  0  0  0  0
   19.0805   19.8911   27.9636 O   0  0  0  0  0  0  0  0  0  0  0  0
   20.4014   19.9638   26.0143 C   0  0  0  0  0  0  0  0  0  0  0  0
   21.4523   20.2483   25.8827 H   0  0  0  0  0  0  0  0  0  0  0  0
   19.7935   20.8376   25.7507 H   0  0  0  0  0  0  0  0  0  0  0  0
   20.0512   18.7707   25.0913 C   0  0  0  0  0  0  0  0  0  0  0  0
   20.6586   17.9008   25.3771 H   0  0  0  0  0  0  0  0  0  0  0  0
   18.9997   18.4900   25.2438 H   0  0  0  0  0  0  0  0  0  0  0  0
   20.2891   19.1069   23.6031 C   0  0  0  0  0  0  0  0  0  0  0  0
   21.3416   19.3824   23.4516 H   0  0  0  0  0  0  0  0  0  0  0  0
   19.6811   19.9798   23.3327 H   0  0  0  0  0  0  0  0  0  0  0  0
   19.9274   17.9193   22.6837 C   0  0  0  0  0  0  0  0  0  0  0  0
   20.4468   17.0200   23.0419 H   0  0  0  0  0  0  0  0  0  0  0  0
   18.8526   17.7078   22.7669 H   0  0  0  0  0  0  0  0  0  0  0  0
   20.2966   18.1312   21.1938 C   0  0  0  0  0  0  0  0  0  0  0  0
   20.0451   17.2063   20.6571 H   0  0  0  0  0  0  0  0  0  0  0  0
   21.3835   18.2509   21.0883 H   0  0  0  0  0  0  0  0  0  0  0  0
   19.5582   19.3049   20.5028 C   0  0  0  0  0  0  0  0  0  0  0  0
   19.3432   19.0208   19.4634 H   0  0  0  0  0  0  0  0  0  0  0  0
   18.5835   19.4757   20.9803 H   0  0  0  0  0  0  0  0  0  0  0  0
   20.3801   20.6130   20.4792 C   0  0  0  0  0  0  0  0  0  0  0  0
   19.8215   21.4080   19.9686 H   0  0  0  0  0  0  0  0  0  0  0  0
   20.6157   20.9659   21.4896 H   0  0  0  0  0  0  0  0  0  0  0  0
   21.3264   20.4695   19.9417 H   0  0  0  0  0  0  0  0  0  0  0  0
  1  2  1  0  0  0  0
  1  3  2  0  0  0  0
  1  4  1  0  0  0  0
  4  5  1  0  0  0  0
  4  6  1  0  0  0  0
  4  7  1  0  0  0  0
  7  8  1  0  0  0  0
  7  9  1  0  0  0  0
  7 10  1  0  0  0  0
 10 11  1  0  0  0  0
 10 12  1  0  0  0  0
 10 13  1  0  0  0  0
 13 14  1  0  0  0  0
 13 15  1  0  0  0  0
 13 16  1  0  0  0  0
 16 17  1  0  0  0  0
 16 18  1  0  0  0  0
 16 19  1  0  0  0  0
 19 20  1  0  0  0  0
 19 21  1  0  0  0  0
 19 22  1  0  0  0  0
 22 23  1  0  0  0  0
 22 24  1  0  0  0  0
 22 25  1  0  0  0  0
M  END
> <VM2 Rank>
89

> <Conf_Id>
251

> <Probability>
0.03

> <Sum Probability>
99.57

> <Delta G>
3.951

> <G>
-4.012

> <E>
-28.745

> <-TS>
24.733

> <U+W>
-49.313

> <U>
9.708

> <W>
-59.020

> <W(PB)>
-61.481

> <W(SA)>
2.461

> <Valence>
10.529

> <Coulomb>
-1.840

> <VdW>
1.019

> <VdW6>
-9.202

> <VdW12>
10.221

> <Bond>
0.191

> <Angle>
3.009

> <Pdih>
7.327

> <Idih>
0.001

> <Tether>
0.000

$$$$
VeraChem MOL file


 25 24  0  0  0  0  0  0  0  0999 V2000     
   19.9228   19.3685   27.1425 C   0  0  0  0  0  0  0  0  0  0  0  0
   20.8925   19.0949   27.8222 O   0  5  0  0  0  0  0  0  0  0  0  0
   18.8200   18.8900   27.3210 O   0  0  0  0  0  0  0  0  0  0  0  0
   20.0971   20.3847   26.0173 C   0  0  0  0  0  0  0  0  0  0  0  0
   20.6650   21.2294   26.4244 H   0  0  0  0  0  0  0  0  0  0  0  0
   19.1095   20.7711   25.7378 H   0  0  0  0  0  0  0  0  0  0  0  0
   20.8258   19.8255   24.7676 C   0  0  0  0  0  0  0  0  0  0  0  0
   21.0367   20.6593   24.0858 H   0  0  0  0  0  0  0  0  0  0  0  0
   21.7964   19.4072   25.0680 H   0  0  0  0  0  0  0  0  0  0  0  0
   19.9963   18.7483   24.0286 C   0  0  0  0  0  0  0  0  0  0  0  0
   19.0386   19.1752   23.7032 H   0  0  0  0  0  0  0  0  0  0  0  0
   19.7449   17.9419   24.7308 H   0  0  0  0  0  0  0  0  0  0  0  0
   20.7348   18.1234   22.8183 C   0  0  0  0  0  0  0  0  0  0  0  0
   21.6433   17.6222   23.1786 H   0  0  0  0  0  0  0  0  0  0  0  0
   20.1073   17.3295   22.3924 H   0  0  0  0  0  0  0  0  0  0  0  0
   21.1306   19.1186   21.6954 C   0  0  0  0  0  0  0  0  0  0  0  0
   21.6235   18.5582   20.8895 H   0  0  0  0  0  0  0  0  0  0  0  0
   21.8884   19.8152   22.0773 H   0  0  0  0  0  0  0  0  0  0  0  0
   19.9592   19.9322   21.0921 C   0  0  0  0  0  0  0  0  0  0  0  0
   19.5054   20.5693   21.8627 H   0  0  0  0  0  0  0  0  0  0  0  0
   20.3620   20.6151   20.3317 H   0  0  0  0  0  0  0  0  0  0  0  0
   18.8738   19.0478   20.4411 C   0  0  0  0  0  0  0  0  0  0  0  0
   18.3690   18.4221   21.1879 H   0  0  0  0  0  0  0  0  0  0  0  0
   18.1103   19.6701   19.9569 H   0  0  0  0  0  0  0  0  0  0  0  0
   19.3090   18.3900   19.6776 H   0  0  0  0  0  0  0  0  0  0  0  0
  1  2  1  0  0  0  0
  1  3  2  0  0  0  0
  1  4  1  0  0  0  0
  4  5  1  0  0  0  0
  4  6  1  0  0  0  0
  4  7  1  0  0  0  0
  7  8  1  0  0  0  0
  7  9  1  0  0  0  0
  7 10  1  0  0  0  0
 10 11  1  0  0  0  0
 10 12  1  0  0  0  0
 10 13  1  0  0  0  0
 13 14  1  0  0  0  0
 13 15  1  0  0  0  0
 13 16  1  0  0  0  0
 16 17  1  0  0  0  0
 16 18  1  0  0  0  0
 16 19  1  0  0  0  0
 19 20  1  0  0  0  0
 19 21  1  0  0  0  0
 19 22  1  0  0  0  0
 22 23  1  0  0  0  0
 22 24  1  0  0  0  0
 22 25  1  0  0  0  0
M  END
> <VM2 Rank>
90

> <Conf_Id>
280

> <Probability>
0.02

> <Sum Probability>
99.59

> <Delta G>
4.271

> <G>
-3.691

> <E>
-29.153

> <-TS>
25.462

> <U+W>
-49.720

> <U>
10.166

> <W>
-59.886

> <W(PB)>
-62.280

> <W(SA)>
2.394

> <Valence>
9.218

> <Coulomb>
0.150

> <VdW>
0.798

> <VdW6>
-11.032

> <VdW12>
11.831

> <Bond>
0.256

> <Angle>
3.425

> <Pdih>
5.536

> <Idih>
0.001

> <Tether>
0.000

$$$$
VeraChem MOL file


 25 24  0  0  0  0  0  0  0  0999 V2000     
   19.9515   19.7917   26.7080 C   0  0  0  0  0  0  0  0  0  0  0  0
   20.2082   19.3325   27.8039 O   0  5  0  0  0  0  0  0  0  0  0  0
   18.8712   20.2646   26.4139 O   0  0  0  0  0  0  0  0  0  0  0  0
   21.0566   19.7992   25.6556 C   0  0  0  0  0  0  0  0  0  0  0  0
   21.9475   20.2365   26.1210 H   0  0  0  0  0  0  0  0  0  0  0  0
   20.7653   20.4770   24.8449 H   0  0  0  0  0  0  0  0  0  0  0  0
   21.4069   18.3940   25.0940 C   0  0  0  0  0  0  0  0  0  0  0  0
   22.2545   18.4824   24.4023 H   0  0  0  0  0  0  0  0  0  0  0  0
   21.7580   17.7618   25.9212 H   0  0  0  0  0  0  0  0  0  0  0  0
   20.2290   17.6754   24.3862 C   0  0  0  0  0  0  0  0  0  0  0  0
   19.4396   17.4714   25.1225 H   0  0  0  0  0  0  0  0  0  0  0  0
   20.5745   16.6937   24.0349 H   0  0  0  0  0  0  0  0  0  0  0  0
   19.6074   18.4454   23.1941 C   0  0  0  0  0  0  0  0  0  0  0  0
   18.7834   17.8450   22.7858 H   0  0  0  0  0  0  0  0  0  0  0  0
   19.1542   19.3768   23.5567 H   0  0  0  0  0  0  0  0  0  0  0  0
   20.6195   18.7480   22.0621 C   0  0  0  0  0  0  0  0  0  0  0  0
   21.1345   17.8183   21.7850 H   0  0  0  0  0  0  0  0  0  0  0  0
   21.3925   19.4384   22.4240 H   0  0  0  0  0  0  0  0  0  0  0  0
   19.9611   19.3442   20.7963 C   0  0  0  0  0  0  0  0  0  0  0  0
   20.7213   19.4231   20.0070 H   0  0  0  0  0  0  0  0  0  0  0  0
   19.1918   18.6567   20.4187 H   0  0  0  0  0  0  0  0  0  0  0  0
   19.3416   20.7389   21.0318 C   0  0  0  0  0  0  0  0  0  0  0  0
   20.0870   21.4367   21.4351 H   0  0  0  0  0  0  0  0  0  0  0  0
   18.9632   21.1555   20.0894 H   0  0  0  0  0  0  0  0  0  0  0  0
   18.5007   20.6898   21.7350 H   0  0  0  0  0  0  0  0  0  0  0  0
  1  2  1  0  0  0  0
  1  3  2  0  0  0  0
  1  4  1  0  0  0  0
  4  5  1  0  0  0  0
  4  6  1  0  0  0  0
  4  7  1  0  0  0  0
  7  8  1  0  0  0  0
  7  9  1  0  0  0  0
  7 10  1  0  0  0  0
 10 11  1  0  0  0  0
 10 12  1  0  0  0  0
 10 13  1  0  0  0  0
 13 14  1  0  0  0  0
 13 15  1  0  0  0  0
 13 16  1  0  0  0  0
 16 17  1  0  0  0  0
 16 18  1  0  0  0  0
 16 19  1  0  0  0  0
 19 20  1  0  0  0  0
 19 21  1  0  0  0  0
 19 22  1  0  0  0  0
 22 23  1  0  0  0  0
 22 24  1  0  0  0  0
 22 25  1  0  0  0  0
M  END
> <VM2 Rank>
91

> <Conf_Id>
843

> <Probability>
0.02

> <Sum Probability>
99.61

> <Delta G>
4.301

> <G>
-3.661

> <E>
-29.034

> <-TS>
25.373

> <U+W>
-49.602

> <U>
10.962

> <W>
-60.564

> <W(PB)>
-62.939

> <W(SA)>
2.375

> <Valence>
9.203

> <Coulomb>
1.167

> <VdW>
0.592

> <VdW6>
-11.372

> <VdW12>
11.964

> <Bond>
0.260

> <Angle>
3.321

> <Pdih>
5.621

> <Idih>
0.001

> <Tether>
0.000

$$$$
VeraChem MOL file


 25 24  0  0  0  0  0  0  0  0999 V2000     
   20.0297   19.1418   26.9839 C   0  0  0  0  0  0  0  0  0  0  0  0
   20.8989   19.3886   27.7970 O   0  5  0  0  0  0  0  0  0  0  0  0
   18.8761   19.5055   27.1023 O   0  0  0  0  0  0  0  0  0  0  0  0
   20.4039   18.3054   25.7636 C   0  0  0  0  0  0  0  0  0  0  0  0
   19.4840   17.9369   25.2953 H   0  0  0  0  0  0  0  0  0  0  0  0
   20.9437   17.4228   26.1258 H   0  0  0  0  0  0  0  0  0  0  0  0
   21.2826   19.0560   24.7260 C   0  0  0  0  0  0  0  0  0  0  0  0
   22.2203   19.3589   25.2119 H   0  0  0  0  0  0  0  0  0  0  0  0
   21.5687   18.3623   23.9248 H   0  0  0  0  0  0  0  0  0  0  0  0
   20.6131   20.3124   24.1119 C   0  0  0  0  0  0  0  0  0  0  0  0
   21.3191   20.7881   23.4187 H   0  0  0  0  0  0  0  0  0  0  0  0
   20.4397   21.0494   24.9078 H   0  0  0  0  0  0  0  0  0  0  0  0
   19.2703   20.0531   23.3796 C   0  0  0  0  0  0  0  0  0  0  0  0
   18.5148   19.7392   24.1123 H   0  0  0  0  0  0  0  0  0  0  0  0
   18.9061   21.0044   22.9689 H   0  0  0  0  0  0  0  0  0  0  0  0
   19.3297   19.0062   22.2388 C   0  0  0  0  0  0  0  0  0  0  0  0
   18.3198   18.8909   21.8224 H   0  0  0  0  0  0  0  0  0  0  0  0
   19.6048   18.0242   22.6451 H   0  0  0  0  0  0  0  0  0  0  0  0
   20.3008   19.3913   21.1002 C   0  0  0  0  0  0  0  0  0  0  0  0
   20.0483   20.3908   20.7202 H   0  0  0  0  0  0  0  0  0  0  0  0
   21.3283   19.4441   21.4835 H   0  0  0  0  0  0  0  0  0  0  0  0
   20.2480   18.3737   19.9428 C   0  0  0  0  0  0  0  0  0  0  0  0
   19.2402   18.3220   19.5103 H   0  0  0  0  0  0  0  0  0  0  0  0
   20.9450   18.6595   19.1444 H   0  0  0  0  0  0  0  0  0  0  0  0
   20.5240   17.3696   20.2906 H   0  0  0  0  0  0  0  0  0  0  0  0
  1  2  1  0  0  0  0
  1  3  2  0  0  0  0
  1  4  1  0  0  0  0
  4  5  1  0  0  0  0
  4  6  1  0  0  0  0
  4  7  1  0  0  0  0
  7  8  1  0  0  0  0
  7  9  1  0  0  0  0
  7 10  1  0  0  0  0
 10 11  1  0  0  0  0
 10 12  1  0  0  0  0
 10 13  1  0  0  0  0
 13 14  1  0  0  0  0
 13 15  1  0  0  0  0
 13 16  1  0  0  0  0
 16 17  1  0  0  0  0
 16 18  1  0  0  0  0
 16 19  1  0  0  0  0
 19 20  1  0  0  0  0
 19 21  1  0  0  0  0
 19 22  1  0  0  0  0
 22 23  1  0  0  0  0
 22 24  1  0  0  0  0
 22 25  1  0  0  0  0
M  END
> <VM2 Rank>
92

> <Conf_Id>
436

> <Probability>
0.02

> <Sum Probability>
99.63

> <Delta G>
4.313

> <G>
-3.650

> <E>
-29.213

> <-TS>
25.564

> <U+W>
-49.781

> <U>
10.242

> <W>
-60.023

> <W(PB)>
-62.388

> <W(SA)>
2.365

> <Valence>
9.192

> <Coulomb>
0.540

> <VdW>
0.509

> <VdW6>
-11.540

> <VdW12>
12.049

> <Bond>
0.268

> <Angle>
3.482

> <Pdih>
5.442

> <Idih>
0.001

> <Tether>
0.000

$$$$
VeraChem MOL file


 25 24  0  0  0  0  0  0  0  0999 V2000     
   19.6502   19.2520   26.7277 C   0  0  0  0  0  0  0  0  0  0  0  0
   20.2094   19.3344   27.8039 O   0  5  0  0  0  0  0  0  0  0  0  0
   18.6715   19.9068   26.4272 O   0  0  0  0  0  0  0  0  0  0  0  0
   20.1917   18.2501   25.7119 C   0  0  0  0  0  0  0  0  0  0  0  0
   19.4372   18.0984   24.9314 H   0  0  0  0  0  0  0  0  0  0  0  0
   20.3020   17.2894   26.2281 H   0  0  0  0  0  0  0  0  0  0  0  0
   21.5532   18.6563   25.0845 C   0  0  0  0  0  0  0  0  0  0  0  0
   22.3009   18.7343   25.8858 H   0  0  0  0  0  0  0  0  0  0  0  0
   21.9018   17.8510   24.4252 H   0  0  0  0  0  0  0  0  0  0  0  0
   21.5238   19.9947   24.3019 C   0  0  0  0  0  0  0  0  0  0  0  0
   22.5293   20.1952   23.9077 H   0  0  0  0  0  0  0  0  0  0  0  0
   21.3054   20.8136   25.0011 H   0  0  0  0  0  0  0  0  0  0  0  0
   20.5058   20.0546   23.1356 C   0  0  0  0  0  0  0  0  0  0  0  0
   19.4868   19.9727   23.5350 H   0  0  0  0  0  0  0  0  0  0  0  0
   20.5710   21.0468   22.6694 H   0  0  0  0  0  0  0  0  0  0  0  0
   20.7450   18.9730   22.0539 C   0  0  0  0  0  0  0  0  0  0  0  0
   20.5750   17.9743   22.4771 H   0  0  0  0  0  0  0  0  0  0  0  0
   21.7977   19.0061   21.7420 H   0  0  0  0  0  0  0  0  0  0  0  0
   19.8533   19.1509   20.8032 C   0  0  0  0  0  0  0  0  0  0  0  0
   20.0224   20.1440   20.3646 H   0  0  0  0  0  0  0  0  0  0  0  0
   20.1612   18.4195   20.0433 H   0  0  0  0  0  0  0  0  0  0  0  0
   18.3491   18.9612   21.0961 C   0  0  0  0  0  0  0  0  0  0  0  0
   18.1596   17.9846   21.5602 H   0  0  0  0  0  0  0  0  0  0  0  0
   17.9709   19.7409   21.7691 H   0  0  0  0  0  0  0  0  0  0  0  0
   17.7671   19.0129   20.1669 H   0  0  0  0  0  0  0  0  0  0  0  0
  1  2  1  0  0  0  0
  1  3  2  0  0  0  0
  1  4  1  0  0  0  0
  4  5  1  0  0  0  0
  4  6  1  0  0  0  0
  4  7  1  0  0  0  0
  7  8  1  0  0  0  0
  7  9  1  0  0  0  0
  7 10  1  0  0  0  0
 10 11  1  0  0  0  0
 10 12  1  0  0  0  0
 10 13  1  0  0  0  0
 13 14  1  0  0  0  0
 13 15  1  0  0  0  0
 13 16  1  0  0  0  0
 16 17  1  0  0  0  0
 16 18  1  0  0  0  0
 16 19  1  0  0  0  0
 19 20  1  0  0  0  0
 19 21  1  0  0  0  0
 19 22  1  0  0  0  0
 22 23  1  0  0  0  0
 22 24  1  0  0  0  0
 22 25  1  0  0  0  0
M  END
> <VM2 Rank>
93

> <Conf_Id>
724

> <Probability>
0.02

> <Sum Probability>
99.65

> <Delta G>
4.339

> <G>
-3.623

> <E>
-28.996

> <-TS>
25.373

> <U+W>
-49.563

> <U>
10.961

> <W>
-60.524

> <W(PB)>
-62.909

> <W(SA)>
2.385

> <Valence>
9.203

> <Coulomb>
1.166

> <VdW>
0.592

> <VdW6>
-11.371

> <VdW12>
11.963

> <Bond>
0.260

> <Angle>
3.321

> <Pdih>
5.622

> <Idih>
0.001

> <Tether>
0.000

$$$$
VeraChem MOL file


 25 24  0  0  0  0  0  0  0  0999 V2000     
   20.5364   18.9181   26.7243 C   0  0  0  0  0  0  0  0  0  0  0  0
   21.7313   19.1395   26.7472 O   0  5  0  0  0  0  0  0  0  0  0  0
   20.0494   17.8285   26.9538 O   0  0  0  0  0  0  0  0  0  0  0  0
   19.5960   20.0798   26.4156 C   0  0  0  0  0  0  0  0  0  0  0  0
   19.9295   20.9389   27.0095 H   0  0  0  0  0  0  0  0  0  0  0  0
   18.5907   19.8203   26.7689 H   0  0  0  0  0  0  0  0  0  0  0  0
   19.5531   20.4719   24.9160 C   0  0  0  0  0  0  0  0  0  0  0  0
   18.9635   21.3914   24.8025 H   0  0  0  0  0  0  0  0  0  0  0  0
   20.5726   20.7042   24.5802 H   0  0  0  0  0  0  0  0  0  0  0  0
   18.9410   19.3602   24.0308 C   0  0  0  0  0  0  0  0  0  0  0  0
   17.9514   19.0935   24.4257 H   0  0  0  0  0  0  0  0  0  0  0  0
   19.5498   18.4490   24.1002 H   0  0  0  0  0  0  0  0  0  0  0  0
   18.7814   19.7724   22.5459 C   0  0  0  0  0  0  0  0  0  0  0  0
   18.2919   18.9541   22.0018 H   0  0  0  0  0  0  0  0  0  0  0  0
   18.0901   20.6239   22.4866 H   0  0  0  0  0  0  0  0  0  0  0  0
   20.0989   20.1527   21.8196 C   0  0  0  0  0  0  0  0  0  0  0  0
   20.5034   21.0736   22.2595 H   0  0  0  0  0  0  0  0  0  0  0  0
   19.8639   20.4014   20.7758 H   0  0  0  0  0  0  0  0  0  0  0  0
   21.1994   19.0633   21.8373 C   0  0  0  0  0  0  0  0  0  0  0  0
   22.0872   19.4535   21.3212 H   0  0  0  0  0  0  0  0  0  0  0  0
   21.5134   18.8600   22.8701 H   0  0  0  0  0  0  0  0  0  0  0  0
   20.7660   17.7475   21.1554 C   0  0  0  0  0  0  0  0  0  0  0  0
   19.9462   17.2663   21.7036 H   0  0  0  0  0  0  0  0  0  0  0  0
   20.4321   17.9301   20.1258 H   0  0  0  0  0  0  0  0  0  0  0  0
   21.6036   17.0392   21.1196 H   0  0  0  0  0  0  0  0  0  0  0  0
  1  2  1  0  0  0  0
  1  3  2  0  0  0  0
  1  4  1  0  0  0  0
  4  5  1  0  0  0  0
  4  6  1  0  0  0  0
  4  7  1  0  0  0  0
  7  8  1  0  0  0  0
  7  9  1  0  0  0  0
  7 10  1  0  0  0  0
 10 11  1  0  0  0  0
 10 12  1  0  0  0  0
 10 13  1  0  0  0  0
 13 14  1  0  0  0  0
 13 15  1  0  0  0  0
 13 16  1  0  0  0  0
 16 17  1  0  0  0  0
 16 18  1  0  0  0  0
 16 19  1  0  0  0  0
 19 20  1  0  0  0  0
 19 21  1  0  0  0  0
 19 22  1  0  0  0  0
 22 23  1  0  0  0  0
 22 24  1  0  0  0  0
 22 25  1  0  0  0  0
M  END
> <VM2 Rank>
94

> <Conf_Id>
502

> <Probability>
0.01

> <Sum Probability>
99.66

> <Delta G>
4.429

> <G>
-3.533

> <E>
-29.008

> <-TS>
25.474

> <U+W>
-49.575

> <U>
11.216

> <W>
-60.791

> <W(PB)>
-63.164

> <W(SA)>
2.373

> <Valence>
9.147

> <Coulomb>
1.469

> <VdW>
0.600

> <VdW6>
-11.294

> <VdW12>
11.894

> <Bond>
0.253

> <Angle>
3.362

> <Pdih>
5.531

> <Idih>
0.001

> <Tether>
0.000

$$$$
VeraChem MOL file


 25 24  0  0  0  0  0  0  0  0999 V2000     
   20.3894   19.6522   26.8574 C   0  0  0  0  0  0  0  0  0  0  0  0
   21.4605   20.1501   26.5710 O   0  5  0  0  0  0  0  0  0  0  0  0
   20.1829   19.0529   27.8946 O   0  0  0  0  0  0  0  0  0  0  0  0
   19.2312   19.8111   25.8765 C   0  0  0  0  0  0  0  0  0  0  0  0
   19.4924   20.5858   25.1465 H   0  0  0  0  0  0  0  0  0  0  0  0
   18.3744   20.1943   26.4429 H   0  0  0  0  0  0  0  0  0  0  0  0
   18.8252   18.4963   25.1565 C   0  0  0  0  0  0  0  0  0  0  0  0
   18.5049   17.7660   25.9123 H   0  0  0  0  0  0  0  0  0  0  0  0
   17.9441   18.6841   24.5295 H   0  0  0  0  0  0  0  0  0  0  0  0
   19.9508   17.8604   24.3000 C   0  0  0  0  0  0  0  0  0  0  0  0
   19.5656   16.9418   23.8370 H   0  0  0  0  0  0  0  0  0  0  0  0
   20.7670   17.5435   24.9636 H   0  0  0  0  0  0  0  0  0  0  0  0
   20.5407   18.7705   23.1931 C   0  0  0  0  0  0  0  0  0  0  0  0
   21.0229   19.6463   23.6470 H   0  0  0  0  0  0  0  0  0  0  0  0
   21.3397   18.2118   22.6897 H   0  0  0  0  0  0  0  0  0  0  0  0
   19.4957   19.2294   22.1463 C   0  0  0  0  0  0  0  0  0  0  0  0
   18.7019   19.7958   22.6495 H   0  0  0  0  0  0  0  0  0  0  0  0
   19.0150   18.3520   21.6929 H   0  0  0  0  0  0  0  0  0  0  0  0
   20.0914   20.1260   21.0358 C   0  0  0  0  0  0  0  0  0  0  0  0
   19.2688   20.5186   20.4223 H   0  0  0  0  0  0  0  0  0  0  0  0
   20.5844   20.9978   21.4877 H   0  0  0  0  0  0  0  0  0  0  0  0
   21.0853   19.3851   20.1148 C   0  0  0  0  0  0  0  0  0  0  0  0
   21.9861   19.0781   20.6605 H   0  0  0  0  0  0  0  0  0  0  0  0
   20.6240   18.4895   19.6787 H   0  0  0  0  0  0  0  0  0  0  0  0
   21.4031   20.0367   19.2907 H   0  0  0  0  0  0  0  0  0  0  0  0
  1  2  1  0  0  0  0
  1  3  2  0  0  0  0
  1  4  1  0  0  0  0
  4  5  1  0  0  0  0
  4  6  1  0  0  0  0
  4  7  1  0  0  0  0
  7  8  1  0  0  0  0
  7  9  1  0  0  0  0
  7 10  1  0  0  0  0
 10 11  1  0  0  0  0
 10 12  1  0  0  0  0
 10 13  1  0  0  0  0
 13 14  1  0  0  0  0
 13 15  1  0  0  0  0
 13 16  1  0  0  0  0
 16 17  1  0  0  0  0
 16 18  1  0  0  0  0
 16 19  1  0  0  0  0
 19 20  1  0  0  0  0
 19 21  1  0  0  0  0
 19 22  1  0  0  0  0
 22 23  1  0  0  0  0
 22 24  1  0  0  0  0
 22 25  1  0  0  0  0
M  END
> <VM2 Rank>
95

> <Conf_Id>
505

> <Probability>
0.01

> <Sum Probability>
99.68

> <Delta G>
4.446

> <G>
-3.517

> <E>
-28.840

> <-TS>
25.324

> <U+W>
-49.408

> <U>
10.879

> <W>
-60.287

> <W(PB)>
-62.677

> <W(SA)>
2.390

> <Valence>
9.320

> <Coulomb>
0.828

> <VdW>
0.731

> <VdW6>
-11.182

> <VdW12>
11.912

> <Bond>
0.267

> <Angle>
3.459

> <Pdih>
5.593

> <Idih>
0.001

> <Tether>
0.000

$$$$
VeraChem MOL file


 25 24  0  0  0  0  0  0  0  0999 V2000     
   20.2956   19.1587   26.9808 C   0  0  0  0  0  0  0  0  0  0  0  0
   21.3963   19.6659   27.0732 O   0  5  0  0  0  0  0  0  0  0  0  0
   19.4210   19.2946   27.8140 O   0  0  0  0  0  0  0  0  0  0  0  0
   20.0026   18.2798   25.7682 C   0  0  0  0  0  0  0  0  0  0  0  0
   19.5875   17.3365   26.1414 H   0  0  0  0  0  0  0  0  0  0  0  0
   20.9507   18.0302   25.2784 H   0  0  0  0  0  0  0  0  0  0  0  0
   19.0122   18.9114   24.7522 C   0  0  0  0  0  0  0  0  0  0  0  0
   18.7980   18.1859   23.9567 H   0  0  0  0  0  0  0  0  0  0  0  0
   18.0551   19.0937   25.2599 H   0  0  0  0  0  0  0  0  0  0  0  0
   19.5026   20.2417   24.1247 C   0  0  0  0  0  0  0  0  0  0  0  0
   19.5994   20.9959   24.9176 H   0  0  0  0  0  0  0  0  0  0  0  0
   18.7262   20.6230   23.4487 H   0  0  0  0  0  0  0  0  0  0  0  0
   20.8503   20.1537   23.3614 C   0  0  0  0  0  0  0  0  0  0  0  0
   21.0813   21.1430   22.9438 H   0  0  0  0  0  0  0  0  0  0  0  0
   21.6561   19.9392   24.0761 H   0  0  0  0  0  0  0  0  0  0  0  0
   20.8979   19.1061   22.2207 C   0  0  0  0  0  0  0  0  0  0  0  0
   20.7590   18.0978   22.6318 H   0  0  0  0  0  0  0  0  0  0  0  0
   21.9044   19.1193   21.7810 H   0  0  0  0  0  0  0  0  0  0  0  0
   19.8599   19.3632   21.1053 C   0  0  0  0  0  0  0  0  0  0  0  0
   18.8430   19.2859   21.5123 H   0  0  0  0  0  0  0  0  0  0  0  0
   19.9748   20.3861   20.7211 H   0  0  0  0  0  0  0  0  0  0  0  0
   20.0146   18.3588   19.9455 C   0  0  0  0  0  0  0  0  0  0  0  0
   19.8763   17.3284   20.2982 H   0  0  0  0  0  0  0  0  0  0  0  0
   19.2687   18.5527   19.1639 H   0  0  0  0  0  0  0  0  0  0  0  0
   21.0105   18.4347   19.4899 H   0  0  0  0  0  0  0  0  0  0  0  0
  1  2  1  0  0  0  0
  1  3  2  0  0  0  0
  1  4  1  0  0  0  0
  4  5  1  0  0  0  0
  4  6  1  0  0  0  0
  4  7  1  0  0  0  0
  7  8  1  0  0  0  0
  7  9  1  0  0  0  0
  7 10  1  0  0  0  0
 10 11  1  0  0  0  0
 10 12  1  0  0  0  0
 10 13  1  0  0  0  0
 13 14  1  0  0  0  0
 13 15  1  0  0  0  0
 13 16  1  0  0  0  0
 16 17  1  0  0  0  0
 16 18  1  0  0  0  0
 16 19  1  0  0  0  0
 19 20  1  0  0  0  0
 19 21  1  0  0  0  0
 19 22  1  0  0  0  0
 22 23  1  0  0  0  0
 22 24  1  0  0  0  0
 22 25  1  0  0  0  0
M  END
> <VM2 Rank>
96

> <Conf_Id>
556

> <Probability>
0.01

> <Sum Probability>
99.69

> <Delta G>
4.467

> <G>
-3.495

> <E>
-29.059

> <-TS>
25.564

> <U+W>
-49.627

> <U>
10.242

> <W>
-59.869

> <W(PB)>
-62.253

> <W(SA)>
2.384

> <Valence>
9.192

> <Coulomb>
0.540

> <VdW>
0.509

> <VdW6>
-11.540

> <VdW12>
12.050

> <Bond>
0.268

> <Angle>
3.481

> <Pdih>
5.442

> <Idih>
0.001

> <Tether>
0.000

$$$$
VeraChem MOL file


 25 24  0  0  0  0  0  0  0  0999 V2000     
   19.8711   19.6191   26.8633 C   0  0  0  0  0  0  0  0  0  0  0  0
   20.1761   19.0527   27.8947 O   0  5  0  0  0  0  0  0  0  0  0  0
   18.7390   19.9760   26.6023 O   0  0  0  0  0  0  0  0  0  0  0  0
   20.9768   19.9228   25.8563 C   0  0  0  0  0  0  0  0  0  0  0  0
   21.7905   20.4128   26.4033 H   0  0  0  0  0  0  0  0  0  0  0  0
   20.6023   20.6568   25.1335 H   0  0  0  0  0  0  0  0  0  0  0  0
   21.5304   18.6693   25.1252 C   0  0  0  0  0  0  0  0  0  0  0  0
   22.3657   18.9668   24.4785 H   0  0  0  0  0  0  0  0  0  0  0  0
   21.9583   17.9869   25.8725 H   0  0  0  0  0  0  0  0  0  0  0  0
   20.4756   17.8938   24.2939 C   0  0  0  0  0  0  0  0  0  0  0  0
   19.7219   17.4765   24.9757 H   0  0  0  0  0  0  0  0  0  0  0  0
   20.9639   17.0311   23.8209 H   0  0  0  0  0  0  0  0  0  0  0  0
   19.7492   18.7197   23.2022 C   0  0  0  0  0  0  0  0  0  0  0  0
   19.0166   18.0629   22.7165 H   0  0  0  0  0  0  0  0  0  0  0  0
   19.1698   19.5276   23.6684 H   0  0  0  0  0  0  0  0  0  0  0  0
   20.7028   19.3064   22.1323 C   0  0  0  0  0  0  0  0  0  0  0  0
   21.2807   18.4967   21.6666 H   0  0  0  0  0  0  0  0  0  0  0  0
   21.4295   19.9700   22.6179 H   0  0  0  0  0  0  0  0  0  0  0  0
   19.9724   20.1185   21.0372 C   0  0  0  0  0  0  0  0  0  0  0  0
   19.3832   20.9212   21.5018 H   0  0  0  0  0  0  0  0  0  0  0  0
   20.7240   20.6115   20.4055 H   0  0  0  0  0  0  0  0  0  0  0  0
   19.0596   19.2558   20.1385 C   0  0  0  0  0  0  0  0  0  0  0  0
   18.2181   18.8376   20.7044 H   0  0  0  0  0  0  0  0  0  0  0  0
   18.6425   19.8606   19.3230 H   0  0  0  0  0  0  0  0  0  0  0  0
   19.6207   18.4255   19.6904 H   0  0  0  0  0  0  0  0  0  0  0  0
  1  2  1  0  0  0  0
  1  3  2  0  0  0  0
  1  4  1  0  0  0  0
  4  5  1  0  0  0  0
  4  6  1  0  0  0  0
  4  7  1  0  0  0  0
  7  8  1  0  0  0  0
  7  9  1  0  0  0  0
  7 10  1  0  0  0  0
 10 11  1  0  0  0  0
 10 12  1  0  0  0  0
 10 13  1  0  0  0  0
 13 14  1  0  0  0  0
 13 15  1  0  0  0  0
 13 16  1  0  0  0  0
 16 17  1  0  0  0  0
 16 18  1  0  0  0  0
 16 19  1  0  0  0  0
 19 20  1  0  0  0  0
 19 21  1  0  0  0  0
 19 22  1  0  0  0  0
 22 23  1  0  0  0  0
 22 24  1  0  0  0  0
 22 25  1  0  0  0  0
M  END
> <VM2 Rank>
97

> <Conf_Id>
517

> <Probability>
0.01

> <Sum Probability>
99.70

> <Delta G>
4.485

> <G>
-3.477

> <E>
-28.801

> <-TS>
25.324

> <U+W>
-49.369

> <U>
10.879

> <W>
-60.247

> <W(PB)>
-62.651

> <W(SA)>
2.404

> <Valence>
9.320

> <Coulomb>
0.828

> <VdW>
0.731

> <VdW6>
-11.182

> <VdW12>
11.912

> <Bond>
0.267

> <Angle>
3.459

> <Pdih>
5.593

> <Idih>
0.001

> <Tether>
0.000

$$$$
VeraChem MOL file


 25 24  0  0  0  0  0  0  0  0999 V2000     
   20.6479   18.9484   26.9302 C   0  0  0  0  0  0  0  0  0  0  0  0
   21.7496   19.4364   27.0881 O   0  5  0  0  0  0  0  0  0  0  0  0
   19.9920   18.4622   27.8303 O   0  0  0  0  0  0  0  0  0  0  0  0
   20.0454   18.9677   25.5301 C   0  0  0  0  0  0  0  0  0  0  0  0
   19.3970   18.0897   25.4256 H   0  0  0  0  0  0  0  0  0  0  0  0
   20.8680   18.8587   24.8143 H   0  0  0  0  0  0  0  0  0  0  0  0
   19.2461   20.2628   25.2386 C   0  0  0  0  0  0  0  0  0  0  0  0
   18.5209   20.4195   26.0491 H   0  0  0  0  0  0  0  0  0  0  0  0
   19.9296   21.1226   25.2673 H   0  0  0  0  0  0  0  0  0  0  0  0
   18.4820   20.2522   23.8905 C   0  0  0  0  0  0  0  0  0  0  0  0
   17.9293   21.1987   23.8163 H   0  0  0  0  0  0  0  0  0  0  0  0
   17.7194   19.4615   23.8957 H   0  0  0  0  0  0  0  0  0  0  0  0
   19.3855   20.1211   22.6380 C   0  0  0  0  0  0  0  0  0  0  0  0
   18.9563   20.7333   21.8333 H   0  0  0  0  0  0  0  0  0  0  0  0
   20.3752   20.5453   22.8506 H   0  0  0  0  0  0  0  0  0  0  0  0
   19.5079   18.6652   22.1216 C   0  0  0  0  0  0  0  0  0  0  0  0
   18.5011   18.2776   21.9152 H   0  0  0  0  0  0  0  0  0  0  0  0
   19.9331   18.0148   22.8949 H   0  0  0  0  0  0  0  0  0  0  0  0
   20.3522   18.5418   20.8321 C   0  0  0  0  0  0  0  0  0  0  0  0
   20.2719   17.5126   20.4558 H   0  0  0  0  0  0  0  0  0  0  0  0
   19.9352   19.1914   20.0502 H   0  0  0  0  0  0  0  0  0  0  0  0
   21.8445   18.8762   21.0465 C   0  0  0  0  0  0  0  0  0  0  0  0
   21.9851   19.9311   21.3128 H   0  0  0  0  0  0  0  0  0  0  0  0
   22.2743   18.2590   21.8462 H   0  0  0  0  0  0  0  0  0  0  0  0
   22.4160   18.6865   20.1288 H   0  0  0  0  0  0  0  0  0  0  0  0
  1  2  1  0  0  0  0
  1  3  2  0  0  0  0
  1  4  1  0  0  0  0
  4  5  1  0  0  0  0
  4  6  1  0  0  0  0
  4  7  1  0  0  0  0
  7  8  1  0  0  0  0
  7  9  1  0  0  0  0
  7 10  1  0  0  0  0
 10 11  1  0  0  0  0
 10 12  1  0  0  0  0
 10 13  1  0  0  0  0
 13 14  1  0  0  0  0
 13 15  1  0  0  0  0
 13 16  1  0  0  0  0
 16 17  1  0  0  0  0
 16 18  1  0  0  0  0
 16 19  1  0  0  0  0
 19 20  1  0  0  0  0
 19 21  1  0  0  0  0
 19 22  1  0  0  0  0
 22 23  1  0  0  0  0
 22 24  1  0  0  0  0
 22 25  1  0  0  0  0
M  END
> <VM2 Rank>
98

> <Conf_Id>
249

> <Probability>
0.01

> <Sum Probability>
99.72

> <Delta G>
4.495

> <G>
-3.467

> <E>
-28.325

> <-TS>
24.858

> <U+W>
-48.892

> <U>
11.037

> <W>
-59.929

> <W(PB)>
-62.331

> <W(SA)>
2.401

> <Valence>
11.015

> <Coulomb>
-0.980

> <VdW>
1.002

> <VdW6>
-10.121

> <VdW12>
11.123

> <Bond>
0.236

> <Angle>
3.218

> <Pdih>
7.560

> <Idih>
0.001

> <Tether>
0.000

$$$$
VeraChem MOL file


 25 24  0  0  0  0  0  0  0  0999 V2000     
   19.9695   19.2195   26.9870 C   0  0  0  0  0  0  0  0  0  0  0  0
   20.6704   18.5410   27.7121 O   0  5  0  0  0  0  0  0  0  0  0  0
   18.7660   19.0795   26.8924 O   0  0  0  0  0  0  0  0  0  0  0  0
   20.6354   20.3262   26.1741 C   0  0  0  0  0  0  0  0  0  0  0  0
   21.2551   20.9093   26.8652 H   0  0  0  0  0  0  0  0  0  0  0  0
   19.8597   21.0069   25.8058 H   0  0  0  0  0  0  0  0  0  0  0  0
   21.5178   19.8118   25.0037 C   0  0  0  0  0  0  0  0  0  0  0  0
   21.9998   20.6676   24.5122 H   0  0  0  0  0  0  0  0  0  0  0  0
   22.3296   19.1993   25.4199 H   0  0  0  0  0  0  0  0  0  0  0  0
   20.7595   18.9760   23.9430 C   0  0  0  0  0  0  0  0  0  0  0  0
   20.3010   18.0985   24.4191 H   0  0  0  0  0  0  0  0  0  0  0  0
   21.4965   18.5911   23.2270 H   0  0  0  0  0  0  0  0  0  0  0  0
   19.6765   19.7804   23.1830 C   0  0  0  0  0  0  0  0  0  0  0  0
   18.9341   20.1544   23.8996 H   0  0  0  0  0  0  0  0  0  0  0  0
   20.1279   20.6666   22.7186 H   0  0  0  0  0  0  0  0  0  0  0  0
   18.9226   18.9478   22.1151 C   0  0  0  0  0  0  0  0  0  0  0  0
   18.1323   19.5729   21.6776 H   0  0  0  0  0  0  0  0  0  0  0  0
   18.4080   18.1148   22.6133 H   0  0  0  0  0  0  0  0  0  0  0  0
   19.7983   18.3803   20.9702 C   0  0  0  0  0  0  0  0  0  0  0  0
   20.5236   17.6588   21.3685 H   0  0  0  0  0  0  0  0  0  0  0  0
   19.1528   17.8130   20.2859 H   0  0  0  0  0  0  0  0  0  0  0  0
   20.5370   19.4714   20.1653 C   0  0  0  0  0  0  0  0  0  0  0  0
   19.8323   20.2185   19.7775 H   0  0  0  0  0  0  0  0  0  0  0  0
   21.2814   19.9877   20.7844 H   0  0  0  0  0  0  0  0  0  0  0  0
   21.0647   19.0279   19.3112 H   0  0  0  0  0  0  0  0  0  0  0  0
  1  2  1  0  0  0  0
  1  3  2  0  0  0  0
  1  4  1  0  0  0  0
  4  5  1  0  0  0  0
  4  6  1  0  0  0  0
  4  7  1  0  0  0  0
  7  8  1  0  0  0  0
  7  9  1  0  0  0  0
  7 10  1  0  0  0  0
 10 11  1  0  0  0  0
 10 12  1  0  0  0  0
 10 13  1  0  0  0  0
 13 14  1  0  0  0  0
 13 15  1  0  0  0  0
 13 16  1  0  0  0  0
 16 17  1  0  0  0  0
 16 18  1  0  0  0  0
 16 19  1  0  0  0  0
 19 20  1  0  0  0  0
 19 21  1  0  0  0  0
 19 22  1  0  0  0  0
 22 23  1  0  0  0  0
 22 24  1  0  0  0  0
 22 25  1  0  0  0  0
M  END
> <VM2 Rank>
99

> <Conf_Id>
1112

> <Probability>
0.01

> <Sum Probability>
99.73

> <Delta G>
4.507

> <G>
-3.456

> <E>
-28.659

> <-TS>
25.203

> <U+W>
-49.226

> <U>
11.036

> <W>
-60.263

> <W(PB)>
-62.659

> <W(SA)>
2.396

> <Valence>
9.325

> <Coulomb>
0.929

> <VdW>
0.783

> <VdW6>
-11.027

> <VdW12>
11.810

> <Bond>
0.268

> <Angle>
3.515

> <Pdih>
5.540

> <Idih>
0.001

> <Tether>
0.000

$$$$
VeraChem MOL file


 25 24  0  0  0  0  0  0  0  0999 V2000     
   19.9506   19.6605   26.8831 C   0  0  0  0  0  0  0  0  0  0  0  0
   20.8697   20.4132   27.1406 O   0  5  0  0  0  0  0  0  0  0  0  0
   18.7813   19.9882   26.9339 O   0  0  0  0  0  0  0  0  0  0  0  0
   20.2770   18.2083   26.5399 C   0  0  0  0  0  0  0  0  0  0  0  0
   19.3404   17.6582   26.3883 H   0  0  0  0  0  0  0  0  0  0  0  0
   20.7506   17.7810   27.4313 H   0  0  0  0  0  0  0  0  0  0  0  0
   21.2222   18.0101   25.3213 C   0  0  0  0  0  0  0  0  0  0  0  0
   22.0519   18.7291   25.3690 H   0  0  0  0  0  0  0  0  0  0  0  0
   21.6802   17.0155   25.4076 H   0  0  0  0  0  0  0  0  0  0  0  0
   20.5291   18.0897   23.9381 C   0  0  0  0  0  0  0  0  0  0  0  0
   19.7014   17.3687   23.8977 H   0  0  0  0  0  0  0  0  0  0  0  0
   21.2566   17.7670   23.1831 H   0  0  0  0  0  0  0  0  0  0  0  0
   20.0073   19.5012   23.5752 C   0  0  0  0  0  0  0  0  0  0  0  0
   19.2316   19.7951   24.2927 H   0  0  0  0  0  0  0  0  0  0  0  0
   20.8180   20.2360   23.6733 H   0  0  0  0  0  0  0  0  0  0  0  0
   19.3944   19.5879   22.1566 C   0  0  0  0  0  0  0  0  0  0  0  0
   18.9025   20.5646   22.0520 H   0  0  0  0  0  0  0  0  0  0  0  0
   18.6058   18.8307   22.0491 H   0  0  0  0  0  0  0  0  0  0  0  0
   20.4314   19.4289   21.0214 C   0  0  0  0  0  0  0  0  0  0  0  0
   21.2481   20.1504   21.1620 H   0  0  0  0  0  0  0  0  0  0  0  0
   20.8796   18.4275   21.0530 H   0  0  0  0  0  0  0  0  0  0  0  0
   19.7901   19.6458   19.6359 C   0  0  0  0  0  0  0  0  0  0  0  0
   19.3650   20.6547   19.5527 H   0  0  0  0  0  0  0  0  0  0  0  0
   20.5375   19.5268   18.8407 H   0  0  0  0  0  0  0  0  0  0  0  0
   18.9865   18.9193   19.4574 H   0  0  0  0  0  0  0  0  0  0  0  0
  1  2  1  0  0  0  0
  1  3  2  0  0  0  0
  1  4  1  0  0  0  0
  4  5  1  0  0  0  0
  4  6  1  0  0  0  0
  4  7  1  0  0  0  0
  7  8  1  0  0  0  0
  7  9  1  0  0  0  0
  7 10  1  0  0  0  0
 10 11  1  0  0  0  0
 10 12  1  0  0  0  0
 10 13  1  0  0  0  0
 13 14  1  0  0  0  0
 13 15  1  0  0  0  0
 13 16  1  0  0  0  0
 16 17  1  0  0  0  0
 16 18  1  0  0  0  0
 16 19  1  0  0  0  0
 19 20  1  0  0  0  0
 19 21  1  0  0  0  0
 19 22  1  0  0  0  0
 22 23  1  0  0  0  0
 22 24  1  0  0  0  0
 22 25  1  0  0  0  0
M  END
> <VM2 Rank>
100

> <Conf_Id>
726

> <Probability>
0.01

> <Sum Probability>
99.74

> <Delta G>
4.582

> <G>
-3.380

> <E>
-28.383

> <-TS>
25.003

> <U+W>
-48.951

> <U>
11.422

> <W>
-60.373

> <W(PB)>
-62.797

> <W(SA)>
2.424

> <Valence>
10.135

> <Coulomb>
0.369

> <VdW>
0.918

> <VdW6>
-10.482

> <VdW12>
11.400

> <Bond>
0.245

> <Angle>
3.539

> <Pdih>
6.346

> <Idih>
0.006

> <Tether>
0.000

$$$$
VeraChem MOL file


 25 24  0  0  0  0  0  0  0  0999 V2000     
   19.8607   19.7003   26.7430 C   0  0  0  0  0  0  0  0  0  0  0  0
   20.8523   20.1954   27.2425 O   0  5  0  0  0  0  0  0  0  0  0  0
   18.8330   20.3167   26.5406 O   0  0  0  0  0  0  0  0  0  0  0  0
   19.8830   18.2092   26.4126 C   0  0  0  0  0  0  0  0  0  0  0  0
   18.9009   17.9164   26.0218 H   0  0  0  0  0  0  0  0  0  0  0  0
   20.0108   17.6836   27.3659 H   0  0  0  0  0  0  0  0  0  0  0  0
   21.0060   17.7635   25.4342 C   0  0  0  0  0  0  0  0  0  0  0  0
   21.9601   18.2253   25.7239 H   0  0  0  0  0  0  0  0  0  0  0  0
   21.1473   16.6805   25.5503 H   0  0  0  0  0  0  0  0  0  0  0  0
   20.7119   18.0438   23.9396 C   0  0  0  0  0  0  0  0  0  0  0  0
   19.7639   17.5654   23.6609 H   0  0  0  0  0  0  0  0  0  0  0  0
   21.4932   17.5582   23.3392 H   0  0  0  0  0  0  0  0  0  0  0  0
   20.6703   19.5484   23.5793 C   0  0  0  0  0  0  0  0  0  0  0  0
   19.7854   20.0174   24.0281 H   0  0  0  0  0  0  0  0  0  0  0  0
   21.5454   20.0477   24.0171 H   0  0  0  0  0  0  0  0  0  0  0  0
   20.6613   19.8135   22.0549 C   0  0  0  0  0  0  0  0  0  0  0  0
   21.5552   19.3674   21.5981 H   0  0  0  0  0  0  0  0  0  0  0  0
   20.7358   20.8970   21.8893 H   0  0  0  0  0  0  0  0  0  0  0  0
   19.3942   19.2825   21.3471 C   0  0  0  0  0  0  0  0  0  0  0  0
   19.3397   18.1898   21.4403 H   0  0  0  0  0  0  0  0  0  0  0  0
   18.4988   19.6910   21.8357 H   0  0  0  0  0  0  0  0  0  0  0  0
   19.3803   19.6607   19.8522 C   0  0  0  0  0  0  0  0  0  0  0  0
   20.2519   19.2410   19.3332 H   0  0  0  0  0  0  0  0  0  0  0  0
   18.4764   19.2742   19.3639 H   0  0  0  0  0  0  0  0  0  0  0  0
   19.3958   20.7508   19.7222 H   0  0  0  0  0  0  0  0  0  0  0  0
  1  2  1  0  0  0  0
  1  3  2  0  0  0  0
  1  4  1  0  0  0  0
  4  5  1  0  0  0  0
  4  6  1  0  0  0  0
  4  7  1  0  0  0  0
  7  8  1  0  0  0  0
  7  9  1  0  0  0  0
  7 10  1  0  0  0  0
 10 11  1  0  0  0  0
 10 12  1  0  0  0  0
 10 13  1  0  0  0  0
 13 14  1  0  0  0  0
 13 15  1  0  0  0  0
 13 16  1  0  0  0  0
 16 17  1  0  0  0  0
 16 18  1  0  0  0  0
 16 19  1  0  0  0  0
 19 20  1  0  0  0  0
 19 21  1  0  0  0  0
 19 22  1  0  0  0  0
 22 23  1  0  0  0  0
 22 24  1  0  0  0  0
 22 25  1  0  0  0  0
M  END
> <VM2 Rank>
101

> <Conf_Id>
272

> <Probability>
0.01

> <Sum Probability>
99.75

> <Delta G>
4.595

> <G>
-3.367

> <E>
-28.554

> <-TS>
25.187

> <U+W>
-49.121

> <U>
11.400

> <W>
-60.522

> <W(PB)>
-62.946

> <W(SA)>
2.424

> <Valence>
9.920

> <Coulomb>
0.704

> <VdW>
0.777

> <VdW6>
-10.716

> <VdW12>
11.493

> <Bond>
0.235

> <Angle>
3.375

> <Pdih>
6.305

> <Idih>
0.006

> <Tether>
0.000

$$$$
VeraChem MOL file


 25 24  0  0  0  0  0  0  0  0999 V2000     
   20.3865   19.7340   26.7370 C   0  0  0  0  0  0  0  0  0  0  0  0
   21.3225   20.4760   26.5119 O   0  5  0  0  0  0  0  0  0  0  0  0
   19.3517   20.0994   27.2597 O   0  0  0  0  0  0  0  0  0  0  0  0
   20.5470   18.2517   26.4049 C   0  0  0  0  0  0  0  0  0  0  0  0
   20.5092   17.7156   27.3602 H   0  0  0  0  0  0  0  0  0  0  0  0
   21.5491   18.0859   25.9912 H   0  0  0  0  0  0  0  0  0  0  0  0
   19.4677   17.6650   25.4520 C   0  0  0  0  0  0  0  0  0  0  0  0
   19.4683   16.5730   25.5697 H   0  0  0  0  0  0  0  0  0  0  0  0
   18.4695   18.0019   25.7643 H   0  0  0  0  0  0  0  0  0  0  0  0
   19.6891   17.9784   23.9514 C   0  0  0  0  0  0  0  0  0  0  0  0
   18.9624   17.3964   23.3684 H   0  0  0  0  0  0  0  0  0  0  0  0
   20.6837   17.6242   23.6503 H   0  0  0  0  0  0  0  0  0  0  0  0
   19.5305   19.4755   23.5925 C   0  0  0  0  0  0  0  0  0  0  0  0
   18.6092   19.8599   24.0511 H   0  0  0  0  0  0  0  0  0  0  0  0
   20.3586   20.0540   24.0215 H   0  0  0  0  0  0  0  0  0  0  0  0
   19.4705   19.7374   22.0687 C   0  0  0  0  0  0  0  0  0  0  0  0
   19.2548   20.8023   21.9065 H   0  0  0  0  0  0  0  0  0  0  0  0
   18.6303   19.1804   21.6320 H   0  0  0  0  0  0  0  0  0  0  0  0
   20.7781   19.3710   21.3311 C   0  0  0  0  0  0  0  0  0  0  0  0
   21.6253   19.8909   21.7994 H   0  0  0  0  0  0  0  0  0  0  0  0
   20.9735   18.2943   21.4213 H   0  0  0  0  0  0  0  0  0  0  0  0
   20.7092   19.7457   19.8368 C   0  0  0  0  0  0  0  0  0  0  0  0
   19.8864   19.2177   19.3374 H   0  0  0  0  0  0  0  0  0  0  0  0
   20.5521   20.8248   19.7089 H   0  0  0  0  0  0  0  0  0  0  0  0
   21.6436   19.4768   19.3272 H   0  0  0  0  0  0  0  0  0  0  0  0
  1  2  1  0  0  0  0
  1  3  2  0  0  0  0
  1  4  1  0  0  0  0
  4  5  1  0  0  0  0
  4  6  1  0  0  0  0
  4  7  1  0  0  0  0
  7  8  1  0  0  0  0
  7  9  1  0  0  0  0
  7 10  1  0  0  0  0
 10 11  1  0  0  0  0
 10 12  1  0  0  0  0
 10 13  1  0  0  0  0
 13 14  1  0  0  0  0
 13 15  1  0  0  0  0
 13 16  1  0  0  0  0
 16 17  1  0  0  0  0
 16 18  1  0  0  0  0
 16 19  1  0  0  0  0
 19 20  1  0  0  0  0
 19 21  1  0  0  0  0
 19 22  1  0  0  0  0
 22 23  1  0  0  0  0
 22 24  1  0  0  0  0
 22 25  1  0  0  0  0
M  END
> <VM2 Rank>
102

> <Conf_Id>
269

> <Probability>
0.01

> <Sum Probability>
99.76

> <Delta G>
4.640

> <G>
-3.323

> <E>
-28.509

> <-TS>
25.187

> <U+W>
-49.077

> <U>
11.400

> <W>
-60.477

> <W(PB)>
-62.900

> <W(SA)>
2.422

> <Valence>
9.920

> <Coulomb>
0.704

> <VdW>
0.777

> <VdW6>
-10.716

> <VdW12>
11.493

> <Bond>
0.235

> <Angle>
3.375

> <Pdih>
6.304

> <Idih>
0.006

> <Tether>
0.000

$$$$
VeraChem MOL file


 25 24  0  0  0  0  0  0  0  0999 V2000     
   19.7416   19.0500   27.1272 C   0  0  0  0  0  0  0  0  0  0  0  0
   20.4431   18.5308   27.9729 O   0  5  0  0  0  0  0  0  0  0  0  0
   18.7172   19.6528   27.3801 O   0  0  0  0  0  0  0  0  0  0  0  0
   20.1834   18.9595   25.6711 C   0  0  0  0  0  0  0  0  0  0  0  0
   19.2799   18.9148   25.0526 H   0  0  0  0  0  0  0  0  0  0  0  0
   20.7231   18.0145   25.5370 H   0  0  0  0  0  0  0  0  0  0  0  0
   21.0742   20.1517   25.2392 C   0  0  0  0  0  0  0  0  0  0  0  0
   20.4947   21.0820   25.3162 H   0  0  0  0  0  0  0  0  0  0  0  0
   21.9047   20.2472   25.9524 H   0  0  0  0  0  0  0  0  0  0  0  0
   21.6633   20.0243   23.8117 C   0  0  0  0  0  0  0  0  0  0  0  0
   22.3231   19.1479   23.7518 H   0  0  0  0  0  0  0  0  0  0  0  0
   22.3094   20.8963   23.6413 H   0  0  0  0  0  0  0  0  0  0  0  0
   20.6050   19.9784   22.6804 C   0  0  0  0  0  0  0  0  0  0  0  0
   19.6932   20.5037   22.9956 H   0  0  0  0  0  0  0  0  0  0  0  0
   20.9989   20.5363   21.8208 H   0  0  0  0  0  0  0  0  0  0  0  0
   20.2667   18.5389   22.2189 C   0  0  0  0  0  0  0  0  0  0  0  0
   19.9909   17.9250   23.0843 H   0  0  0  0  0  0  0  0  0  0  0  0
   21.1627   18.0726   21.7873 H   0  0  0  0  0  0  0  0  0  0  0  0
   19.1113   18.4799   21.1927 C   0  0  0  0  0  0  0  0  0  0  0  0
   18.8659   17.4267   20.9983 H   0  0  0  0  0  0  0  0  0  0  0  0
   18.2088   18.9339   21.6249 H   0  0  0  0  0  0  0  0  0  0  0  0
   19.4473   19.1679   19.8517 C   0  0  0  0  0  0  0  0  0  0  0  0
   20.3642   18.7510   19.4152 H   0  0  0  0  0  0  0  0  0  0  0  0
   18.6328   19.0216   19.1306 H   0  0  0  0  0  0  0  0  0  0  0  0
   19.5869   20.2485   19.9801 H   0  0  0  0  0  0  0  0  0  0  0  0
  1  2  1  0  0  0  0
  1  3  2  0  0  0  0
  1  4  1  0  0  0  0
  4  5  1  0  0  0  0
  4  6  1  0  0  0  0
  4  7  1  0  0  0  0
  7  8  1  0  0  0  0
  7  9  1  0  0  0  0
  7 10  1  0  0  0  0
 10 11  1  0  0  0  0
 10 12  1  0  0  0  0
 10 13  1  0  0  0  0
 13 14  1  0  0  0  0
 13 15  1  0  0  0  0
 13 16  1  0  0  0  0
 16 17  1  0  0  0  0
 16 18  1  0  0  0  0
 16 19  1  0  0  0  0
 19 20  1  0  0  0  0
 19 21  1  0  0  0  0
 19 22  1  0  0  0  0
 22 23  1  0  0  0  0
 22 24  1  0  0  0  0
 22 25  1  0  0  0  0
M  END
> <VM2 Rank>
103

> <Conf_Id>
550

> <Probability>
0.01

> <Sum Probability>
99.77

> <Delta G>
4.642

> <G>
-3.320

> <E>
-28.241

> <-TS>
24.920

> <U+W>
-48.808

> <U>
10.710

> <W>
-59.518

> <W(PB)>
-61.960

> <W(SA)>
2.442

> <Valence>
11.065

> <Coulomb>
-1.442

> <VdW>
1.087

> <VdW6>
-9.993

> <VdW12>
11.080

> <Bond>
0.233

> <Angle>
3.172

> <Pdih>
7.659

> <Idih>
0.001

> <Tether>
0.000

$$$$
VeraChem MOL file


 25 24  0  0  0  0  0  0  0  0999 V2000     
   20.3247   19.7464   27.2297 C   0  0  0  0  0  0  0  0  0  0  0  0
   21.3804   19.6072   27.8152 O   0  5  0  0  0  0  0  0  0  0  0  0
   19.2624   19.9276   27.7913 O   0  0  0  0  0  0  0  0  0  0  0  0
   20.3300   19.6660   25.7073 C   0  0  0  0  0  0  0  0  0  0  0  0
   21.2907   20.0550   25.3496 H   0  0  0  0  0  0  0  0  0  0  0  0
   19.5484   20.3379   25.3357 H   0  0  0  0  0  0  0  0  0  0  0  0
   20.1080   18.2237   25.1821 C   0  0  0  0  0  0  0  0  0  0  0  0
   20.8514   17.5616   25.6473 H   0  0  0  0  0  0  0  0  0  0  0  0
   19.1231   17.8610   25.5071 H   0  0  0  0  0  0  0  0  0  0  0  0
   20.2307   18.1029   23.6445 C   0  0  0  0  0  0  0  0  0  0  0  0
   20.1954   17.0382   23.3766 H   0  0  0  0  0  0  0  0  0  0  0  0
   21.2171   18.4643   23.3307 H   0  0  0  0  0  0  0  0  0  0  0  0
   19.1086   18.8477   22.8788 C   0  0  0  0  0  0  0  0  0  0  0  0
   18.1418   18.4604   23.2281 H   0  0  0  0  0  0  0  0  0  0  0  0
   19.1147   19.9186   23.1184 H   0  0  0  0  0  0  0  0  0  0  0  0
   19.1868   18.6590   21.3422 C   0  0  0  0  0  0  0  0  0  0  0  0
   18.1612   18.6093   20.9517 H   0  0  0  0  0  0  0  0  0  0  0  0
   19.6455   17.6909   21.0989 H   0  0  0  0  0  0  0  0  0  0  0  0
   19.9172   19.7975   20.5876 C   0  0  0  0  0  0  0  0  0  0  0  0
   19.8484   19.6009   19.5088 H   0  0  0  0  0  0  0  0  0  0  0  0
   19.3941   20.7482   20.7603 H   0  0  0  0  0  0  0  0  0  0  0  0
   21.4041   19.9560   20.9674 C   0  0  0  0  0  0  0  0  0  0  0  0
   21.9394   19.0025   20.8709 H   0  0  0  0  0  0  0  0  0  0  0  0
   21.8924   20.6869   20.3101 H   0  0  0  0  0  0  0  0  0  0  0  0
   21.5126   20.3150   21.9984 H   0  0  0  0  0  0  0  0  0  0  0  0
  1  2  1  0  0  0  0
  1  3  2  0  0  0  0
  1  4  1  0  0  0  0
  4  5  1  0  0  0  0
  4  6  1  0  0  0  0
  4  7  1  0  0  0  0
  7  8  1  0  0  0  0
  7  9  1  0  0  0  0
  7 10  1  0  0  0  0
 10 11  1  0  0  0  0
 10 12  1  0  0  0  0
 10 13  1  0  0  0  0
 13 14  1  0  0  0  0
 13 15  1  0  0  0  0
 13 16  1  0  0  0  0
 16 17  1  0  0  0  0
 16 18  1  0  0  0  0
 16 19  1  0  0  0  0
 19 20  1  0  0  0  0
 19 21  1  0  0  0  0
 19 22  1  0  0  0  0
 22 23  1  0  0  0  0
 22 24  1  0  0  0  0
 22 25  1  0  0  0  0
M  END
> <VM2 Rank>
104

> <Conf_Id>
539

> <Probability>
0.01

> <Sum Probability>
99.79

> <Delta G>
4.654

> <G>
-3.308

> <E>
-28.119

> <-TS>
24.811

> <U+W>
-48.686

> <U>
10.664

> <W>
-59.350

> <W(PB)>
-61.760

> <W(SA)>
2.410

> <Valence>
11.013

> <Coulomb>
-1.402

> <VdW>
1.052

> <VdW6>
-9.992

> <VdW12>
11.045

> <Bond>
0.241

> <Angle>
3.228

> <Pdih>
7.544

> <Idih>
0.001

> <Tether>
0.000

$$$$
VeraChem MOL file


 25 24  0  0  0  0  0  0  0  0999 V2000     
   20.3233   18.9306   26.8934 C   0  0  0  0  0  0  0  0  0  0  0  0
   21.4692   19.2392   27.1566 O   0  5  0  0  0  0  0  0  0  0  0  0
   19.9022   17.7927   26.9649 O   0  0  0  0  0  0  0  0  0  0  0  0
   19.3426   20.0386   26.5142 C   0  0  0  0  0  0  0  0  0  0  0  0
   19.2643   20.6926   27.3903 H   0  0  0  0  0  0  0  0  0  0  0  0
   18.3495   19.5993   26.3611 H   0  0  0  0  0  0  0  0  0  0  0  0
   19.7504   20.8930   25.2808 C   0  0  0  0  0  0  0  0  0  0  0  0
   19.2127   21.8490   25.3397 H   0  0  0  0  0  0  0  0  0  0  0  0
   20.8188   21.1444   25.3349 H   0  0  0  0  0  0  0  0  0  0  0  0
   19.4239   20.2543   23.9077 C   0  0  0  0  0  0  0  0  0  0  0  0
   19.5982   21.0157   23.1374 H   0  0  0  0  0  0  0  0  0  0  0  0
   18.3550   20.0061   23.8606 H   0  0  0  0  0  0  0  0  0  0  0  0
   20.2647   18.9958   23.5824 C   0  0  0  0  0  0  0  0  0  0  0  0
   21.3342   19.2233   23.6878 H   0  0  0  0  0  0  0  0  0  0  0  0
   20.0391   18.2114   24.3149 H   0  0  0  0  0  0  0  0  0  0  0  0
   19.9917   18.4173   22.1731 C   0  0  0  0  0  0  0  0  0  0  0  0
   18.9171   18.2207   22.0574 H   0  0  0  0  0  0  0  0  0  0  0  0
   20.4948   17.4438   22.0959 H   0  0  0  0  0  0  0  0  0  0  0  0
   20.4849   19.3249   21.0230 C   0  0  0  0  0  0  0  0  0  0  0  0
   19.9369   20.2759   21.0272 H   0  0  0  0  0  0  0  0  0  0  0  0
   21.5466   19.5658   21.1707 H   0  0  0  0  0  0  0  0  0  0  0  0
   20.3001   18.6477   19.6500 C   0  0  0  0  0  0  0  0  0  0  0  0
   19.2423   18.4195   19.4642 H   0  0  0  0  0  0  0  0  0  0  0  0
   20.6517   19.3049   18.8441 H   0  0  0  0  0  0  0  0  0  0  0  0
   20.8682   17.7098   19.5942 H   0  0  0  0  0  0  0  0  0  0  0  0
  1  2  1  0  0  0  0
  1  3  2  0  0  0  0
  1  4  1  0  0  0  0
  4  5  1  0  0  0  0
  4  6  1  0  0  0  0
  4  7  1  0  0  0  0
  7  8  1  0  0  0  0
  7  9  1  0  0  0  0
  7 10  1  0  0  0  0
 10 11  1  0  0  0  0
 10 12  1  0  0  0  0
 10 13  1  0  0  0  0
 13 14  1  0  0  0  0
 13 15  1  0  0  0  0
 13 16  1  0  0  0  0
 16 17  1  0  0  0  0
 16 18  1  0  0  0  0
 16 19  1  0  0  0  0
 19 20  1  0  0  0  0
 19 21  1  0  0  0  0
 19 22  1  0  0  0  0
 22 23  1  0  0  0  0
 22 24  1  0  0  0  0
 22 25  1  0  0  0  0
M  END
> <VM2 Rank>
105

> <Conf_Id>
1049

> <Probability>
0.01

> <Sum Probability>
99.80

> <Delta G>
4.658

> <G>
-3.304

> <E>
-28.308

> <-TS>
25.004

> <U+W>
-48.875

> <U>
11.423

> <W>
-60.298

> <W(PB)>
-62.736

> <W(SA)>
2.438

> <Valence>
10.135

> <Coulomb>
0.370

> <VdW>
0.918

> <VdW6>
-10.483

> <VdW12>
11.400

> <Bond>
0.245

> <Angle>
3.539

> <Pdih>
6.346

> <Idih>
0.006

> <Tether>
0.000

$$$$
VeraChem MOL file


 25 24  0  0  0  0  0  0  0  0999 V2000     
   20.5961   19.1040   27.1175 C   0  0  0  0  0  0  0  0  0  0  0  0
   21.5418   19.8317   27.3478 O   0  5  0  0  0  0  0  0  0  0  0  0
   19.9852   18.5017   27.9782 O   0  0  0  0  0  0  0  0  0  0  0  0
   20.1361   18.9565   25.6717 C   0  0  0  0  0  0  0  0  0  0  0  0
   19.7171   17.9508   25.5485 H   0  0  0  0  0  0  0  0  0  0  0  0
   21.0237   19.0254   25.0326 H   0  0  0  0  0  0  0  0  0  0  0  0
   19.0923   20.0261   25.2621 C   0  0  0  0  0  0  0  0  0  0  0  0
   18.2729   20.0171   25.9943 H   0  0  0  0  0  0  0  0  0  0  0  0
   19.5514   21.0222   25.3271 H   0  0  0  0  0  0  0  0  0  0  0  0
   18.4913   19.8233   23.8483 C   0  0  0  0  0  0  0  0  0  0  0  0
   17.7365   20.6065   23.6941 H   0  0  0  0  0  0  0  0  0  0  0  0
   17.9462   18.8705   23.8023 H   0  0  0  0  0  0  0  0  0  0  0  0
   19.5206   19.9098   22.6929 C   0  0  0  0  0  0  0  0  0  0  0  0
   19.0397   20.4121   21.8434 H   0  0  0  0  0  0  0  0  0  0  0  0
   20.3657   20.5466   22.9877 H   0  0  0  0  0  0  0  0  0  0  0  0
   20.0274   18.5238   22.2217 C   0  0  0  0  0  0  0  0  0  0  0  0
   19.1877   17.9473   21.8104 H   0  0  0  0  0  0  0  0  0  0  0  0
   20.3986   17.9511   23.0796 H   0  0  0  0  0  0  0  0  0  0  0  0
   21.1569   18.6097   21.1689 C   0  0  0  0  0  0  0  0  0  0  0  0
   22.0044   19.1750   21.5805 H   0  0  0  0  0  0  0  0  0  0  0  0
   21.5290   17.5957   20.9676 H   0  0  0  0  0  0  0  0  0  0  0  0
   20.7054   19.2473   19.8369 C   0  0  0  0  0  0  0  0  0  0  0  0
   20.4333   20.3019   19.9698 H   0  0  0  0  0  0  0  0  0  0  0  0
   21.5149   19.2040   19.0969 H   0  0  0  0  0  0  0  0  0  0  0  0
   19.8387   18.7171   19.4213 H   0  0  0  0  0  0  0  0  0  0  0  0
  1  2  1  0  0  0  0
  1  3  2  0  0  0  0
  1  4  1  0  0  0  0
  4  5  1  0  0  0  0
  4  6  1  0  0  0  0
  4  7  1  0  0  0  0
  7  8  1  0  0  0  0
  7  9  1  0  0  0  0
  7 10  1  0  0  0  0
 10 11  1  0  0  0  0
 10 12  1  0  0  0  0
 10 13  1  0  0  0  0
 13 14  1  0  0  0  0
 13 15  1  0  0  0  0
 13 16  1  0  0  0  0
 16 17  1  0  0  0  0
 16 18  1  0  0  0  0
 16 19  1  0  0  0  0
 19 20  1  0  0  0  0
 19 21  1  0  0  0  0
 19 22  1  0  0  0  0
 22 23  1  0  0  0  0
 22 24  1  0  0  0  0
 22 25  1  0  0  0  0
M  END
> <VM2 Rank>
106

> <Conf_Id>
534

> <Probability>
0.01

> <Sum Probability>
99.81

> <Delta G>
4.661

> <G>
-3.301

> <E>
-28.221

> <-TS>
24.920

> <U+W>
-48.788

> <U>
10.710

> <W>
-59.498

> <W(PB)>
-61.911

> <W(SA)>
2.413

> <Valence>
11.065

> <Coulomb>
-1.442

> <VdW>
1.087

> <VdW6>
-9.992

> <VdW12>
11.079

> <Bond>
0.233

> <Angle>
3.173

> <Pdih>
7.658

> <Idih>
0.001

> <Tether>
0.000

$$$$
VeraChem MOL file


 25 24  0  0  0  0  0  0  0  0999 V2000     
   19.9751   19.5458   27.3778 C   0  0  0  0  0  0  0  0  0  0  0  0
   21.0424   19.6483   27.9496 O   0  5  0  0  0  0  0  0  0  0  0  0
   18.9290   19.2980   27.9445 O   0  0  0  0  0  0  0  0  0  0  0  0
   19.9506   19.7143   25.8629 C   0  0  0  0  0  0  0  0  0  0  0  0
   20.7203   20.4473   25.5962 H   0  0  0  0  0  0  0  0  0  0  0  0
   18.9811   20.1437   25.5839 H   0  0  0  0  0  0  0  0  0  0  0  0
   20.1821   18.3801   25.1070 C   0  0  0  0  0  0  0  0  0  0  0  0
   21.1731   17.9806   25.3631 H   0  0  0  0  0  0  0  0  0  0  0  0
   19.4493   17.6416   25.4606 H   0  0  0  0  0  0  0  0  0  0  0  0
   20.0522   18.5123   23.5710 C   0  0  0  0  0  0  0  0  0  0  0  0
   19.0513   18.8913   23.3275 H   0  0  0  0  0  0  0  0  0  0  0  0
   20.1304   17.5116   23.1249 H   0  0  0  0  0  0  0  0  0  0  0  0
   21.1261   19.4314   22.9429 C   0  0  0  0  0  0  0  0  0  0  0  0
   20.9595   20.4689   23.2607 H   0  0  0  0  0  0  0  0  0  0  0  0
   22.1126   19.1432   23.3308 H   0  0  0  0  0  0  0  0  0  0  0  0
   21.1788   19.3804   21.3951 C   0  0  0  0  0  0  0  0  0  0  0  0
   21.4286   18.3649   21.0587 H   0  0  0  0  0  0  0  0  0  0  0  0
   22.0156   20.0151   21.0731 H   0  0  0  0  0  0  0  0  0  0  0  0
   19.8956   19.8809   20.6858 C   0  0  0  0  0  0  0  0  0  0  0  0
   19.3848   20.6298   21.3066 H   0  0  0  0  0  0  0  0  0  0  0  0
   20.1859   20.3977   19.7607 H   0  0  0  0  0  0  0  0  0  0  0  0
   18.9210   18.7426   20.3094 C   0  0  0  0  0  0  0  0  0  0  0  0
   18.5665   18.1993   21.1925 H   0  0  0  0  0  0  0  0  0  0  0  0
   18.0422   19.1462   19.7903 H   0  0  0  0  0  0  0  0  0  0  0  0
   19.4045   18.0205   19.6387 H   0  0  0  0  0  0  0  0  0  0  0  0
  1  2  1  0  0  0  0
  1  3  2  0  0  0  0
  1  4  1  0  0  0  0
  4  5  1  0  0  0  0
  4  6  1  0  0  0  0
  4  7  1  0  0  0  0
  7  8  1  0  0  0  0
  7  9  1  0  0  0  0
  7 10  1  0  0  0  0
 10 11  1  0  0  0  0
 10 12  1  0  0  0  0
 10 13  1  0  0  0  0
 13 14  1  0  0  0  0
 13 15  1  0  0  0  0
 13 16  1  0  0  0  0
 16 17  1  0  0  0  0
 16 18  1  0  0  0  0
 16 19  1  0  0  0  0
 19 20  1  0  0  0  0
 19 21  1  0  0  0  0
 19 22  1  0  0  0  0
 22 23  1  0  0  0  0
 22 24  1  0  0  0  0
 22 25  1  0  0  0  0
M  END
> <VM2 Rank>
107

> <Conf_Id>
527

> <Probability>
0.01

> <Sum Probability>
99.81

> <Delta G>
4.698

> <G>
-3.264

> <E>
-28.120

> <-TS>
24.856

> <U+W>
-48.688

> <U>
10.438

> <W>
-59.126

> <W(PB)>
-61.576

> <W(SA)>
2.450

> <Valence>
10.999

> <Coulomb>
-1.665

> <VdW>
1.104

> <VdW6>
-9.904

> <VdW12>
11.008

> <Bond>
0.232

> <Angle>
3.215

> <Pdih>
7.552

> <Idih>
0.001

> <Tether>
0.000

$$$$
VeraChem MOL file


 25 24  0  0  0  0  0  0  0  0999 V2000     
   19.6479   19.4033   27.0392 C   0  0  0  0  0  0  0  0  0  0  0  0
   20.2132   19.3005   28.1100 O   0  5  0  0  0  0  0  0  0  0  0  0
   18.6455   20.0686   26.8681 O   0  0  0  0  0  0  0  0  0  0  0  0
   20.2412   18.6734   25.8396 C   0  0  0  0  0  0  0  0  0  0  0  0
   19.4159   18.3867   25.1807 H   0  0  0  0  0  0  0  0  0  0  0  0
   20.6985   17.7448   26.2014 H   0  0  0  0  0  0  0  0  0  0  0  0
   21.2939   19.5241   25.0809 C   0  0  0  0  0  0  0  0  0  0  0  0
   20.8531   20.4807   24.7679 H   0  0  0  0  0  0  0  0  0  0  0  0
   22.0976   19.7748   25.7870 H   0  0  0  0  0  0  0  0  0  0  0  0
   21.9152   18.7955   23.8621 C   0  0  0  0  0  0  0  0  0  0  0  0
   21.9284   17.7103   24.0325 H   0  0  0  0  0  0  0  0  0  0  0  0
   22.9685   19.0979   23.7843 H   0  0  0  0  0  0  0  0  0  0  0  0
   21.2390   19.1140   22.5049 C   0  0  0  0  0  0  0  0  0  0  0  0
   21.3165   20.1918   22.3105 H   0  0  0  0  0  0  0  0  0  0  0  0
   21.8092   18.6145   21.7099 H   0  0  0  0  0  0  0  0  0  0  0  0
   19.7590   18.6729   22.4135 C   0  0  0  0  0  0  0  0  0  0  0  0
   19.1469   19.2855   23.0882 H   0  0  0  0  0  0  0  0  0  0  0  0
   19.6716   17.6338   22.7585 H   0  0  0  0  0  0  0  0  0  0  0  0
   19.1796   18.7678   20.9829 C   0  0  0  0  0  0  0  0  0  0  0  0
   19.7729   18.1444   20.2998 H   0  0  0  0  0  0  0  0  0  0  0  0
   18.1648   18.3468   20.9845 H   0  0  0  0  0  0  0  0  0  0  0  0
   19.1184   20.2139   20.4449 C   0  0  0  0  0  0  0  0  0  0  0  0
   20.1230   20.6381   20.3231 H   0  0  0  0  0  0  0  0  0  0  0  0
   18.6257   20.2386   19.4644 H   0  0  0  0  0  0  0  0  0  0  0  0
   18.5509   20.8622   21.1252 H   0  0  0  0  0  0  0  0  0  0  0  0
  1  2  1  0  0  0  0
  1  3  2  0  0  0  0
  1  4  1  0  0  0  0
  4  5  1  0  0  0  0
  4  6  1  0  0  0  0
  4  7  1  0  0  0  0
  7  8  1  0  0  0  0
  7  9  1  0  0  0  0
  7 10  1  0  0  0  0
 10 11  1  0  0  0  0
 10 12  1  0  0  0  0
 10 13  1  0  0  0  0
 13 14  1  0  0  0  0
 13 15  1  0  0  0  0
 13 16  1  0  0  0  0
 16 17  1  0  0  0  0
 16 18  1  0  0  0  0
 16 19  1  0  0  0  0
 19 20  1  0  0  0  0
 19 21  1  0  0  0  0
 19 22  1  0  0  0  0
 22 23  1  0  0  0  0
 22 24  1  0  0  0  0
 22 25  1  0  0  0  0
M  END
> <VM2 Rank>
108

> <Conf_Id>
232

> <Probability>
0.01

> <Sum Probability>
99.82

> <Delta G>
4.706

> <G>
-3.256

> <E>
-28.165

> <-TS>
24.908

> <U+W>
-48.732

> <U>
10.997

> <W>
-59.729

> <W(PB)>
-62.151

> <W(SA)>
2.422

> <Valence>
10.985

> <Coulomb>
-0.994

> <VdW>
1.006

> <VdW6>
-10.062

> <VdW12>
11.068

> <Bond>
0.238

> <Angle>
3.202

> <Pdih>
7.544

> <Idih>
0.001

> <Tether>
0.000

$$$$
VeraChem MOL file


 25 24  0  0  0  0  0  0  0  0999 V2000     
   20.6423   19.4672   27.0276 C   0  0  0  0  0  0  0  0  0  0  0  0
   21.5475   20.2544   26.8344 O   0  5  0  0  0  0  0  0  0  0  0  0
   20.1193   19.2951   28.1110 O   0  0  0  0  0  0  0  0  0  0  0  0
   20.1195   18.6655   25.8411 C   0  0  0  0  0  0  0  0  0  0  0  0
   19.7928   17.6868   26.2122 H   0  0  0  0  0  0  0  0  0  0  0  0
   20.9592   18.4854   25.1630 H   0  0  0  0  0  0  0  0  0  0  0  0
   18.9496   19.3736   25.1079 C   0  0  0  0  0  0  0  0  0  0  0  0
   18.1369   19.5209   25.8327 H   0  0  0  0  0  0  0  0  0  0  0  0
   19.2574   20.3782   24.7862 H   0  0  0  0  0  0  0  0  0  0  0  0
   18.3986   18.5697   23.9027 C   0  0  0  0  0  0  0  0  0  0  0  0
   17.3138   18.7349   23.8497 H   0  0  0  0  0  0  0  0  0  0  0  0
   18.5281   17.4920   24.0718 H   0  0  0  0  0  0  0  0  0  0  0  0
   18.9971   18.9700   22.5308 C   0  0  0  0  0  0  0  0  0  0  0  0
   18.4773   18.4005   21.7484 H   0  0  0  0  0  0  0  0  0  0  0  0
   18.7780   20.0287   22.3398 H   0  0  0  0  0  0  0  0  0  0  0  0
   20.5188   18.7216   22.4048 C   0  0  0  0  0  0  0  0  0  0  0  0
   20.7463   17.7027   22.7461 H   0  0  0  0  0  0  0  0  0  0  0  0
   21.0630   19.4084   23.0662 H   0  0  0  0  0  0  0  0  0  0  0  0
   21.0483   18.8878   20.9613 C   0  0  0  0  0  0  0  0  0  0  0  0
   22.1084   18.5999   20.9390 H   0  0  0  0  0  0  0  0  0  0  0  0
   20.5240   18.1927   20.2912 H   0  0  0  0  0  0  0  0  0  0  0  0
   20.9119   20.3291   20.4244 C   0  0  0  0  0  0  0  0  0  0  0  0
   21.3747   20.4151   19.4328 H   0  0  0  0  0  0  0  0  0  0  0  0
   19.8589   20.6213   20.3264 H   0  0  0  0  0  0  0  0  0  0  0  0
   21.4076   21.0455   21.0924 H   0  0  0  0  0  0  0  0  0  0  0  0
  1  2  1  0  0  0  0
  1  3  2  0  0  0  0
  1  4  1  0  0  0  0
  4  5  1  0  0  0  0
  4  6  1  0  0  0  0
  4  7  1  0  0  0  0
  7  8  1  0  0  0  0
  7  9  1  0  0  0  0
  7 10  1  0  0  0  0
 10 11  1  0  0  0  0
 10 12  1  0  0  0  0
 10 13  1  0  0  0  0
 13 14  1  0  0  0  0
 13 15  1  0  0  0  0
 13 16  1  0  0  0  0
 16 17  1  0  0  0  0
 16 18  1  0  0  0  0
 16 19  1  0  0  0  0
 19 20  1  0  0  0  0
 19 21  1  0  0  0  0
 19 22  1  0  0  0  0
 22 23  1  0  0  0  0
 22 24  1  0  0  0  0
 22 25  1  0  0  0  0
M  END
> <VM2 Rank>
109

> <Conf_Id>
1080

> <Probability>
0.01

> <Sum Probability>
99.83

> <Delta G>
4.712

> <G>
-3.250

> <E>
-28.158

> <-TS>
24.908

> <U+W>
-48.726

> <U>
10.997

> <W>
-59.723

> <W(PB)>
-62.151

> <W(SA)>
2.428

> <Valence>
10.985

> <Coulomb>
-0.994

> <VdW>
1.006

> <VdW6>
-10.063

> <VdW12>
11.069

> <Bond>
0.238

> <Angle>
3.202

> <Pdih>
7.545

> <Idih>
0.001

> <Tether>
0.000

$$$$
VeraChem MOL file


 25 24  0  0  0  0  0  0  0  0999 V2000     
   20.1392   18.8943   27.2558 C   0  0  0  0  0  0  0  0  0  0  0  0
   21.1649   18.6172   27.8457 O   0  5  0  0  0  0  0  0  0  0  0  0
   19.1044   19.2028   27.8133 O   0  0  0  0  0  0  0  0  0  0  0  0
   20.1582   18.8757   25.7316 C   0  0  0  0  0  0  0  0  0  0  0  0
   19.1636   18.5683   25.3899 H   0  0  0  0  0  0  0  0  0  0  0  0
   20.8662   18.1027   25.4097 H   0  0  0  0  0  0  0  0  0  0  0  0
   20.5483   20.2464   25.1198 C   0  0  0  0  0  0  0  0  0  0  0  0
   19.8071   21.0036   25.4104 H   0  0  0  0  0  0  0  0  0  0  0  0
   21.5054   20.5662   25.5548 H   0  0  0  0  0  0  0  0  0  0  0  0
   20.6905   20.2149   23.5795 C   0  0  0  0  0  0  0  0  0  0  0  0
   21.4336   19.4587   23.3001 H   0  0  0  0  0  0  0  0  0  0  0  0
   21.0972   21.1804   23.2492 H   0  0  0  0  0  0  0  0  0  0  0  0
   19.3507   19.9599   22.8445 C   0  0  0  0  0  0  0  0  0  0  0  0
   18.9145   18.9994   23.1468 H   0  0  0  0  0  0  0  0  0  0  0  0
   18.6367   20.7337   23.1579 H   0  0  0  0  0  0  0  0  0  0  0  0
   19.4807   20.0082   21.3006 C   0  0  0  0  0  0  0  0  0  0  0  0
   20.2971   20.6820   21.0068 H   0  0  0  0  0  0  0  0  0  0  0  0
   18.5637   20.4566   20.8947 H   0  0  0  0  0  0  0  0  0  0  0  0
   19.6623   18.6269   20.6237 C   0  0  0  0  0  0  0  0  0  0  0  0
   18.7937   17.9916   20.8453 H   0  0  0  0  0  0  0  0  0  0  0  0
   19.6678   18.7705   19.5345 H   0  0  0  0  0  0  0  0  0  0  0  0
   20.9536   17.8876   21.0315 C   0  0  0  0  0  0  0  0  0  0  0  0
   21.0856   16.9824   20.4248 H   0  0  0  0  0  0  0  0  0  0  0  0
   21.8355   18.5249   20.8860 H   0  0  0  0  0  0  0  0  0  0  0  0
   20.9162   17.5774   22.0832 H   0  0  0  0  0  0  0  0  0  0  0  0
  1  2  1  0  0  0  0
  1  3  2  0  0  0  0
  1  4  1  0  0  0  0
  4  5  1  0  0  0  0
  4  6  1  0  0  0  0
  4  7  1  0  0  0  0
  7  8  1  0  0  0  0
  7  9  1  0  0  0  0
  7 10  1  0  0  0  0
 10 11  1  0  0  0  0
 10 12  1  0  0  0  0
 10 13  1  0  0  0  0
 13 14  1  0  0  0  0
 13 15  1  0  0  0  0
 13 16  1  0  0  0  0
 16 17  1  0  0  0  0
 16 18  1  0  0  0  0
 16 19  1  0  0  0  0
 19 20  1  0  0  0  0
 19 21  1  0  0  0  0
 19 22  1  0  0  0  0
 22 23  1  0  0  0  0
 22 24  1  0  0  0  0
 22 25  1  0  0  0  0
M  END
> <VM2 Rank>
110

> <Conf_Id>
234

> <Probability>
0.01

> <Sum Probability>
99.84

> <Delta G>
4.716

> <G>
-3.247

> <E>
-28.056

> <-TS>
24.810

> <U+W>
-48.624

> <U>
10.664

> <W>
-59.288

> <W(PB)>
-61.722

> <W(SA)>
2.435

> <Valence>
11.013

> <Coulomb>
-1.402

> <VdW>
1.052

> <VdW6>
-9.993

> <VdW12>
11.045

> <Bond>
0.241

> <Angle>
3.227

> <Pdih>
7.545

> <Idih>
0.001

> <Tether>
0.000

$$$$
VeraChem MOL file


 25 24  0  0  0  0  0  0  0  0999 V2000     
   20.7646   19.1364   26.4896 C   0  0  0  0  0  0  0  0  0  0  0  0
   21.7078   19.8863   26.3306 O   0  5  0  0  0  0  0  0  0  0  0  0
   20.8802   17.9359   26.6410 O   0  0  0  0  0  0  0  0  0  0  0  0
   19.3668   19.7466   26.5746 C   0  0  0  0  0  0  0  0  0  0  0  0
   19.4460   20.8353   26.4687 H   0  0  0  0  0  0  0  0  0  0  0  0
   19.0088   19.5557   27.5929 H   0  0  0  0  0  0  0  0  0  0  0  0
   18.3331   19.1806   25.5607 C   0  0  0  0  0  0  0  0  0  0  0  0
   18.4079   18.0849   25.5220 H   0  0  0  0  0  0  0  0  0  0  0  0
   17.3272   19.4011   25.9428 H   0  0  0  0  0  0  0  0  0  0  0  0
   18.4347   19.7704   24.1320 C   0  0  0  0  0  0  0  0  0  0  0  0
   18.3445   20.8643   24.1767 H   0  0  0  0  0  0  0  0  0  0  0  0
   17.5727   19.4129   23.5523 H   0  0  0  0  0  0  0  0  0  0  0  0
   19.7304   19.3860   23.3821 C   0  0  0  0  0  0  0  0  0  0  0  0
   20.5959   19.8495   23.8720 H   0  0  0  0  0  0  0  0  0  0  0  0
   19.8715   18.2988   23.4378 H   0  0  0  0  0  0  0  0  0  0  0  0
   19.6884   19.8386   21.9040 C   0  0  0  0  0  0  0  0  0  0  0  0
   19.4714   20.9149   21.8666 H   0  0  0  0  0  0  0  0  0  0  0  0
   18.8607   19.3357   21.3856 H   0  0  0  0  0  0  0  0  0  0  0  0
   21.0093   19.5770   21.1435 C   0  0  0  0  0  0  0  0  0  0  0  0
   20.9370   20.0292   20.1448 H   0  0  0  0  0  0  0  0  0  0  0  0
   21.8384   20.0851   21.6552 H   0  0  0  0  0  0  0  0  0  0  0  0
   21.3376   18.0762   20.9877 C   0  0  0  0  0  0  0  0  0  0  0  0
   20.5094   17.5406   20.5059 H   0  0  0  0  0  0  0  0  0  0  0  0
   22.2336   17.9415   20.3680 H   0  0  0  0  0  0  0  0  0  0  0  0
   21.5328   17.6064   21.9599 H   0  0  0  0  0  0  0  0  0  0  0  0
  1  2  1  0  0  0  0
  1  3  2  0  0  0  0
  1  4  1  0  0  0  0
  4  5  1  0  0  0  0
  4  6  1  0  0  0  0
  4  7  1  0  0  0  0
  7  8  1  0  0  0  0
  7  9  1  0  0  0  0
  7 10  1  0  0  0  0
 10 11  1  0  0  0  0
 10 12  1  0  0  0  0
 10 13  1  0  0  0  0
 13 14  1  0  0  0  0
 13 15  1  0  0  0  0
 13 16  1  0  0  0  0
 16 17  1  0  0  0  0
 16 18  1  0  0  0  0
 16 19  1  0  0  0  0
 19 20  1  0  0  0  0
 19 21  1  0  0  0  0
 19 22  1  0  0  0  0
 22 23  1  0  0  0  0
 22 24  1  0  0  0  0
 22 25  1  0  0  0  0
M  END
> <VM2 Rank>
111

> <Conf_Id>
528

> <Probability>
0.01

> <Sum Probability>
99.85

> <Delta G>
4.775

> <G>
-3.188

> <E>
-28.329

> <-TS>
25.141

> <U+W>
-48.897

> <U>
12.313

> <W>
-61.210

> <W(PB)>
-63.636

> <W(SA)>
2.427

> <Valence>
9.950

> <Coulomb>
1.612

> <VdW>
0.751

> <VdW6>
-10.687

> <VdW12>
11.438

> <Bond>
0.232

> <Angle>
3.418

> <Pdih>
6.293

> <Idih>
0.007

> <Tether>
0.000

$$$$
VeraChem MOL file


 25 24  0  0  0  0  0  0  0  0999 V2000     
   19.9894   19.8883   27.0284 C   0  0  0  0  0  0  0  0  0  0  0  0
   21.0405   20.1379   27.5850 O   0  5  0  0  0  0  0  0  0  0  0  0
   18.9128   19.8881   27.5922 O   0  0  0  0  0  0  0  0  0  0  0  0
   20.0259   19.5331   25.5465 C   0  0  0  0  0  0  0  0  0  0  0  0
   20.8399   20.1058   25.0883 H   0  0  0  0  0  0  0  0  0  0  0  0
   19.0872   19.8710   25.0916 H   0  0  0  0  0  0  0  0  0  0  0  0
   20.2270   18.0169   25.2975 C   0  0  0  0  0  0  0  0  0  0  0  0
   21.2065   17.7120   25.6908 H   0  0  0  0  0  0  0  0  0  0  0  0
   19.4767   17.4625   25.8781 H   0  0  0  0  0  0  0  0  0  0  0  0
   20.1080   17.5952   23.8114 C   0  0  0  0  0  0  0  0  0  0  0  0
   19.0967   17.8103   23.4451 H   0  0  0  0  0  0  0  0  0  0  0  0
   20.2130   16.5026   23.7686 H   0  0  0  0  0  0  0  0  0  0  0  0
   21.1802   18.2184   22.8782 C   0  0  0  0  0  0  0  0  0  0  0  0
   22.0891   18.4299   23.4578 H   0  0  0  0  0  0  0  0  0  0  0  0
   21.4757   17.4721   22.1281 H   0  0  0  0  0  0  0  0  0  0  0  0
   20.7307   19.5026   22.1357 C   0  0  0  0  0  0  0  0  0  0  0  0
   21.6177   19.9732   21.6902 H   0  0  0  0  0  0  0  0  0  0  0  0
   20.3189   20.2314   22.8437 H   0  0  0  0  0  0  0  0  0  0  0  0
   19.7013   19.2305   21.0148 C   0  0  0  0  0  0  0  0  0  0  0  0
   20.1104   18.4967   20.3068 H   0  0  0  0  0  0  0  0  0  0  0  0
   18.7867   18.7921   21.4341 H   0  0  0  0  0  0  0  0  0  0  0  0
   19.3371   20.5230   20.2564 C   0  0  0  0  0  0  0  0  0  0  0  0
   20.2253   20.9686   19.7897 H   0  0  0  0  0  0  0  0  0  0  0  0
   18.6069   20.3137   19.4640 H   0  0  0  0  0  0  0  0  0  0  0  0
   18.8973   21.2654   20.9352 H   0  0  0  0  0  0  0  0  0  0  0  0
  1  2  1  0  0  0  0
  1  3  2  0  0  0  0
  1  4  1  0  0  0  0
  4  5  1  0  0  0  0
  4  6  1  0  0  0  0
  4  7  1  0  0  0  0
  7  8  1  0  0  0  0
  7  9  1  0  0  0  0
  7 10  1  0  0  0  0
 10 11  1  0  0  0  0
 10 12  1  0  0  0  0
 10 13  1  0  0  0  0
 13 14  1  0  0  0  0
 13 15  1  0  0  0  0
 13 16  1  0  0  0  0
 16 17  1  0  0  0  0
 16 18  1  0  0  0  0
 16 19  1  0  0  0  0
 19 20  1  0  0  0  0
 19 21  1  0  0  0  0
 19 22  1  0  0  0  0
 22 23  1  0  0  0  0
 22 24  1  0  0  0  0
 22 25  1  0  0  0  0
M  END
> <VM2 Rank>
112

> <Conf_Id>
793

> <Probability>
0.01

> <Sum Probability>
99.86

> <Delta G>
4.780

> <G>
-3.183

> <E>
-28.034

> <-TS>
24.851

> <U+W>
-48.601

> <U>
10.987

> <W>
-59.588

> <W(PB)>
-62.018

> <W(SA)>
2.430

> <Valence>
11.268

> <Coulomb>
-1.344

> <VdW>
1.063

> <VdW6>
-9.930

> <VdW12>
10.993

> <Bond>
0.245

> <Angle>
3.252

> <Pdih>
7.770

> <Idih>
0.001

> <Tether>
0.000

$$$$
VeraChem MOL file


 25 24  0  0  0  0  0  0  0  0999 V2000     
   20.2856   19.3834   27.4308 C   0  0  0  0  0  0  0  0  0  0  0  0
   21.3735   19.8510   27.7038 O   0  5  0  0  0  0  0  0  0  0  0  0
   19.6243   18.7207   28.2055 O   0  0  0  0  0  0  0  0  0  0  0  0
   19.7297   19.6220   26.0314 C   0  0  0  0  0  0  0  0  0  0  0  0
   20.0737   20.6082   25.7001 H   0  0  0  0  0  0  0  0  0  0  0  0
   18.6364   19.6648   26.1024 H   0  0  0  0  0  0  0  0  0  0  0  0
   20.1580   18.5259   25.0213 C   0  0  0  0  0  0  0  0  0  0  0  0
   21.2525   18.5241   24.9242 H   0  0  0  0  0  0  0  0  0  0  0  0
   19.8814   17.5435   25.4284 H   0  0  0  0  0  0  0  0  0  0  0  0
   19.5108   18.6838   23.6248 C   0  0  0  0  0  0  0  0  0  0  0  0
   18.4170   18.6684   23.7243 H   0  0  0  0  0  0  0  0  0  0  0  0
   19.7741   17.8070   23.0214 H   0  0  0  0  0  0  0  0  0  0  0  0
   19.9450   19.9761   22.8892 C   0  0  0  0  0  0  0  0  0  0  0  0
   19.5621   20.8411   23.4460 H   0  0  0  0  0  0  0  0  0  0  0  0
   21.0396   20.0682   22.8918 H   0  0  0  0  0  0  0  0  0  0  0  0
   19.4084   20.0617   21.4376 C   0  0  0  0  0  0  0  0  0  0  0  0
   19.1551   21.1099   21.2281 H   0  0  0  0  0  0  0  0  0  0  0  0
   18.4669   19.5031   21.3457 H   0  0  0  0  0  0  0  0  0  0  0  0
   20.4107   19.5987   20.3513 C   0  0  0  0  0  0  0  0  0  0  0  0
   19.9636   19.7791   19.3640 H   0  0  0  0  0  0  0  0  0  0  0  0
   21.3155   20.2204   20.3969 H   0  0  0  0  0  0  0  0  0  0  0  0
   20.8069   18.1108   20.4502 C   0  0  0  0  0  0  0  0  0  0  0  0
   19.9183   17.4665   20.4610 H   0  0  0  0  0  0  0  0  0  0  0  0
   21.4256   17.8203   19.5914 H   0  0  0  0  0  0  0  0  0  0  0  0
   21.3901   17.9162   21.3590 H   0  0  0  0  0  0  0  0  0  0  0  0
  1  2  1  0  0  0  0
  1  3  2  0  0  0  0
  1  4  1  0  0  0  0
  4  5  1  0  0  0  0
  4  6  1  0  0  0  0
  4  7  1  0  0  0  0
  7  8  1  0  0  0  0
  7  9  1  0  0  0  0
  7 10  1  0  0  0  0
 10 11  1  0  0  0  0
 10 12  1  0  0  0  0
 10 13  1  0  0  0  0
 13 14  1  0  0  0  0
 13 15  1  0  0  0  0
 13 16  1  0  0  0  0
 16 17  1  0  0  0  0
 16 18  1  0  0  0  0
 16 19  1  0  0  0  0
 19 20  1  0  0  0  0
 19 21  1  0  0  0  0
 19 22  1  0  0  0  0
 22 23  1  0  0  0  0
 22 24  1  0  0  0  0
 22 25  1  0  0  0  0
M  END
> <VM2 Rank>
113

> <Conf_Id>
797

> <Probability>
0.01

> <Sum Probability>
99.87

> <Delta G>
4.780

> <G>
-3.182

> <E>
-28.064

> <-TS>
24.882

> <U+W>
-48.631

> <U>
10.553

> <W>
-59.184

> <W(PB)>
-61.625

> <W(SA)>
2.441

> <Valence>
11.068

> <Coulomb>
-1.642

> <VdW>
1.127

> <VdW6>
-9.884

> <VdW12>
11.011

> <Bond>
0.238

> <Angle>
3.177

> <Pdih>
7.653

> <Idih>
0.001

> <Tether>
0.000

$$$$
VeraChem MOL file


 25 24  0  0  0  0  0  0  0  0999 V2000     
   20.1755   19.9189   26.4843 C   0  0  0  0  0  0  0  0  0  0  0  0
   21.1580   20.6166   26.3258 O   0  5  0  0  0  0  0  0  0  0  0  0
   19.0527   20.3631   26.6247 O   0  0  0  0  0  0  0  0  0  0  0  0
   20.3748   18.4076   26.5837 C   0  0  0  0  0  0  0  0  0  0  0  0
   20.0856   18.1252   27.6026 H   0  0  0  0  0  0  0  0  0  0  0  0
   21.4436   18.1818   26.4868 H   0  0  0  0  0  0  0  0  0  0  0  0
   19.5517   17.5620   25.5715 C   0  0  0  0  0  0  0  0  0  0  0  0
   19.4830   16.5377   25.9621 H   0  0  0  0  0  0  0  0  0  0  0  0
   18.5197   17.9364   25.5228 H   0  0  0  0  0  0  0  0  0  0  0  0
   20.1560   17.4843   24.1475 C   0  0  0  0  0  0  0  0  0  0  0  0
   19.5780   16.7497   23.5702 H   0  0  0  0  0  0  0  0  0  0  0  0
   21.1820   17.0957   24.2022 H   0  0  0  0  0  0  0  0  0  0  0  0
   20.1497   18.8292   23.3859 C   0  0  0  0  0  0  0  0  0  0  0  0
   19.1434   19.2658   23.4312 H   0  0  0  0  0  0  0  0  0  0  0  0
   20.8311   19.5371   23.8741 H   0  0  0  0  0  0  0  0  0  0  0  0
   20.5827   18.6510   21.9120 C   0  0  0  0  0  0  0  0  0  0  0  0
   19.8740   17.9901   21.3946 H   0  0  0  0  0  0  0  0  0  0  0  0
   21.5573   18.1447   21.8854 H   0  0  0  0  0  0  0  0  0  0  0  0
   20.7012   19.9862   21.1407 C   0  0  0  0  0  0  0  0  0  0  0  0
   21.4154   20.6470   21.6515 H   0  0  0  0  0  0  0  0  0  0  0  0
   21.1224   19.7831   20.1465 H   0  0  0  0  0  0  0  0  0  0  0  0
   19.3507   20.7150   20.9698 C   0  0  0  0  0  0  0  0  0  0  0  0
   19.4729   21.6079   20.3431 H   0  0  0  0  0  0  0  0  0  0  0  0
   18.6103   20.0629   20.4886 H   0  0  0  0  0  0  0  0  0  0  0  0
   18.9467   21.0408   21.9366 H   0  0  0  0  0  0  0  0  0  0  0  0
  1  2  1  0  0  0  0
  1  3  2  0  0  0  0
  1  4  1  0  0  0  0
  4  5  1  0  0  0  0
  4  6  1  0  0  0  0
  4  7  1  0  0  0  0
  7  8  1  0  0  0  0
  7  9  1  0  0  0  0
  7 10  1  0  0  0  0
 10 11  1  0  0  0  0
 10 12  1  0  0  0  0
 10 13  1  0  0  0  0
 13 14  1  0  0  0  0
 13 15  1  0  0  0  0
 13 16  1  0  0  0  0
 16 17  1  0  0  0  0
 16 18  1  0  0  0  0
 16 19  1  0  0  0  0
 19 20  1  0  0  0  0
 19 21  1  0  0  0  0
 19 22  1  0  0  0  0
 22 23  1  0  0  0  0
 22 24  1  0  0  0  0
 22 25  1  0  0  0  0
M  END
> <VM2 Rank>
114

> <Conf_Id>
235

> <Probability>
0.01

> <Sum Probability>
99.88

> <Delta G>
4.835

> <G>
-3.127

> <E>
-28.268

> <-TS>
25.141

> <U+W>
-48.836

> <U>
12.312

> <W>
-61.148

> <W(PB)>
-63.573

> <W(SA)>
2.425

> <Valence>
9.950

> <Coulomb>
1.611

> <VdW>
0.751

> <VdW6>
-10.687

> <VdW12>
11.438

> <Bond>
0.232

> <Angle>
3.418

> <Pdih>
6.293

> <Idih>
0.007

> <Tether>
0.000

$$$$
VeraChem MOL file


 25 24  0  0  0  0  0  0  0  0999 V2000     
   20.2128   19.2623   27.4701 C   0  0  0  0  0  0  0  0  0  0  0  0
   21.2762   19.2319   28.0574 O   0  5  0  0  0  0  0  0  0  0  0  0
   19.1798   19.6638   27.9686 O   0  0  0  0  0  0  0  0  0  0  0  0
   20.1775   18.7919   26.0204 C   0  0  0  0  0  0  0  0  0  0  0  0
   19.1960   18.3390   25.8420 H   0  0  0  0  0  0  0  0  0  0  0  0
   20.9277   18.0010   25.9015 H   0  0  0  0  0  0  0  0  0  0  0  0
   20.4453   19.9392   25.0116 C   0  0  0  0  0  0  0  0  0  0  0  0
   19.6612   20.7032   25.1058 H   0  0  0  0  0  0  0  0  0  0  0  0
   21.3901   20.4303   25.2830 H   0  0  0  0  0  0  0  0  0  0  0  0
   20.5408   19.4647   23.5417 C   0  0  0  0  0  0  0  0  0  0  0  0
   21.3077   18.6832   23.4546 H   0  0  0  0  0  0  0  0  0  0  0  0
   20.8834   20.3131   22.9360 H   0  0  0  0  0  0  0  0  0  0  0  0
   19.1978   18.9491   22.9716 C   0  0  0  0  0  0  0  0  0  0  0  0
   18.8127   18.1444   23.6101 H   0  0  0  0  0  0  0  0  0  0  0  0
   18.4529   19.7555   23.0083 H   0  0  0  0  0  0  0  0  0  0  0  0
   19.2908   18.4004   21.5253 C   0  0  0  0  0  0  0  0  0  0  0  0
   18.2978   18.0174   21.2533 H   0  0  0  0  0  0  0  0  0  0  0  0
   19.9631   17.5320   21.4952 H   0  0  0  0  0  0  0  0  0  0  0  0
   19.7130   19.4433   20.4603 C   0  0  0  0  0  0  0  0  0  0  0  0
   19.1483   19.2519   19.5374 H   0  0  0  0  0  0  0  0  0  0  0  0
   19.4328   20.4549   20.7849 H   0  0  0  0  0  0  0  0  0  0  0  0
   21.2189   19.3875   20.1190 C   0  0  0  0  0  0  0  0  0  0  0  0
   21.4917   18.4023   19.7189 H   0  0  0  0  0  0  0  0  0  0  0  0
   21.4686   20.1391   19.3590 H   0  0  0  0  0  0  0  0  0  0  0  0
   21.8442   19.5795   20.9983 H   0  0  0  0  0  0  0  0  0  0  0  0
  1  2  1  0  0  0  0
  1  3  2  0  0  0  0
  1  4  1  0  0  0  0
  4  5  1  0  0  0  0
  4  6  1  0  0  0  0
  4  7  1  0  0  0  0
  7  8  1  0  0  0  0
  7  9  1  0  0  0  0
  7 10  1  0  0  0  0
 10 11  1  0  0  0  0
 10 12  1  0  0  0  0
 10 13  1  0  0  0  0
 13 14  1  0  0  0  0
 13 15  1  0  0  0  0
 13 16  1  0  0  0  0
 16 17  1  0  0  0  0
 16 18  1  0  0  0  0
 16 19  1  0  0  0  0
 19 20  1  0  0  0  0
 19 21  1  0  0  0  0
 19 22  1  0  0  0  0
 22 23  1  0  0  0  0
 22 24  1  0  0  0  0
 22 25  1  0  0  0  0
M  END
> <VM2 Rank>
115

> <Conf_Id>
983

> <Probability>
0.01

> <Sum Probability>
99.88

> <Delta G>
4.854

> <G>
-3.108

> <E>
-27.898

> <-TS>
24.790

> <U+W>
-48.466

> <U>
10.617

> <W>
-59.083

> <W(PB)>
-61.516

> <W(SA)>
2.432

> <Valence>
11.188

> <Coulomb>
-1.778

> <VdW>
1.208

> <VdW6>
-9.786

> <VdW12>
10.993

> <Bond>
0.241

> <Angle>
3.294

> <Pdih>
7.653

> <Idih>
0.001

> <Tether>
0.000

$$$$
VeraChem MOL file


 25 24  0  0  0  0  0  0  0  0999 V2000     
   20.2472   19.3778   27.4665 C   0  0  0  0  0  0  0  0  0  0  0  0
   21.1630   18.8534   28.0691 O   0  5  0  0  0  0  0  0  0  0  0  0
   19.1717   19.6371   27.9694 O   0  0  0  0  0  0  0  0  0  0  0  0
   20.4509   19.7071   25.9920 C   0  0  0  0  0  0  0  0  0  0  0  0
   21.5096   19.9494   25.8412 H   0  0  0  0  0  0  0  0  0  0  0  0
   19.8752   20.6127   25.7715 H   0  0  0  0  0  0  0  0  0  0  0  0
   20.0290   18.5454   25.0549 C   0  0  0  0  0  0  0  0  0  0  0  0
   20.5547   17.6333   25.3698 H   0  0  0  0  0  0  0  0  0  0  0  0
   18.9562   18.3429   25.1790 H   0  0  0  0  0  0  0  0  0  0  0  0
   20.3440   18.8054   23.5622 C   0  0  0  0  0  0  0  0  0  0  0  0
   20.1552   17.8752   23.0116 H   0  0  0  0  0  0  0  0  0  0  0  0
   21.4122   19.0322   23.4438 H   0  0  0  0  0  0  0  0  0  0  0  0
   19.4939   19.9394   22.9409 C   0  0  0  0  0  0  0  0  0  0  0  0
   18.4296   19.6769   23.0109 H   0  0  0  0  0  0  0  0  0  0  0  0
   19.6240   20.8583   23.5258 H   0  0  0  0  0  0  0  0  0  0  0  0
   19.8478   20.2638   21.4675 C   0  0  0  0  0  0  0  0  0  0  0  0
   20.8855   20.6180   21.3993 H   0  0  0  0  0  0  0  0  0  0  0  0
   19.2227   21.1123   21.1573 H   0  0  0  0  0  0  0  0  0  0  0  0
   19.6108   19.1015   20.4710 C   0  0  0  0  0  0  0  0  0  0  0  0
   18.8275   18.4295   20.8480 H   0  0  0  0  0  0  0  0  0  0  0  0
   19.2276   19.5183   19.5293 H   0  0  0  0  0  0  0  0  0  0  0  0
   20.8947   18.3031   20.1524 C   0  0  0  0  0  0  0  0  0  0  0  0
   20.6783   17.4958   19.4409 H   0  0  0  0  0  0  0  0  0  0  0  0
   21.6560   18.9528   19.7015 H   0  0  0  0  0  0  0  0  0  0  0  0
   21.3274   17.8502   21.0517 H   0  0  0  0  0  0  0  0  0  0  0  0
  1  2  1  0  0  0  0
  1  3  2  0  0  0  0
  1  4  1  0  0  0  0
  4  5  1  0  0  0  0
  4  6  1  0  0  0  0
  4  7  1  0  0  0  0
  7  8  1  0  0  0  0
  7  9  1  0  0  0  0
  7 10  1  0  0  0  0
 10 11  1  0  0  0  0
 10 12  1  0  0  0  0
 10 13  1  0  0  0  0
 13 14  1  0  0  0  0
 13 15  1  0  0  0  0
 13 16  1  0  0  0  0
 16 17  1  0  0  0  0
 16 18  1  0  0  0  0
 16 19  1  0  0  0  0
 19 20  1  0  0  0  0
 19 21  1  0  0  0  0
 19 22  1  0  0  0  0
 22 23  1  0  0  0  0
 22 24  1  0  0  0  0
 22 25  1  0  0  0  0
M  END
> <VM2 Rank>
116

> <Conf_Id>
1021

> <Probability>
0.01

> <Sum Probability>
99.89

> <Delta G>
4.875

> <G>
-3.088

> <E>
-27.878

> <-TS>
24.790

> <U+W>
-48.445

> <U>
10.617

> <W>
-59.063

> <W(PB)>
-61.494

> <W(SA)>
2.432

> <Valence>
11.188

> <Coulomb>
-1.778

> <VdW>
1.207

> <VdW6>
-9.786

> <VdW12>
10.993

> <Bond>
0.241

> <Angle>
3.294

> <Pdih>
7.653

> <Idih>
0.001

> <Tether>
0.000

$$$$
VeraChem MOL file


 25 24  0  0  0  0  0  0  0  0999 V2000     
   19.8521   19.7007   27.0969 C   0  0  0  0  0  0  0  0  0  0  0  0
   20.6507   19.8351   28.0031 O   0  5  0  0  0  0  0  0  0  0  0  0
   18.8358   20.3586   26.9922 O   0  0  0  0  0  0  0  0  0  0  0  0
   20.1530   18.6637   26.0207 C   0  0  0  0  0  0  0  0  0  0  0  0
   19.1966   18.2684   25.6617 H   0  0  0  0  0  0  0  0  0  0  0  0
   20.6902   17.8322   26.4921 H   0  0  0  0  0  0  0  0  0  0  0  0
   20.9868   19.2429   24.8477 C   0  0  0  0  0  0  0  0  0  0  0  0
   20.4383   20.0734   24.3869 H   0  0  0  0  0  0  0  0  0  0  0  0
   21.9103   19.6741   25.2581 H   0  0  0  0  0  0  0  0  0  0  0  0
   21.3675   18.1816   23.7842 C   0  0  0  0  0  0  0  0  0  0  0  0
   21.8150   17.3212   24.3001 H   0  0  0  0  0  0  0  0  0  0  0  0
   22.1585   18.5809   23.1348 H   0  0  0  0  0  0  0  0  0  0  0  0
   20.1855   17.6841   22.9100 C   0  0  0  0  0  0  0  0  0  0  0  0
   20.3426   16.6171   22.7012 H   0  0  0  0  0  0  0  0  0  0  0  0
   19.2385   17.7419   23.4604 H   0  0  0  0  0  0  0  0  0  0  0  0
   20.0428   18.4082   21.5476 C   0  0  0  0  0  0  0  0  0  0  0  0
   19.2370   17.9212   20.9817 H   0  0  0  0  0  0  0  0  0  0  0  0
   20.9602   18.2669   20.9602 H   0  0  0  0  0  0  0  0  0  0  0  0
   19.7332   19.9168   21.6617 C   0  0  0  0  0  0  0  0  0  0  0  0
   18.8674   20.0697   22.3207 H   0  0  0  0  0  0  0  0  0  0  0  0
   20.5848   20.4384   22.1177 H   0  0  0  0  0  0  0  0  0  0  0  0
   19.4456   20.5424   20.2819 C   0  0  0  0  0  0  0  0  0  0  0  0
   18.5750   20.0692   19.8092 H   0  0  0  0  0  0  0  0  0  0  0  0
   19.2360   21.6154   20.3801 H   0  0  0  0  0  0  0  0  0  0  0  0
   20.3065   20.4251   19.6107 H   0  0  0  0  0  0  0  0  0  0  0  0
  1  2  1  0  0  0  0
  1  3  2  0  0  0  0
  1  4  1  0  0  0  0
  4  5  1  0  0  0  0
  4  6  1  0  0  0  0
  4  7  1  0  0  0  0
  7  8  1  0  0  0  0
  7  9  1  0  0  0  0
  7 10  1  0  0  0  0
 10 11  1  0  0  0  0
 10 12  1  0  0  0  0
 10 13  1  0  0  0  0
 13 14  1  0  0  0  0
 13 15  1  0  0  0  0
 13 16  1  0  0  0  0
 16 17  1  0  0  0  0
 16 18  1  0  0  0  0
 16 19  1  0  0  0  0
 19 20  1  0  0  0  0
 19 21  1  0  0  0  0
 19 22  1  0  0  0  0
 22 23  1  0  0  0  0
 22 24  1  0  0  0  0
 22 25  1  0  0  0  0
M  END
> <VM2 Rank>
117

> <Conf_Id>
976

> <Probability>
0.01

> <Sum Probability>
99.90

> <Delta G>
4.883

> <G>
-3.079

> <E>
-27.924

> <-TS>
24.844

> <U+W>
-48.491

> <U>
11.197

> <W>
-59.688

> <W(PB)>
-62.122

> <W(SA)>
2.433

> <Valence>
11.279

> <Coulomb>
-1.128

> <VdW>
1.047

> <VdW6>
-9.931

> <VdW12>
10.977

> <Bond>
0.250

> <Angle>
3.254

> <Pdih>
7.773

> <Idih>
0.001

> <Tether>
0.000

$$$$
VeraChem MOL file


 25 24  0  0  0  0  0  0  0  0999 V2000     
   20.7765   18.9583   26.4111 C   0  0  0  0  0  0  0  0  0  0  0  0
   21.4502   19.9295   26.6954 O   0  5  0  0  0  0  0  0  0  0  0  0
   21.2485   17.8833   26.0968 O   0  0  0  0  0  0  0  0  0  0  0  0
   19.2572   19.0723   26.5230 C   0  0  0  0  0  0  0  0  0  0  0  0
   19.0400   19.2629   27.5803 H   0  0  0  0  0  0  0  0  0  0  0  0
   18.8081   18.1016   26.2804 H   0  0  0  0  0  0  0  0  0  0  0  0
   18.6107   20.1950   25.6634 C   0  0  0  0  0  0  0  0  0  0  0  0
   17.6256   20.4251   26.0912 H   0  0  0  0  0  0  0  0  0  0  0  0
   19.2001   21.1185   25.7490 H   0  0  0  0  0  0  0  0  0  0  0  0
   18.4041   19.8337   24.1714 C   0  0  0  0  0  0  0  0  0  0  0  0
   17.8135   20.6340   23.7048 H   0  0  0  0  0  0  0  0  0  0  0  0
   17.8009   18.9190   24.0927 H   0  0  0  0  0  0  0  0  0  0  0  0
   19.7188   19.6576   23.3781 C   0  0  0  0  0  0  0  0  0  0  0  0
   20.3662   20.5304   23.5388 H   0  0  0  0  0  0  0  0  0  0  0  0
   20.2582   18.7815   23.7565 H   0  0  0  0  0  0  0  0  0  0  0  0
   19.4533   19.4804   21.8648 C   0  0  0  0  0  0  0  0  0  0  0  0
   18.8592   20.3307   21.5032 H   0  0  0  0  0  0  0  0  0  0  0  0
   18.8437   18.5816   21.6993 H   0  0  0  0  0  0  0  0  0  0  0  0
   20.7460   19.3915   21.0205 C   0  0  0  0  0  0  0  0  0  0  0  0
   20.4726   19.3881   19.9563 H   0  0  0  0  0  0  0  0  0  0  0  0
   21.3563   20.2909   21.1813 H   0  0  0  0  0  0  0  0  0  0  0  0
   21.5878   18.1323   21.3215 C   0  0  0  0  0  0  0  0  0  0  0  0
   22.4450   18.0711   20.6387 H   0  0  0  0  0  0  0  0  0  0  0  0
   21.9800   18.1480   22.3464 H   0  0  0  0  0  0  0  0  0  0  0  0
   20.9895   17.2205   21.1960 H   0  0  0  0  0  0  0  0  0  0  0  0
  1  2  1  0  0  0  0
  1  3  2  0  0  0  0
  1  4  1  0  0  0  0
  4  5  1  0  0  0  0
  4  6  1  0  0  0  0
  4  7  1  0  0  0  0
  7  8  1  0  0  0  0
  7  9  1  0  0  0  0
  7 10  1  0  0  0  0
 10 11  1  0  0  0  0
 10 12  1  0  0  0  0
 10 13  1  0  0  0  0
 13 14  1  0  0  0  0
 13 15  1  0  0  0  0
 13 16  1  0  0  0  0
 16 17  1  0  0  0  0
 16 18  1  0  0  0  0
 16 19  1  0  0  0  0
 19 20  1  0  0  0  0
 19 21  1  0  0  0  0
 19 22  1  0  0  0  0
 22 23  1  0  0  0  0
 22 24  1  0  0  0  0
 22 25  1  0  0  0  0
M  END
> <VM2 Rank>
118

> <Conf_Id>
448

> <Probability>
0.01

> <Sum Probability>
99.90

> <Delta G>
4.906

> <G>
-3.056

> <E>
-28.214

> <-TS>
25.158

> <U+W>
-48.781

> <U>
12.472

> <W>
-61.253

> <W(PB)>
-63.647

> <W(SA)>
2.393

> <Valence>
9.941

> <Coulomb>
1.808

> <VdW>
0.724

> <VdW6>
-10.775

> <VdW12>
11.499

> <Bond>
0.236

> <Angle>
3.415

> <Pdih>
6.282

> <Idih>
0.007

> <Tether>
0.000

$$$$
VeraChem MOL file


 25 24  0  0  0  0  0  0  0  0999 V2000     
   20.6235   19.3199   27.1158 C   0  0  0  0  0  0  0  0  0  0  0  0
   21.5442   20.1069   27.0178 O   0  5  0  0  0  0  0  0  0  0  0  0
   20.0793   19.0477   28.1677 O   0  0  0  0  0  0  0  0  0  0  0  0
   20.1086   18.6527   25.8456 C   0  0  0  0  0  0  0  0  0  0  0  0
   19.7584   17.6478   26.1097 H   0  0  0  0  0  0  0  0  0  0  0  0
   20.9568   18.5254   25.1656 H   0  0  0  0  0  0  0  0  0  0  0  0
   18.9643   19.4531   25.1690 C   0  0  0  0  0  0  0  0  0  0  0  0
   18.1330   19.5247   25.8839 H   0  0  0  0  0  0  0  0  0  0  0  0
   19.2877   20.4848   24.9731 H   0  0  0  0  0  0  0  0  0  0  0  0
   18.4440   18.7964   23.8651 C   0  0  0  0  0  0  0  0  0  0  0  0
   17.3562   18.9431   23.8187 H   0  0  0  0  0  0  0  0  0  0  0  0
   18.5967   17.7090   23.8989 H   0  0  0  0  0  0  0  0  0  0  0  0
   19.0482   19.3765   22.5613 C   0  0  0  0  0  0  0  0  0  0  0  0
   18.5513   18.8864   21.7148 H   0  0  0  0  0  0  0  0  0  0  0  0
   18.8005   20.4441   22.4885 H   0  0  0  0  0  0  0  0  0  0  0  0
   20.5801   19.1964   22.4355 C   0  0  0  0  0  0  0  0  0  0  0  0
   20.8435   18.1383   22.5672 H   0  0  0  0  0  0  0  0  0  0  0  0
   21.0730   19.7496   23.2452 H   0  0  0  0  0  0  0  0  0  0  0  0
   21.1527   19.7106   21.0938 C   0  0  0  0  0  0  0  0  0  0  0  0
   20.8678   20.7615   20.9465 H   0  0  0  0  0  0  0  0  0  0  0  0
   22.2498   19.6923   21.1509 H   0  0  0  0  0  0  0  0  0  0  0  0
   20.7080   18.8737   19.8744 C   0  0  0  0  0  0  0  0  0  0  0  0
   19.6283   18.9579   19.7003 H   0  0  0  0  0  0  0  0  0  0  0  0
   21.2178   19.2196   18.9659 H   0  0  0  0  0  0  0  0  0  0  0  0
   20.9529   17.8129   20.0156 H   0  0  0  0  0  0  0  0  0  0  0  0
  1  2  1  0  0  0  0
  1  3  2  0  0  0  0
  1  4  1  0  0  0  0
  4  5  1  0  0  0  0
  4  6  1  0  0  0  0
  4  7  1  0  0  0  0
  7  8  1  0  0  0  0
  7  9  1  0  0  0  0
  7 10  1  0  0  0  0
 10 11  1  0  0  0  0
 10 12  1  0  0  0  0
 10 13  1  0  0  0  0
 13 14  1  0  0  0  0
 13 15  1  0  0  0  0
 13 16  1  0  0  0  0
 16 17  1  0  0  0  0
 16 18  1  0  0  0  0
 16 19  1  0  0  0  0
 19 20  1  0  0  0  0
 19 21  1  0  0  0  0
 19 22  1  0  0  0  0
 22 23  1  0  0  0  0
 22 24  1  0  0  0  0
 22 25  1  0  0  0  0
M  END
> <VM2 Rank>
119

> <Conf_Id>
560

> <Probability>
0.01

> <Sum Probability>
99.91

> <Delta G>
4.946

> <G>
-3.016

> <E>
-27.869

> <-TS>
24.853

> <U+W>
-48.437

> <U>
10.982

> <W>
-59.419

> <W(PB)>
-61.896

> <W(SA)>
2.477

> <Valence>
11.160

> <Coulomb>
-1.272

> <VdW>
1.094

> <VdW6>
-9.961

> <VdW12>
11.055

> <Bond>
0.244

> <Angle>
3.277

> <Pdih>
7.638

> <Idih>
0.001

> <Tether>
0.000

$$$$
VeraChem MOL file


 25 24  0  0  0  0  0  0  0  0999 V2000     
   19.5645   18.8823   26.4251 C   0  0  0  0  0  0  0  0  0  0  0  0
   19.2240   17.7560   26.1205 O   0  5  0  0  0  0  0  0  0  0  0  0
   18.7811   19.7619   26.7257 O   0  0  0  0  0  0  0  0  0  0  0  0
   21.0598   19.1858   26.5024 C   0  0  0  0  0  0  0  0  0  0  0  0
   21.6213   18.2786   26.2483 H   0  0  0  0  0  0  0  0  0  0  0  0
   21.2755   19.4039   27.5547 H   0  0  0  0  0  0  0  0  0  0  0  0
   21.5408   20.3792   25.6295 C   0  0  0  0  0  0  0  0  0  0  0  0
   20.8425   21.2218   25.7298 H   0  0  0  0  0  0  0  0  0  0  0  0
   22.4989   20.7314   26.0349 H   0  0  0  0  0  0  0  0  0  0  0  0
   21.7567   20.0441   24.1327 C   0  0  0  0  0  0  0  0  0  0  0  0
   22.4674   19.2117   24.0391 H   0  0  0  0  0  0  0  0  0  0  0  0
   22.2319   20.9111   23.6537 H   0  0  0  0  0  0  0  0  0  0  0  0
   20.4565   19.7040   23.3695 C   0  0  0  0  0  0  0  0  0  0  0  0
   20.0394   18.7681   23.7592 H   0  0  0  0  0  0  0  0  0  0  0  0
   19.7090   20.4894   23.5460 H   0  0  0  0  0  0  0  0  0  0  0  0
   20.7073   19.5586   21.8504 C   0  0  0  0  0  0  0  0  0  0  0  0
   21.4202   18.7425   21.6699 H   0  0  0  0  0  0  0  0  0  0  0  0
   21.1824   20.4757   21.4763 H   0  0  0  0  0  0  0  0  0  0  0  0
   19.4168   19.3079   21.0357 C   0  0  0  0  0  0  0  0  0  0  0  0
   18.7030   20.1246   21.2114 H   0  0  0  0  0  0  0  0  0  0  0  0
   19.6642   19.3367   19.9656 H   0  0  0  0  0  0  0  0  0  0  0  0
   18.7455   17.9543   21.3545 C   0  0  0  0  0  0  0  0  0  0  0  0
   18.3779   17.9228   22.3881 H   0  0  0  0  0  0  0  0  0  0  0  0
   17.8872   17.7855   20.6915 H   0  0  0  0  0  0  0  0  0  0  0  0
   19.4496   17.1238   21.2144 H   0  0  0  0  0  0  0  0  0  0  0  0
  1  2  1  0  0  0  0
  1  3  2  0  0  0  0
  1  4  1  0  0  0  0
  4  5  1  0  0  0  0
  4  6  1  0  0  0  0
  4  7  1  0  0  0  0
  7  8  1  0  0  0  0
  7  9  1  0  0  0  0
  7 10  1  0  0  0  0
 10 11  1  0  0  0  0
 10 12  1  0  0  0  0
 10 13  1  0  0  0  0
 13 14  1  0  0  0  0
 13 15  1  0  0  0  0
 13 16  1  0  0  0  0
 16 17  1  0  0  0  0
 16 18  1  0  0  0  0
 16 19  1  0  0  0  0
 19 20  1  0  0  0  0
 19 21  1  0  0  0  0
 19 22  1  0  0  0  0
 22 23  1  0  0  0  0
 22 24  1  0  0  0  0
 22 25  1  0  0  0  0
M  END
> <VM2 Rank>
120

> <Conf_Id>
148

> <Probability>
0.01

> <Sum Probability>
99.92

> <Delta G>
4.991

> <G>
-2.972

> <E>
-28.129

> <-TS>
25.157

> <U+W>
-48.696

> <U>
12.472

> <W>
-61.168

> <W(PB)>
-63.566

> <W(SA)>
2.398

> <Valence>
9.941

> <Coulomb>
1.808

> <VdW>
0.724

> <VdW6>
-10.775

> <VdW12>
11.499

> <Bond>
0.236

> <Angle>
3.415

> <Pdih>
6.282

> <Idih>
0.007

> <Tether>
0.000

$$$$
VeraChem MOL file


 25 24  0  0  0  0  0  0  0  0999 V2000     
   20.4864   19.3099   27.3364 C   0  0  0  0  0  0  0  0  0  0  0  0
   21.6052   19.7662   27.4663 O   0  5  0  0  0  0  0  0  0  0  0  0
   19.5907   19.4843   28.1389 O   0  0  0  0  0  0  0  0  0  0  0  0
   20.1842   18.4893   26.0876 C   0  0  0  0  0  0  0  0  0  0  0  0
   19.4432   17.7257   26.3530 H   0  0  0  0  0  0  0  0  0  0  0  0
   21.1012   17.9639   25.7950 H   0  0  0  0  0  0  0  0  0  0  0  0
   19.6654   19.3528   24.9113 C   0  0  0  0  0  0  0  0  0  0  0  0
   18.7539   19.8803   25.2246 H   0  0  0  0  0  0  0  0  0  0  0  0
   20.4130   20.1218   24.6781 H   0  0  0  0  0  0  0  0  0  0  0  0
   19.3668   18.4950   23.6591 C   0  0  0  0  0  0  0  0  0  0  0  0
   18.6423   17.7156   23.9315 H   0  0  0  0  0  0  0  0  0  0  0  0
   20.2781   17.9725   23.3445 H   0  0  0  0  0  0  0  0  0  0  0  0
   18.7819   19.3161   22.4822 C   0  0  0  0  0  0  0  0  0  0  0  0
   18.3428   18.6330   21.7426 H   0  0  0  0  0  0  0  0  0  0  0  0
   17.9450   19.9174   22.8627 H   0  0  0  0  0  0  0  0  0  0  0  0
   19.7960   20.2553   21.7758 C   0  0  0  0  0  0  0  0  0  0  0  0
   20.5741   20.5883   22.4736 H   0  0  0  0  0  0  0  0  0  0  0  0
   19.2614   21.1652   21.4710 H   0  0  0  0  0  0  0  0  0  0  0  0
   20.4528   19.6547   20.5083 C   0  0  0  0  0  0  0  0  0  0  0  0
   19.6755   19.4032   19.7737 H   0  0  0  0  0  0  0  0  0  0  0  0
   21.0790   20.4270   20.0407 H   0  0  0  0  0  0  0  0  0  0  0  0
   21.3236   18.4104   20.7802 C   0  0  0  0  0  0  0  0  0  0  0  0
   22.0714   18.6153   21.5573 H   0  0  0  0  0  0  0  0  0  0  0  0
   20.7093   17.5606   21.1028 H   0  0  0  0  0  0  0  0  0  0  0  0
   21.8555   18.1072   19.8692 H   0  0  0  0  0  0  0  0  0  0  0  0
  1  2  1  0  0  0  0
  1  3  2  0  0  0  0
  1  4  1  0  0  0  0
  4  5  1  0  0  0  0
  4  6  1  0  0  0  0
  4  7  1  0  0  0  0
  7  8  1  0  0  0  0
  7  9  1  0  0  0  0
  7 10  1  0  0  0  0
 10 11  1  0  0  0  0
 10 12  1  0  0  0  0
 10 13  1  0  0  0  0
 13 14  1  0  0  0  0
 13 15  1  0  0  0  0
 13 16  1  0  0  0  0
 16 17  1  0  0  0  0
 16 18  1  0  0  0  0
 16 19  1  0  0  0  0
 19 20  1  0  0  0  0
 19 21  1  0  0  0  0
 19 22  1  0  0  0  0
 22 23  1  0  0  0  0
 22 24  1  0  0  0  0
 22 25  1  0  0  0  0
M  END
> <VM2 Rank>
121

> <Conf_Id>
281

> <Probability>
0.01

> <Sum Probability>
99.92

> <Delta G>
5.019

> <G>
-2.944

> <E>
-27.762

> <-TS>
24.818

> <U+W>
-48.329

> <U>
11.068

> <W>
-59.397

> <W(PB)>
-61.844

> <W(SA)>
2.447

> <Valence>
11.256

> <Coulomb>
-1.286

> <VdW>
1.098

> <VdW6>
-9.790

> <VdW12>
10.887

> <Bond>
0.240

> <Angle>
3.222

> <Pdih>
7.794

> <Idih>
0.001

> <Tether>
0.000

$$$$
VeraChem MOL file


 25 24  0  0  0  0  0  0  0  0999 V2000     
   20.3342   19.7663   27.0712 C   0  0  0  0  0  0  0  0  0  0  0  0
   21.3481   20.4349   27.1132 O   0  5  0  0  0  0  0  0  0  0  0  0
   19.3475   19.9966   27.7421 O   0  0  0  0  0  0  0  0  0  0  0  0
   20.2914   18.5828   26.1111 C   0  0  0  0  0  0  0  0  0  0  0  0
   19.6736   17.7986   26.5649 H   0  0  0  0  0  0  0  0  0  0  0  0
   21.3080   18.1823   26.0183 H   0  0  0  0  0  0  0  0  0  0  0  0
   19.7373   18.9607   24.7154 C   0  0  0  0  0  0  0  0  0  0  0  0
   18.7236   19.3691   24.8281 H   0  0  0  0  0  0  0  0  0  0  0  0
   20.3544   19.7625   24.2935 H   0  0  0  0  0  0  0  0  0  0  0  0
   19.7032   17.7424   23.7629 C   0  0  0  0  0  0  0  0  0  0  0  0
   19.0798   16.9653   24.2261 H   0  0  0  0  0  0  0  0  0  0  0  0
   20.7074   17.3087   23.6619 H   0  0  0  0  0  0  0  0  0  0  0  0
   19.1194   18.0645   22.3633 C   0  0  0  0  0  0  0  0  0  0  0  0
   18.5577   17.1834   22.0241 H   0  0  0  0  0  0  0  0  0  0  0  0
   18.3798   18.8730   22.4303 H   0  0  0  0  0  0  0  0  0  0  0  0
   20.1786   18.3782   21.2736 C   0  0  0  0  0  0  0  0  0  0  0  0
   19.6689   18.4577   20.3038 H   0  0  0  0  0  0  0  0  0  0  0  0
   20.8589   17.5204   21.1845 H   0  0  0  0  0  0  0  0  0  0  0  0
   21.0198   19.6579   21.4934 C   0  0  0  0  0  0  0  0  0  0  0  0
   21.5966   19.5766   22.4233 H   0  0  0  0  0  0  0  0  0  0  0  0
   21.7612   19.7300   20.6859 H   0  0  0  0  0  0  0  0  0  0  0  0
   20.1735   20.9498   21.4999 C   0  0  0  0  0  0  0  0  0  0  0  0
   19.4670   20.9632   22.3389 H   0  0  0  0  0  0  0  0  0  0  0  0
   20.8197   21.8319   21.5940 H   0  0  0  0  0  0  0  0  0  0  0  0
   19.6009   21.0476   20.5686 H   0  0  0  0  0  0  0  0  0  0  0  0
  1  2  1  0  0  0  0
  1  3  2  0  0  0  0
  1  4  1  0  0  0  0
  4  5  1  0  0  0  0
  4  6  1  0  0  0  0
  4  7  1  0  0  0  0
  7  8  1  0  0  0  0
  7  9  1  0  0  0  0
  7 10  1  0  0  0  0
 10 11  1  0  0  0  0
 10 12  1  0  0  0  0
 10 13  1  0  0  0  0
 13 14  1  0  0  0  0
 13 15  1  0  0  0  0
 13 16  1  0  0  0  0
 16 17  1  0  0  0  0
 16 18  1  0  0  0  0
 16 19  1  0  0  0  0
 19 20  1  0  0  0  0
 19 21  1  0  0  0  0
 19 22  1  0  0  0  0
 22 23  1  0  0  0  0
 22 24  1  0  0  0  0
 22 25  1  0  0  0  0
M  END
> <VM2 Rank>
122

> <Conf_Id>
250

> <Probability>
0.01

> <Sum Probability>
99.93

> <Delta G>
5.081

> <G>
-2.881

> <E>
-28.084

> <-TS>
25.203

> <U+W>
-48.651

> <U>
11.386

> <W>
-60.037

> <W(PB)>
-62.435

> <W(SA)>
2.398

> <Valence>
11.144

> <Coulomb>
-0.494

> <VdW>
0.736

> <VdW6>
-10.363

> <VdW12>
11.100

> <Bond>
0.234

> <Angle>
3.543

> <Pdih>
7.365

> <Idih>
0.000

> <Tether>
0.000

$$$$
VeraChem MOL file


 25 24  0  0  0  0  0  0  0  0999 V2000     
   19.7071   19.7928   26.7118 C   0  0  0  0  0  0  0  0  0  0  0  0
   19.9270   19.4197   27.8473 O   0  5  0  0  0  0  0  0  0  0  0  0
   18.6898   20.3669   26.3767 O   0  0  0  0  0  0  0  0  0  0  0  0
   20.7570   19.5064   25.6446 C   0  0  0  0  0  0  0  0  0  0  0  0
   21.7444   19.5381   26.1201 H   0  0  0  0  0  0  0  0  0  0  0  0
   20.7229   20.3236   24.9161 H   0  0  0  0  0  0  0  0  0  0  0  0
   20.5443   18.1375   24.9472 C   0  0  0  0  0  0  0  0  0  0  0  0
   20.5477   17.3510   25.7144 H   0  0  0  0  0  0  0  0  0  0  0  0
   19.5497   18.1002   24.4850 H   0  0  0  0  0  0  0  0  0  0  0  0
   21.6320   17.8053   23.8975 C   0  0  0  0  0  0  0  0  0  0  0  0
   21.4573   16.7887   23.5198 H   0  0  0  0  0  0  0  0  0  0  0  0
   22.6076   17.7738   24.4016 H   0  0  0  0  0  0  0  0  0  0  0  0
   21.7302   18.7756   22.6907 C   0  0  0  0  0  0  0  0  0  0  0  0
   21.9895   19.7885   23.0249 H   0  0  0  0  0  0  0  0  0  0  0  0
   22.5808   18.4451   22.0791 H   0  0  0  0  0  0  0  0  0  0  0  0
   20.4771   18.8077   21.7782 C   0  0  0  0  0  0  0  0  0  0  0  0
   19.9604   17.8389   21.8121 H   0  0  0  0  0  0  0  0  0  0  0  0
   20.8108   18.9391   20.7398 H   0  0  0  0  0  0  0  0  0  0  0  0
   19.4927   19.9525   22.1121 C   0  0  0  0  0  0  0  0  0  0  0  0
   19.1176   19.8540   23.1377 H   0  0  0  0  0  0  0  0  0  0  0  0
   20.0165   20.9167   22.0590 H   0  0  0  0  0  0  0  0  0  0  0  0
   18.2959   19.9696   21.1398 C   0  0  0  0  0  0  0  0  0  0  0  0
   17.7342   19.0279   21.1932 H   0  0  0  0  0  0  0  0  0  0  0  0
   17.6083   20.7887   21.3878 H   0  0  0  0  0  0  0  0  0  0  0  0
   18.6320   20.1108   20.1043 H   0  0  0  0  0  0  0  0  0  0  0  0
  1  2  1  0  0  0  0
  1  3  2  0  0  0  0
  1  4  1  0  0  0  0
  4  5  1  0  0  0  0
  4  6  1  0  0  0  0
  4  7  1  0  0  0  0
  7  8  1  0  0  0  0
  7  9  1  0  0  0  0
  7 10  1  0  0  0  0
 10 11  1  0  0  0  0
 10 12  1  0  0  0  0
 10 13  1  0  0  0  0
 13 14  1  0  0  0  0
 13 15  1  0  0  0  0
 13 16  1  0  0  0  0
 16 17  1  0  0  0  0
 16 18  1  0  0  0  0
 16 19  1  0  0  0  0
 19 20  1  0  0  0  0
 19 21  1  0  0  0  0
 19 22  1  0  0  0  0
 22 23  1  0  0  0  0
 22 24  1  0  0  0  0
 22 25  1  0  0  0  0
M  END
> <VM2 Rank>
123

> <Conf_Id>
255

> <Probability>
0.00

> <Sum Probability>
99.93

> <Delta G>
5.134

> <G>
-2.828

> <E>
-28.109

> <-TS>
25.281

> <U+W>
-48.676

> <U>
11.616

> <W>
-60.292

> <W(PB)>
-62.674

> <W(SA)>
2.382

> <Valence>
11.123

> <Coulomb>
-0.039

> <VdW>
0.532

> <VdW6>
-10.780

> <VdW12>
11.312

> <Bond>
0.247

> <Angle>
3.570

> <Pdih>
7.305

> <Idih>
0.001

> <Tether>
0.000

$$$$
VeraChem MOL file


 25 24  0  0  0  0  0  0  0  0999 V2000     
   20.0749   19.5520   27.1737 C   0  0  0  0  0  0  0  0  0  0  0  0
   20.6779   18.6880   27.7794 O   0  5  0  0  0  0  0  0  0  0  0  0
   18.9546   19.9213   27.4663 O   0  0  0  0  0  0  0  0  0  0  0  0
   20.7683   20.2254   25.9926 C   0  0  0  0  0  0  0  0  0  0  0  0
   21.8472   20.0439   26.0692 H   0  0  0  0  0  0  0  0  0  0  0  0
   20.6199   21.3063   26.0998 H   0  0  0  0  0  0  0  0  0  0  0  0
   20.2450   19.7665   24.6066 C   0  0  0  0  0  0  0  0  0  0  0  0
   19.1566   19.9109   24.5616 H   0  0  0  0  0  0  0  0  0  0  0  0
   20.6879   20.4133   23.8387 H   0  0  0  0  0  0  0  0  0  0  0  0
   20.5937   18.2920   24.2972 C   0  0  0  0  0  0  0  0  0  0  0  0
   20.2424   17.6571   25.1220 H   0  0  0  0  0  0  0  0  0  0  0  0
   21.6854   18.1749   24.2639 H   0  0  0  0  0  0  0  0  0  0  0  0
   19.9780   17.7556   22.9805 C   0  0  0  0  0  0  0  0  0  0  0  0
   20.2500   16.6945   22.8974 H   0  0  0  0  0  0  0  0  0  0  0  0
   18.8814   17.7779   23.0412 H   0  0  0  0  0  0  0  0  0  0  0  0
   20.4608   18.4788   21.6974 C   0  0  0  0  0  0  0  0  0  0  0  0
   20.5636   17.7347   20.8957 H   0  0  0  0  0  0  0  0  0  0  0  0
   21.4638   18.8982   21.8551 H   0  0  0  0  0  0  0  0  0  0  0  0
   19.4875   19.5776   21.2113 C   0  0  0  0  0  0  0  0  0  0  0  0
   18.5059   19.1316   21.0003 H   0  0  0  0  0  0  0  0  0  0  0  0
   19.3288   20.3272   21.9959 H   0  0  0  0  0  0  0  0  0  0  0  0
   20.0123   20.2767   19.9410 C   0  0  0  0  0  0  0  0  0  0  0  0
   20.1436   19.5573   19.1221 H   0  0  0  0  0  0  0  0  0  0  0  0
   19.3075   21.0482   19.6048 H   0  0  0  0  0  0  0  0  0  0  0  0
   20.9793   20.7606   20.1309 H   0  0  0  0  0  0  0  0  0  0  0  0
  1  2  1  0  0  0  0
  1  3  2  0  0  0  0
  1  4  1  0  0  0  0
  4  5  1  0  0  0  0
  4  6  1  0  0  0  0
  4  7  1  0  0  0  0
  7  8  1  0  0  0  0
  7  9  1  0  0  0  0
  7 10  1  0  0  0  0
 10 11  1  0  0  0  0
 10 12  1  0  0  0  0
 10 13  1  0  0  0  0
 13 14  1  0  0  0  0
 13 15  1  0  0  0  0
 13 16  1  0  0  0  0
 16 17  1  0  0  0  0
 16 18  1  0  0  0  0
 16 19  1  0  0  0  0
 19 20  1  0  0  0  0
 19 21  1  0  0  0  0
 19 22  1  0  0  0  0
 22 23  1  0  0  0  0
 22 24  1  0  0  0  0
 22 25  1  0  0  0  0
M  END
> <VM2 Rank>
124

> <Conf_Id>
929

> <Probability>
0.00

> <Sum Probability>
99.93

> <Delta G>
5.254

> <G>
-2.708

> <E>
-27.820

> <-TS>
25.112

> <U+W>
-48.387

> <U>
11.468

> <W>
-59.856

> <W(PB)>
-62.300

> <W(SA)>
2.444

> <Valence>
10.869

> <Coulomb>
-0.265

> <VdW>
0.864

> <VdW6>
-10.146

> <VdW12>
11.010

> <Bond>
0.218

> <Angle>
3.178

> <Pdih>
7.473

> <Idih>
0.001

> <Tether>
0.000

$$$$
VeraChem MOL file


 25 24  0  0  0  0  0  0  0  0999 V2000     
   20.2839   19.5361   27.1917 C   0  0  0  0  0  0  0  0  0  0  0  0
   21.3407   19.0104   27.4812 O   0  5  0  0  0  0  0  0  0  0  0  0
   19.2726   19.4241   27.8565 O   0  0  0  0  0  0  0  0  0  0  0  0
   20.2255   20.3987   25.9342 C   0  0  0  0  0  0  0  0  0  0  0  0
   21.2482   20.6785   25.6537 H   0  0  0  0  0  0  0  0  0  0  0  0
   19.7035   21.3263   26.1969 H   0  0  0  0  0  0  0  0  0  0  0  0
   19.5088   19.7221   24.7369 C   0  0  0  0  0  0  0  0  0  0  0  0
   18.4963   19.4241   25.0427 H   0  0  0  0  0  0  0  0  0  0  0  0
   19.3859   20.4616   23.9370 H   0  0  0  0  0  0  0  0  0  0  0  0
   20.2765   18.4865   24.2066 C   0  0  0  0  0  0  0  0  0  0  0  0
   20.3283   17.7403   25.0114 H   0  0  0  0  0  0  0  0  0  0  0  0
   21.3161   18.7532   23.9721 H   0  0  0  0  0  0  0  0  0  0  0  0
   19.6039   17.8307   22.9740 C   0  0  0  0  0  0  0  0  0  0  0  0
   19.7256   16.7421   23.0574 H   0  0  0  0  0  0  0  0  0  0  0  0
   18.5204   18.0113   22.9897 H   0  0  0  0  0  0  0  0  0  0  0  0
   20.1956   18.2621   21.6084 C   0  0  0  0  0  0  0  0  0  0  0  0
   19.7006   17.6799   20.8192 H   0  0  0  0  0  0  0  0  0  0  0  0
   21.2593   17.9905   21.5698 H   0  0  0  0  0  0  0  0  0  0  0  0
   20.0391   19.7659   21.2941 C   0  0  0  0  0  0  0  0  0  0  0  0
   18.9882   20.0633   21.4138 H   0  0  0  0  0  0  0  0  0  0  0  0
   20.6284   20.3586   22.0060 H   0  0  0  0  0  0  0  0  0  0  0  0
   20.5064   20.0972   19.8624 C   0  0  0  0  0  0  0  0  0  0  0  0
   19.9142   19.5486   19.1184 H   0  0  0  0  0  0  0  0  0  0  0  0
   20.3962   21.1702   19.6584 H   0  0  0  0  0  0  0  0  0  0  0  0
   21.5628   19.8324   19.7233 H   0  0  0  0  0  0  0  0  0  0  0  0
  1  2  1  0  0  0  0
  1  3  2  0  0  0  0
  1  4  1  0  0  0  0
  4  5  1  0  0  0  0
  4  6  1  0  0  0  0
  4  7  1  0  0  0  0
  7  8  1  0  0  0  0
  7  9  1  0  0  0  0
  7 10  1  0  0  0  0
 10 11  1  0  0  0  0
 10 12  1  0  0  0  0
 10 13  1  0  0  0  0
 13 14  1  0  0  0  0
 13 15  1  0  0  0  0
 13 16  1  0  0  0  0
 16 17  1  0  0  0  0
 16 18  1  0  0  0  0
 16 19  1  0  0  0  0
 19 20  1  0  0  0  0
 19 21  1  0  0  0  0
 19 22  1  0  0  0  0
 22 23  1  0  0  0  0
 22 24  1  0  0  0  0
 22 25  1  0  0  0  0
M  END
> <VM2 Rank>
125

> <Conf_Id>
515

> <Probability>
0.00

> <Sum Probability>
99.94

> <Delta G>
5.262

> <G>
-2.700

> <E>
-27.781

> <-TS>
25.080

> <U+W>
-48.348

> <U>
11.345

> <W>
-59.694

> <W(PB)>
-62.127

> <W(SA)>
2.434

> <Valence>
10.839

> <Coulomb>
-0.332

> <VdW>
0.838

> <VdW6>
-10.154

> <VdW12>
10.992

> <Bond>
0.219

> <Angle>
3.144

> <Pdih>
7.476

> <Idih>
0.000

> <Tether>
0.000

$$$$
VeraChem MOL file


 25 24  0  0  0  0  0  0  0  0999 V2000     
   19.8196   19.3181   27.1055 C   0  0  0  0  0  0  0  0  0  0  0  0
   20.6076   19.9062   27.8200 O   0  5  0  0  0  0  0  0  0  0  0  0
   18.6449   19.6151   27.0124 O   0  0  0  0  0  0  0  0  0  0  0  0
   20.3314   18.1290   26.2974 C   0  0  0  0  0  0  0  0  0  0  0  0
   19.4733   17.5182   25.9915 H   0  0  0  0  0  0  0  0  0  0  0  0
   20.9370   17.5112   26.9708 H   0  0  0  0  0  0  0  0  0  0  0  0
   21.1755   18.5251   25.0581 C   0  0  0  0  0  0  0  0  0  0  0  0
   22.0151   19.1585   25.3767 H   0  0  0  0  0  0  0  0  0  0  0  0
   21.6123   17.6176   24.6199 H   0  0  0  0  0  0  0  0  0  0  0  0
   20.3437   19.2595   23.9826 C   0  0  0  0  0  0  0  0  0  0  0  0
   19.9196   20.1786   24.4095 H   0  0  0  0  0  0  0  0  0  0  0  0
   19.4949   18.6307   23.6891 H   0  0  0  0  0  0  0  0  0  0  0  0
   21.2004   19.6196   22.7459 C   0  0  0  0  0  0  0  0  0  0  0  0
   22.0185   20.2742   23.0762 H   0  0  0  0  0  0  0  0  0  0  0  0
   21.6761   18.7190   22.3341 H   0  0  0  0  0  0  0  0  0  0  0  0
   20.4019   20.3523   21.6378 C   0  0  0  0  0  0  0  0  0  0  0  0
   21.0642   21.0969   21.1754 H   0  0  0  0  0  0  0  0  0  0  0  0
   19.5736   20.9231   22.0792 H   0  0  0  0  0  0  0  0  0  0  0  0
   19.8728   19.4345   20.5079 C   0  0  0  0  0  0  0  0  0  0  0  0
   19.3974   20.0631   19.7423 H   0  0  0  0  0  0  0  0  0  0  0  0
   20.7173   18.9347   20.0138 H   0  0  0  0  0  0  0  0  0  0  0  0
   18.8552   18.3747   20.9785 C   0  0  0  0  0  0  0  0  0  0  0  0
   18.0311   18.8393   21.5352 H   0  0  0  0  0  0  0  0  0  0  0  0
   18.4268   17.8449   20.1180 H   0  0  0  0  0  0  0  0  0  0  0  0
   19.3333   17.6261   21.6225 H   0  0  0  0  0  0  0  0  0  0  0  0
  1  2  1  0  0  0  0
  1  3  2  0  0  0  0
  1  4  1  0  0  0  0
  4  5  1  0  0  0  0
  4  6  1  0  0  0  0
  4  7  1  0  0  0  0
  7  8  1  0  0  0  0
  7  9  1  0  0  0  0
  7 10  1  0  0  0  0
 10 11  1  0  0  0  0
 10 12  1  0  0  0  0
 10 13  1  0  0  0  0
 13 14  1  0  0  0  0
 13 15  1  0  0  0  0
 13 16  1  0  0  0  0
 16 17  1  0  0  0  0
 16 18  1  0  0  0  0
 16 19  1  0  0  0  0
 19 20  1  0  0  0  0
 19 21  1  0  0  0  0
 19 22  1  0  0  0  0
 22 23  1  0  0  0  0
 22 24  1  0  0  0  0
 22 25  1  0  0  0  0
M  END
> <VM2 Rank>
126

> <Conf_Id>
977

> <Probability>
0.00

> <Sum Probability>
99.94

> <Delta G>
5.301

> <G>
-2.662

> <E>
-27.708

> <-TS>
25.047

> <U+W>
-48.276

> <U>
11.935

> <W>
-60.211

> <W(PB)>
-62.649

> <W(SA)>
2.438

> <Valence>
10.764

> <Coulomb>
0.351

> <VdW>
0.820

> <VdW6>
-10.096

> <VdW12>
10.917

> <Bond>
0.214

> <Angle>
3.143

> <Pdih>
7.406

> <Idih>
0.001

> <Tether>
0.000

$$$$
VeraChem MOL file


 25 24  0  0  0  0  0  0  0  0999 V2000     
   19.9982   19.5178   27.1950 C   0  0  0  0  0  0  0  0  0  0  0  0
   21.0304   19.5359   27.8362 O   0  5  0  0  0  0  0  0  0  0  0  0
   19.0235   18.8627   27.5078 O   0  0  0  0  0  0  0  0  0  0  0  0
   19.9177   20.3791   25.9377 C   0  0  0  0  0  0  0  0  0  0  0  0
   20.3236   21.3658   26.1898 H   0  0  0  0  0  0  0  0  0  0  0  0
   18.8617   20.5263   25.6811 H   0  0  0  0  0  0  0  0  0  0  0  0
   20.6871   19.7974   24.7233 C   0  0  0  0  0  0  0  0  0  0  0  0
   20.6966   20.5453   23.9219 H   0  0  0  0  0  0  0  0  0  0  0  0
   21.7359   19.6309   25.0054 H   0  0  0  0  0  0  0  0  0  0  0  0
   20.0708   18.4734   24.2090 C   0  0  0  0  0  0  0  0  0  0  0  0
   19.0006   18.6053   23.9990 H   0  0  0  0  0  0  0  0  0  0  0  0
   20.1329   17.7278   25.0136 H   0  0  0  0  0  0  0  0  0  0  0  0
   20.7927   17.9067   22.9602 C   0  0  0  0  0  0  0  0  0  0  0  0
   21.8445   18.2238   22.9511 H   0  0  0  0  0  0  0  0  0  0  0  0
   20.8125   16.8116   23.0448 H   0  0  0  0  0  0  0  0  0  0  0  0
   20.1195   18.2573   21.6093 C   0  0  0  0  0  0  0  0  0  0  0  0
   19.0984   17.8524   21.5949 H   0  0  0  0  0  0  0  0  0  0  0  0
   20.6662   17.7417   20.8080 H   0  0  0  0  0  0  0  0  0  0  0  0
   20.0760   19.7683   21.2937 C   0  0  0  0  0  0  0  0  0  0  0  0
   19.4328   20.2822   22.0200 H   0  0  0  0  0  0  0  0  0  0  0  0
   21.0830   20.1971   21.3893 H   0  0  0  0  0  0  0  0  0  0  0  0
   19.5371   20.0353   19.8737 C   0  0  0  0  0  0  0  0  0  0  0  0
   20.1768   19.5653   19.1153 H   0  0  0  0  0  0  0  0  0  0  0  0
   18.5201   19.6380   19.7589 H   0  0  0  0  0  0  0  0  0  0  0  0
   19.5051   21.1133   19.6688 H   0  0  0  0  0  0  0  0  0  0  0  0
  1  2  1  0  0  0  0
  1  3  2  0  0  0  0
  1  4  1  0  0  0  0
  4  5  1  0  0  0  0
  4  6  1  0  0  0  0
  4  7  1  0  0  0  0
  7  8  1  0  0  0  0
  7  9  1  0  0  0  0
  7 10  1  0  0  0  0
 10 11  1  0  0  0  0
 10 12  1  0  0  0  0
 10 13  1  0  0  0  0
 13 14  1  0  0  0  0
 13 15  1  0  0  0  0
 13 16  1  0  0  0  0
 16 17  1  0  0  0  0
 16 18  1  0  0  0  0
 16 19  1  0  0  0  0
 19 20  1  0  0  0  0
 19 21  1  0  0  0  0
 19 22  1  0  0  0  0
 22 23  1  0  0  0  0
 22 24  1  0  0  0  0
 22 25  1  0  0  0  0
M  END
> <VM2 Rank>
127

> <Conf_Id>
818

> <Probability>
0.00

> <Sum Probability>
99.95

> <Delta G>
5.310

> <G>
-2.653

> <E>
-27.733

> <-TS>
25.080

> <U+W>
-48.300

> <U>
11.346

> <W>
-59.646

> <W(PB)>
-62.070

> <W(SA)>
2.425

> <Valence>
10.839

> <Coulomb>
-0.332

> <VdW>
0.838

> <VdW6>
-10.154

> <VdW12>
10.991

> <Bond>
0.219

> <Angle>
3.144

> <Pdih>
7.476

> <Idih>
0.000

> <Tether>
0.000

$$$$
VeraChem MOL file


 25 24  0  0  0  0  0  0  0  0999 V2000     
   19.8022   19.5167   26.9657 C   0  0  0  0  0  0  0  0  0  0  0  0
   20.7710   19.9248   27.5757 O   0  5  0  0  0  0  0  0  0  0  0  0
   18.7373   20.1010   26.9257 O   0  0  0  0  0  0  0  0  0  0  0  0
   19.9206   18.1866   26.2269 C   0  0  0  0  0  0  0  0  0  0  0  0
   19.0165   17.6069   26.4469 H   0  0  0  0  0  0  0  0  0  0  0  0
   20.7659   17.6275   26.6459 H   0  0  0  0  0  0  0  0  0  0  0  0
   20.0816   18.3321   24.6913 C   0  0  0  0  0  0  0  0  0  0  0  0
   20.0312   17.3366   24.2304 H   0  0  0  0  0  0  0  0  0  0  0  0
   19.2353   18.9124   24.3005 H   0  0  0  0  0  0  0  0  0  0  0  0
   21.4128   19.0125   24.2970 C   0  0  0  0  0  0  0  0  0  0  0  0
   22.2404   18.4977   24.8040 H   0  0  0  0  0  0  0  0  0  0  0  0
   21.4214   20.0462   24.6692 H   0  0  0  0  0  0  0  0  0  0  0  0
   21.7000   19.0143   22.7745 C   0  0  0  0  0  0  0  0  0  0  0  0
   22.6883   19.4703   22.6259 H   0  0  0  0  0  0  0  0  0  0  0  0
   21.7891   17.9833   22.4059 H   0  0  0  0  0  0  0  0  0  0  0  0
   20.6725   19.8033   21.9237 C   0  0  0  0  0  0  0  0  0  0  0  0
   21.2091   20.3060   21.1075 H   0  0  0  0  0  0  0  0  0  0  0  0
   20.2168   20.6007   22.5265 H   0  0  0  0  0  0  0  0  0  0  0  0
   19.5774   18.9079   21.2992 C   0  0  0  0  0  0  0  0  0  0  0  0
   20.0451   18.1497   20.6561 H   0  0  0  0  0  0  0  0  0  0  0  0
   19.0323   18.3640   22.0800 H   0  0  0  0  0  0  0  0  0  0  0  0
   18.5775   19.7349   20.4662 C   0  0  0  0  0  0  0  0  0  0  0  0
   18.0698   20.4813   21.0911 H   0  0  0  0  0  0  0  0  0  0  0  0
   19.0875   20.2615   19.6489 H   0  0  0  0  0  0  0  0  0  0  0  0
   17.8111   19.0849   20.0246 H   0  0  0  0  0  0  0  0  0  0  0  0
  1  2  1  0  0  0  0
  1  3  2  0  0  0  0
  1  4  1  0  0  0  0
  4  5  1  0  0  0  0
  4  6  1  0  0  0  0
  4  7  1  0  0  0  0
  7  8  1  0  0  0  0
  7  9  1  0  0  0  0
  7 10  1  0  0  0  0
 10 11  1  0  0  0  0
 10 12  1  0  0  0  0
 10 13  1  0  0  0  0
 13 14  1  0  0  0  0
 13 15  1  0  0  0  0
 13 16  1  0  0  0  0
 16 17  1  0  0  0  0
 16 18  1  0  0  0  0
 16 19  1  0  0  0  0
 19 20  1  0  0  0  0
 19 21  1  0  0  0  0
 19 22  1  0  0  0  0
 22 23  1  0  0  0  0
 22 24  1  0  0  0  0
 22 25  1  0  0  0  0
M  END
> <VM2 Rank>
128

> <Conf_Id>
287

> <Probability>
0.00

> <Sum Probability>
99.95

> <Delta G>
5.333

> <G>
-2.629

> <E>
-27.708

> <-TS>
25.078

> <U+W>
-48.275

> <U>
12.003

> <W>
-60.279

> <W(PB)>
-62.720

> <W(SA)>
2.441

> <Valence>
10.797

> <Coulomb>
0.448

> <VdW>
0.758

> <VdW6>
-10.232

> <VdW12>
10.990

> <Bond>
0.215

> <Angle>
3.136

> <Pdih>
7.446

> <Idih>
0.001

> <Tether>
0.000

$$$$
VeraChem MOL file


 25 24  0  0  0  0  0  0  0  0999 V2000     
   20.0181   19.3219   26.9638 C   0  0  0  0  0  0  0  0  0  0  0  0
   20.8918   19.6652   27.7361 O   0  5  0  0  0  0  0  0  0  0  0  0
   18.8749   19.7312   27.0176 O   0  0  0  0  0  0  0  0  0  0  0  0
   20.3711   18.2982   25.8884 C   0  0  0  0  0  0  0  0  0  0  0  0
   19.4423   17.8897   25.4743 H   0  0  0  0  0  0  0  0  0  0  0  0
   20.8824   17.4658   26.3855 H   0  0  0  0  0  0  0  0  0  0  0  0
   21.2762   18.8551   24.7558 C   0  0  0  0  0  0  0  0  0  0  0  0
   22.2211   19.2002   25.1976 H   0  0  0  0  0  0  0  0  0  0  0  0
   21.5433   18.0388   24.0723 H   0  0  0  0  0  0  0  0  0  0  0  0
   20.6485   20.0228   23.9518 C   0  0  0  0  0  0  0  0  0  0  0  0
   21.3733   20.3691   23.2034 H   0  0  0  0  0  0  0  0  0  0  0  0
   20.4890   20.8756   24.6256 H   0  0  0  0  0  0  0  0  0  0  0  0
   19.3062   19.6918   23.2486 C   0  0  0  0  0  0  0  0  0  0  0  0
   18.5394   19.4964   24.0100 H   0  0  0  0  0  0  0  0  0  0  0  0
   18.9598   20.5848   22.7123 H   0  0  0  0  0  0  0  0  0  0  0  0
   19.3537   18.4919   22.2662 C   0  0  0  0  0  0  0  0  0  0  0  0
   18.3548   18.3564   21.8301 H   0  0  0  0  0  0  0  0  0  0  0  0
   19.5599   17.5716   22.8279 H   0  0  0  0  0  0  0  0  0  0  0  0
   20.3858   18.6217   21.1189 C   0  0  0  0  0  0  0  0  0  0  0  0
   21.4024   18.6793   21.5297 H   0  0  0  0  0  0  0  0  0  0  0  0
   20.3536   17.7054   20.5136 H   0  0  0  0  0  0  0  0  0  0  0  0
   20.1266   19.8343   20.1989 C   0  0  0  0  0  0  0  0  0  0  0  0
   20.8295   19.8344   19.3559 H   0  0  0  0  0  0  0  0  0  0  0  0
   19.1080   19.8072   19.7909 H   0  0  0  0  0  0  0  0  0  0  0  0
   20.2560   20.7799   20.7403 H   0  0  0  0  0  0  0  0  0  0  0  0
  1  2  1  0  0  0  0
  1  3  2  0  0  0  0
  1  4  1  0  0  0  0
  4  5  1  0  0  0  0
  4  6  1  0  0  0  0
  4  7  1  0  0  0  0
  7  8  1  0  0  0  0
  7  9  1  0  0  0  0
  7 10  1  0  0  0  0
 10 11  1  0  0  0  0
 10 12  1  0  0  0  0
 10 13  1  0  0  0  0
 13 14  1  0  0  0  0
 13 15  1  0  0  0  0
 13 16  1  0  0  0  0
 16 17  1  0  0  0  0
 16 18  1  0  0  0  0
 16 19  1  0  0  0  0
 19 20  1  0  0  0  0
 19 21  1  0  0  0  0
 19 22  1  0  0  0  0
 22 23  1  0  0  0  0
 22 24  1  0  0  0  0
 22 25  1  0  0  0  0
M  END
> <VM2 Rank>
129

> <Conf_Id>
220

> <Probability>
0.00

> <Sum Probability>
99.95

> <Delta G>
5.343

> <G>
-2.619

> <E>
-28.451

> <-TS>
25.832

> <U+W>
-49.019

> <U>
11.078

> <W>
-60.097

> <W(PB)>
-62.452

> <W(SA)>
2.355

> <Valence>
9.623

> <Coulomb>
0.949

> <VdW>
0.506

> <VdW6>
-12.338

> <VdW12>
12.844

> <Bond>
0.307

> <Angle>
3.790

> <Pdih>
5.525

> <Idih>
0.001

> <Tether>
0.000

$$$$
VeraChem MOL file


 25 24  0  0  0  0  0  0  0  0999 V2000     
   19.9355   19.2359   27.1834 C   0  0  0  0  0  0  0  0  0  0  0  0
   20.9936   19.4028   27.7577 O   0  5  0  0  0  0  0  0  0  0  0  0
   18.9141   19.8292   27.4694 O   0  0  0  0  0  0  0  0  0  0  0  0
   19.8793   18.2107   26.0542 C   0  0  0  0  0  0  0  0  0  0  0  0
   18.9838   17.5985   26.2132 H   0  0  0  0  0  0  0  0  0  0  0  0
   20.7425   17.5404   26.1456 H   0  0  0  0  0  0  0  0  0  0  0  0
   19.8337   18.8348   24.6351 C   0  0  0  0  0  0  0  0  0  0  0  0
   19.6377   18.0335   23.9115 H   0  0  0  0  0  0  0  0  0  0  0  0
   18.9921   19.5386   24.5730 H   0  0  0  0  0  0  0  0  0  0  0  0
   21.1500   19.5538   24.2586 C   0  0  0  0  0  0  0  0  0  0  0  0
   21.9721   18.8253   24.2441 H   0  0  0  0  0  0  0  0  0  0  0  0
   21.4003   20.2825   25.0418 H   0  0  0  0  0  0  0  0  0  0  0  0
   21.1010   20.3018   22.9026 C   0  0  0  0  0  0  0  0  0  0  0  0
   20.3462   21.0991   22.9396 H   0  0  0  0  0  0  0  0  0  0  0  0
   22.0656   20.8109   22.7716 H   0  0  0  0  0  0  0  0  0  0  0  0
   20.8642   19.3932   21.6694 C   0  0  0  0  0  0  0  0  0  0  0  0
   21.2349   18.3789   21.8710 H   0  0  0  0  0  0  0  0  0  0  0  0
   21.4646   19.7771   20.8333 H   0  0  0  0  0  0  0  0  0  0  0  0
   19.3859   19.3471   21.2182 C   0  0  0  0  0  0  0  0  0  0  0  0
   18.7434   18.9997   22.0362 H   0  0  0  0  0  0  0  0  0  0  0  0
   19.0482   20.3609   20.9626 H   0  0  0  0  0  0  0  0  0  0  0  0
   19.1956   18.4246   19.9973 C   0  0  0  0  0  0  0  0  0  0  0  0
   18.1434   18.4083   19.6851 H   0  0  0  0  0  0  0  0  0  0  0  0
   19.7966   18.7701   19.1460 H   0  0  0  0  0  0  0  0  0  0  0  0
   19.4951   17.3951   20.2334 H   0  0  0  0  0  0  0  0  0  0  0  0
  1  2  1  0  0  0  0
  1  3  2  0  0  0  0
  1  4  1  0  0  0  0
  4  5  1  0  0  0  0
  4  6  1  0  0  0  0
  4  7  1  0  0  0  0
  7  8  1  0  0  0  0
  7  9  1  0  0  0  0
  7 10  1  0  0  0  0
 10 11  1  0  0  0  0
 10 12  1  0  0  0  0
 10 13  1  0  0  0  0
 13 14  1  0  0  0  0
 13 15  1  0  0  0  0
 13 16  1  0  0  0  0
 16 17  1  0  0  0  0
 16 18  1  0  0  0  0
 16 19  1  0  0  0  0
 19 20  1  0  0  0  0
 19 21  1  0  0  0  0
 19 22  1  0  0  0  0
 22 23  1  0  0  0  0
 22 24  1  0  0  0  0
 22 25  1  0  0  0  0
M  END
> <VM2 Rank>
130

> <Conf_Id>
569

> <Probability>
0.00

> <Sum Probability>
99.95

> <Delta G>
5.350

> <G>
-2.612

> <E>
-27.723

> <-TS>
25.111

> <U+W>
-48.291

> <U>
11.468

> <W>
-59.758

> <W(PB)>
-62.184

> <W(SA)>
2.426

> <Valence>
10.870

> <Coulomb>
-0.266

> <VdW>
0.864

> <VdW6>
-10.146

> <VdW12>
11.010

> <Bond>
0.218

> <Angle>
3.178

> <Pdih>
7.473

> <Idih>
0.001

> <Tether>
0.000

$$$$
VeraChem MOL file


 25 24  0  0  0  0  0  0  0  0999 V2000     
   20.2840   19.3388   26.9606 C   0  0  0  0  0  0  0  0  0  0  0  0
   21.3668   19.8900   26.9886 O   0  5  0  0  0  0  0  0  0  0  0  0
   19.3918   19.5696   27.7533 O   0  0  0  0  0  0  0  0  0  0  0  0
   20.0391   18.2770   25.8921 C   0  0  0  0  0  0  0  0  0  0  0  0
   19.6492   17.3871   26.3997 H   0  0  0  0  0  0  0  0  0  0  0  0
   21.0024   17.9892   25.4561 H   0  0  0  0  0  0  0  0  0  0  0  0
   19.0446   18.7127   24.7816 C   0  0  0  0  0  0  0  0  0  0  0  0
   18.8678   17.8682   24.1031 H   0  0  0  0  0  0  0  0  0  0  0  0
   18.0740   18.9355   25.2455 H   0  0  0  0  0  0  0  0  0  0  0  0
   19.5001   19.9496   23.9651 C   0  0  0  0  0  0  0  0  0  0  0  0
   19.5652   20.8167   24.6363 H   0  0  0  0  0  0  0  0  0  0  0  0
   18.7202   20.1998   23.2340 H   0  0  0  0  0  0  0  0  0  0  0  0
   20.8572   19.7910   23.2308 C   0  0  0  0  0  0  0  0  0  0  0  0
   21.0747   20.7199   22.6880 H   0  0  0  0  0  0  0  0  0  0  0  0
   21.6598   19.6959   23.9741 H   0  0  0  0  0  0  0  0  0  0  0  0
   20.9401   18.5933   22.2480 C   0  0  0  0  0  0  0  0  0  0  0  0
   20.8657   17.6551   22.8131 H   0  0  0  0  0  0  0  0  0  0  0  0
   21.9379   18.5853   21.7890 H   0  0  0  0  0  0  0  0  0  0  0  0
   19.8739   18.5889   21.1249 C   0  0  0  0  0  0  0  0  0  0  0  0
   20.0084   17.6832   20.5179 H   0  0  0  0  0  0  0  0  0  0  0  0
   18.8679   18.5175   21.5591 H   0  0  0  0  0  0  0  0  0  0  0  0
   19.9556   19.8232   20.2009 C   0  0  0  0  0  0  0  0  0  0  0  0
   19.7194   20.7455   20.7463 H   0  0  0  0  0  0  0  0  0  0  0  0
   20.9598   19.9251   19.7696 H   0  0  0  0  0  0  0  0  0  0  0  0
   19.2393   19.7325   19.3742 H   0  0  0  0  0  0  0  0  0  0  0  0
  1  2  1  0  0  0  0
  1  3  2  0  0  0  0
  1  4  1  0  0  0  0
  4  5  1  0  0  0  0
  4  6  1  0  0  0  0
  4  7  1  0  0  0  0
  7  8  1  0  0  0  0
  7  9  1  0  0  0  0
  7 10  1  0  0  0  0
 10 11  1  0  0  0  0
 10 12  1  0  0  0  0
 10 13  1  0  0  0  0
 13 14  1  0  0  0  0
 13 15  1  0  0  0  0
 13 16  1  0  0  0  0
 16 17  1  0  0  0  0
 16 18  1  0  0  0  0
 16 19  1  0  0  0  0
 19 20  1  0  0  0  0
 19 21  1  0  0  0  0
 19 22  1  0  0  0  0
 22 23  1  0  0  0  0
 22 24  1  0  0  0  0
 22 25  1  0  0  0  0
M  END
> <VM2 Rank>
131

> <Conf_Id>
1100

> <Probability>
0.00

> <Sum Probability>
99.96

> <Delta G>
5.351

> <G>
-2.611

> <E>
-28.444

> <-TS>
25.833

> <U+W>
-49.011

> <U>
11.078

> <W>
-60.090

> <W(PB)>
-62.438

> <W(SA)>
2.348

> <Valence>
9.623

> <Coulomb>
0.949

> <VdW>
0.506

> <VdW6>
-12.338

> <VdW12>
12.845

> <Bond>
0.307

> <Angle>
3.790

> <Pdih>
5.525

> <Idih>
0.001

> <Tether>
0.000

$$$$
VeraChem MOL file


 25 24  0  0  0  0  0  0  0  0999 V2000     
   20.4845   19.3606   27.0977 C   0  0  0  0  0  0  0  0  0  0  0  0
   21.6095   19.8044   26.9778 O   0  5  0  0  0  0  0  0  0  0  0  0
   19.6450   19.8450   27.8311 O   0  0  0  0  0  0  0  0  0  0  0  0
   20.1094   18.1149   26.3000 C   0  0  0  0  0  0  0  0  0  0  0  0
   19.6029   17.4262   26.9864 H   0  0  0  0  0  0  0  0  0  0  0  0
   21.0308   17.6176   25.9736 H   0  0  0  0  0  0  0  0  0  0  0  0
   19.1935   18.3986   25.0812 C   0  0  0  0  0  0  0  0  0  0  0  0
   18.8655   17.4422   24.6518 H   0  0  0  0  0  0  0  0  0  0  0  0
   18.2878   18.9207   25.4199 H   0  0  0  0  0  0  0  0  0  0  0  0
   19.9001   19.2310   23.9877 C   0  0  0  0  0  0  0  0  0  0  0  0
   20.8150   18.7148   23.6739 H   0  0  0  0  0  0  0  0  0  0  0  0
   20.2136   20.1973   24.4059 H   0  0  0  0  0  0  0  0  0  0  0  0
   18.9763   19.4772   22.7715 C   0  0  0  0  0  0  0  0  0  0  0  0
   18.6099   18.5228   22.3695 H   0  0  0  0  0  0  0  0  0  0  0  0
   18.0894   20.0228   23.1215 H   0  0  0  0  0  0  0  0  0  0  0  0
   19.6493   20.3040   21.6464 C   0  0  0  0  0  0  0  0  0  0  0  0
   20.4080   20.9765   22.0696 H   0  0  0  0  0  0  0  0  0  0  0  0
   18.8871   20.9574   21.2004 H   0  0  0  0  0  0  0  0  0  0  0  0
   20.2652   19.4595   20.5034 C   0  0  0  0  0  0  0  0  0  0  0  0
   19.4802   18.8552   20.0281 H   0  0  0  0  0  0  0  0  0  0  0  0
   20.6388   20.1424   19.7280 H   0  0  0  0  0  0  0  0  0  0  0  0
   21.4202   18.5389   20.9492 C   0  0  0  0  0  0  0  0  0  0  0  0
   21.0565   17.7363   21.6027 H   0  0  0  0  0  0  0  0  0  0  0  0
   21.8930   18.0670   20.0782 H   0  0  0  0  0  0  0  0  0  0  0  0
   22.1908   19.1058   21.4876 H   0  0  0  0  0  0  0  0  0  0  0  0
  1  2  1  0  0  0  0
  1  3  2  0  0  0  0
  1  4  1  0  0  0  0
  4  5  1  0  0  0  0
  4  6  1  0  0  0  0
  4  7  1  0  0  0  0
  7  8  1  0  0  0  0
  7  9  1  0  0  0  0
  7 10  1  0  0  0  0
 10 11  1  0  0  0  0
 10 12  1  0  0  0  0
 10 13  1  0  0  0  0
 13 14  1  0  0  0  0
 13 15  1  0  0  0  0
 13 16  1  0  0  0  0
 16 17  1  0  0  0  0
 16 18  1  0  0  0  0
 16 19  1  0  0  0  0
 19 20  1  0  0  0  0
 19 21  1  0  0  0  0
 19 22  1  0  0  0  0
 22 23  1  0  0  0  0
 22 24  1  0  0  0  0
 22 25  1  0  0  0  0
M  END
> <VM2 Rank>
132

> <Conf_Id>
705

> <Probability>
0.00

> <Sum Probability>
99.96

> <Delta G>
5.409

> <G>
-2.554

> <E>
-27.600

> <-TS>
25.047

> <U+W>
-48.168

> <U>
11.935

> <W>
-60.103

> <W(PB)>
-62.535

> <W(SA)>
2.432

> <Valence>
10.764

> <Coulomb>
0.351

> <VdW>
0.820

> <VdW6>
-10.096

> <VdW12>
10.916

> <Bond>
0.214

> <Angle>
3.144

> <Pdih>
7.405

> <Idih>
0.001

> <Tether>
0.000

$$$$
VeraChem MOL file


 25 24  0  0  0  0  0  0  0  0999 V2000     
   20.3459   18.7476   26.8315 C   0  0  0  0  0  0  0  0  0  0  0  0
   21.3839   19.1048   27.3531 O   0  5  0  0  0  0  0  0  0  0  0  0
   20.0806   17.5873   26.5862 O   0  0  0  0  0  0  0  0  0  0  0  0
   19.3105   19.8147   26.4869 C   0  0  0  0  0  0  0  0  0  0  0  0
   19.2145   20.4720   27.3590 H   0  0  0  0  0  0  0  0  0  0  0  0
   18.3381   19.3268   26.3482 H   0  0  0  0  0  0  0  0  0  0  0  0
   19.6680   20.6604   25.2372 C   0  0  0  0  0  0  0  0  0  0  0  0
   18.9451   21.4822   25.1449 H   0  0  0  0  0  0  0  0  0  0  0  0
   20.6552   21.1217   25.3796 H   0  0  0  0  0  0  0  0  0  0  0  0
   19.6632   19.8273   23.9357 C   0  0  0  0  0  0  0  0  0  0  0  0
   18.6783   19.3595   23.8017 H   0  0  0  0  0  0  0  0  0  0  0  0
   20.3980   19.0167   24.0250 H   0  0  0  0  0  0  0  0  0  0  0  0
   19.9986   20.6929   22.7009 C   0  0  0  0  0  0  0  0  0  0  0  0
   19.3370   21.5697   22.6894 H   0  0  0  0  0  0  0  0  0  0  0  0
   21.0222   21.0805   22.7948 H   0  0  0  0  0  0  0  0  0  0  0  0
   19.8493   19.9556   21.3462 C   0  0  0  0  0  0  0  0  0  0  0  0
   20.0566   20.6836   20.5501 H   0  0  0  0  0  0  0  0  0  0  0  0
   18.8063   19.6432   21.2002 H   0  0  0  0  0  0  0  0  0  0  0  0
   20.8022   18.7491   21.1552 C   0  0  0  0  0  0  0  0  0  0  0  0
   21.1107   18.7091   20.1014 H   0  0  0  0  0  0  0  0  0  0  0  0
   21.7226   18.8946   21.7375 H   0  0  0  0  0  0  0  0  0  0  0  0
   20.1508   17.3944   21.5129 C   0  0  0  0  0  0  0  0  0  0  0  0
   19.2666   17.2095   20.8891 H   0  0  0  0  0  0  0  0  0  0  0  0
   20.8581   16.5722   21.3444 H   0  0  0  0  0  0  0  0  0  0  0  0
   19.8381   17.3556   22.5627 H   0  0  0  0  0  0  0  0  0  0  0  0
  1  2  1  0  0  0  0
  1  3  2  0  0  0  0
  1  4  1  0  0  0  0
  4  5  1  0  0  0  0
  4  6  1  0  0  0  0
  4  7  1  0  0  0  0
  7  8  1  0  0  0  0
  7  9  1  0  0  0  0
  7 10  1  0  0  0  0
 10 11  1  0  0  0  0
 10 12  1  0  0  0  0
 10 13  1  0  0  0  0
 13 14  1  0  0  0  0
 13 15  1  0  0  0  0
 13 16  1  0  0  0  0
 16 17  1  0  0  0  0
 16 18  1  0  0  0  0
 16 19  1  0  0  0  0
 19 20  1  0  0  0  0
 19 21  1  0  0  0  0
 19 22  1  0  0  0  0
 22 23  1  0  0  0  0
 22 24  1  0  0  0  0
 22 25  1  0  0  0  0
M  END
> <VM2 Rank>
133

> <Conf_Id>
225

> <Probability>
0.00

> <Sum Probability>
99.96

> <Delta G>
5.481

> <G>
-2.482

> <E>
-27.541

> <-TS>
25.059

> <U+W>
-48.108

> <U>
12.670

> <W>
-60.778

> <W(PB)>
-63.216

> <W(SA)>
2.438

> <Valence>
10.772

> <Coulomb>
1.134

> <VdW>
0.764

> <VdW6>
-10.207

> <VdW12>
10.972

> <Bond>
0.213

> <Angle>
3.170

> <Pdih>
7.388

> <Idih>
0.001

> <Tether>
0.000

$$$$
VeraChem MOL file


 25 24  0  0  0  0  0  0  0  0999 V2000     
   20.2834   19.8164   26.8393 C   0  0  0  0  0  0  0  0  0  0  0  0
   21.4076   20.2672   26.7392 O   0  5  0  0  0  0  0  0  0  0  0  0
   19.3171   20.4822   27.1558 O   0  0  0  0  0  0  0  0  0  0  0  0
   20.0754   18.3273   26.5772 C   0  0  0  0  0  0  0  0  0  0  0  0
   19.4587   17.9338   27.3937 H   0  0  0  0  0  0  0  0  0  0  0  0
   21.0465   17.8216   26.6404 H   0  0  0  0  0  0  0  0  0  0  0  0
   19.3965   18.0152   25.2183 C   0  0  0  0  0  0  0  0  0  0  0  0
   19.1617   16.9431   25.1746 H   0  0  0  0  0  0  0  0  0  0  0  0
   18.4392   18.5515   25.1584 H   0  0  0  0  0  0  0  0  0  0  0  0
   20.2831   18.3929   24.0104 C   0  0  0  0  0  0  0  0  0  0  0  0
   21.2421   17.8619   24.0814 H   0  0  0  0  0  0  0  0  0  0  0  0
   20.5155   19.4639   24.0484 H   0  0  0  0  0  0  0  0  0  0  0  0
   19.5993   18.0409   22.6683 C   0  0  0  0  0  0  0  0  0  0  0  0
   19.4169   16.9577   22.6508 H   0  0  0  0  0  0  0  0  0  0  0  0
   18.6122   18.5188   22.6054 H   0  0  0  0  0  0  0  0  0  0  0  0
   20.4506   18.4158   21.4284 C   0  0  0  0  0  0  0  0  0  0  0  0
   20.2952   17.6446   20.6617 H   0  0  0  0  0  0  0  0  0  0  0  0
   21.5204   18.3795   21.6757 H   0  0  0  0  0  0  0  0  0  0  0  0
   20.0980   19.7830   20.7918 C   0  0  0  0  0  0  0  0  0  0  0  0
   20.7001   19.9093   19.8815 H   0  0  0  0  0  0  0  0  0  0  0  0
   19.0482   19.7783   20.4676 H   0  0  0  0  0  0  0  0  0  0  0  0
   20.3421   20.9932   21.7173 C   0  0  0  0  0  0  0  0  0  0  0  0
   19.6437   20.9914   22.5636 H   0  0  0  0  0  0  0  0  0  0  0  0
   21.3668   20.9882   22.1110 H   0  0  0  0  0  0  0  0  0  0  0  0
   20.1942   21.9323   21.1688 H   0  0  0  0  0  0  0  0  0  0  0  0
  1  2  1  0  0  0  0
  1  3  2  0  0  0  0
  1  4  1  0  0  0  0
  4  5  1  0  0  0  0
  4  6  1  0  0  0  0
  4  7  1  0  0  0  0
  7  8  1  0  0  0  0
  7  9  1  0  0  0  0
  7 10  1  0  0  0  0
 10 11  1  0  0  0  0
 10 12  1  0  0  0  0
 10 13  1  0  0  0  0
 13 14  1  0  0  0  0
 13 15  1  0  0  0  0
 13 16  1  0  0  0  0
 16 17  1  0  0  0  0
 16 18  1  0  0  0  0
 16 19  1  0  0  0  0
 19 20  1  0  0  0  0
 19 21  1  0  0  0  0
 19 22  1  0  0  0  0
 22 23  1  0  0  0  0
 22 24  1  0  0  0  0
 22 25  1  0  0  0  0
M  END
> <VM2 Rank>
134

> <Conf_Id>
549

> <Probability>
0.00

> <Sum Probability>
99.97

> <Delta G>
5.486

> <G>
-2.476

> <E>
-27.537

> <-TS>
25.061

> <U+W>
-48.104

> <U>
12.640

> <W>
-60.744

> <W(PB)>
-63.145

> <W(SA)>
2.401

> <Valence>
10.756

> <Coulomb>
1.146

> <VdW>
0.738

> <VdW6>
-10.212

> <VdW12>
10.950

> <Bond>
0.214

> <Angle>
3.129

> <Pdih>
7.413

> <Idih>
0.001

> <Tether>
0.000

$$$$
VeraChem MOL file


 25 24  0  0  0  0  0  0  0  0999 V2000     
   19.7440   19.5543   26.9320 C   0  0  0  0  0  0  0  0  0  0  0  0
   20.5481   20.1568   27.6157 O   0  5  0  0  0  0  0  0  0  0  0  0
   18.6311   19.9712   26.6775 O   0  0  0  0  0  0  0  0  0  0  0  0
   20.1483   18.1894   26.3819 C   0  0  0  0  0  0  0  0  0  0  0  0
   19.2407   17.6459   26.0927 H   0  0  0  0  0  0  0  0  0  0  0  0
   20.6069   17.6272   27.2038 H   0  0  0  0  0  0  0  0  0  0  0  0
   21.1347   18.2580   25.1871 C   0  0  0  0  0  0  0  0  0  0  0  0
   22.0275   18.8253   25.4848 H   0  0  0  0  0  0  0  0  0  0  0  0
   21.4720   17.2413   24.9442 H   0  0  0  0  0  0  0  0  0  0  0  0
   20.5016   18.8982   23.9312 C   0  0  0  0  0  0  0  0  0  0  0  0
   20.1852   19.9256   24.1581 H   0  0  0  0  0  0  0  0  0  0  0  0
   19.6005   18.3340   23.6588 H   0  0  0  0  0  0  0  0  0  0  0  0
   21.4847   18.9129   22.7397 C   0  0  0  0  0  0  0  0  0  0  0  0
   22.4303   19.3686   23.0636 H   0  0  0  0  0  0  0  0  0  0  0  0
   21.7234   17.8803   22.4507 H   0  0  0  0  0  0  0  0  0  0  0  0
   20.9721   19.6889   21.5003 C   0  0  0  0  0  0  0  0  0  0  0  0
   21.7726   19.6748   20.7480 H   0  0  0  0  0  0  0  0  0  0  0  0
   20.8205   20.7469   21.7545 H   0  0  0  0  0  0  0  0  0  0  0  0
   19.6919   19.1044   20.8526 C   0  0  0  0  0  0  0  0  0  0  0  0
   19.7623   19.2269   19.7630 H   0  0  0  0  0  0  0  0  0  0  0  0
   19.6326   18.0225   21.0350 H   0  0  0  0  0  0  0  0  0  0  0  0
   18.3965   19.7998   21.3279 C   0  0  0  0  0  0  0  0  0  0  0  0
   18.2536   19.7022   22.4102 H   0  0  0  0  0  0  0  0  0  0  0  0
   18.4166   20.8701   21.0848 H   0  0  0  0  0  0  0  0  0  0  0  0
   17.5209   19.3598   20.8335 H   0  0  0  0  0  0  0  0  0  0  0  0
  1  2  1  0  0  0  0
  1  3  2  0  0  0  0
  1  4  1  0  0  0  0
  4  5  1  0  0  0  0
  4  6  1  0  0  0  0
  4  7  1  0  0  0  0
  7  8  1  0  0  0  0
  7  9  1  0  0  0  0
  7 10  1  0  0  0  0
 10 11  1  0  0  0  0
 10 12  1  0  0  0  0
 10 13  1  0  0  0  0
 13 14  1  0  0  0  0
 13 15  1  0  0  0  0
 13 16  1  0  0  0  0
 16 17  1  0  0  0  0
 16 18  1  0  0  0  0
 16 19  1  0  0  0  0
 19 20  1  0  0  0  0
 19 21  1  0  0  0  0
 19 22  1  0  0  0  0
 22 23  1  0  0  0  0
 22 24  1  0  0  0  0
 22 25  1  0  0  0  0
M  END
> <VM2 Rank>
135

> <Conf_Id>
192

> <Probability>
0.00

> <Sum Probability>
99.97

> <Delta G>
5.488

> <G>
-2.474

> <E>
-27.527

> <-TS>
25.053

> <U+W>
-48.094

> <U>
12.391

> <W>
-60.485

> <W(PB)>
-62.925

> <W(SA)>
2.439

> <Valence>
10.774

> <Coulomb>
0.820

> <VdW>
0.796

> <VdW6>
-10.157

> <VdW12>
10.953

> <Bond>
0.213

> <Angle>
3.162

> <Pdih>
7.399

> <Idih>
0.001

> <Tether>
0.000

$$$$
VeraChem MOL file


 25 24  0  0  0  0  0  0  0  0999 V2000     
   20.6618   19.0276   26.6865 C   0  0  0  0  0  0  0  0  0  0  0  0
   21.8558   19.1632   26.5048 O   0  5  0  0  0  0  0  0  0  0  0  0
   20.1561   18.0030   27.1007 O   0  0  0  0  0  0  0  0  0  0  0  0
   19.7515   20.2188   26.4007 C   0  0  0  0  0  0  0  0  0  0  0  0
   20.2174   21.1026   26.8520 H   0  0  0  0  0  0  0  0  0  0  0  0
   18.7969   20.0633   26.9178 H   0  0  0  0  0  0  0  0  0  0  0  0
   19.5089   20.4751   24.8909 C   0  0  0  0  0  0  0  0  0  0  0  0
   18.9741   21.4271   24.7734 H   0  0  0  0  0  0  0  0  0  0  0  0
   20.4762   20.5985   24.3890 H   0  0  0  0  0  0  0  0  0  0  0  0
   18.6855   19.3466   24.2231 C   0  0  0  0  0  0  0  0  0  0  0  0
   17.7106   19.2907   24.7262 H   0  0  0  0  0  0  0  0  0  0  0  0
   19.1660   18.3714   24.3820 H   0  0  0  0  0  0  0  0  0  0  0  0
   18.4476   19.5775   22.7093 C   0  0  0  0  0  0  0  0  0  0  0  0
   17.4383   19.2206   22.4630 H   0  0  0  0  0  0  0  0  0  0  0  0
   18.4475   20.6524   22.4826 H   0  0  0  0  0  0  0  0  0  0  0  0
   19.4431   18.8383   21.7799 C   0  0  0  0  0  0  0  0  0  0  0  0
   19.1397   19.0155   20.7391 H   0  0  0  0  0  0  0  0  0  0  0  0
   19.3599   17.7554   21.9448 H   0  0  0  0  0  0  0  0  0  0  0  0
   20.9157   19.2701   21.9535 C   0  0  0  0  0  0  0  0  0  0  0  0
   20.9943   20.3631   21.8760 H   0  0  0  0  0  0  0  0  0  0  0  0
   21.2715   18.9883   22.9537 H   0  0  0  0  0  0  0  0  0  0  0  0
   21.8270   18.6137   20.8966 C   0  0  0  0  0  0  0  0  0  0  0  0
   21.5235   18.9021   19.8817 H   0  0  0  0  0  0  0  0  0  0  0  0
   22.8701   18.9243   21.0394 H   0  0  0  0  0  0  0  0  0  0  0  0
   21.7863   17.5190   20.9691 H   0  0  0  0  0  0  0  0  0  0  0  0
  1  2  1  0  0  0  0
  1  3  2  0  0  0  0
  1  4  1  0  0  0  0
  4  5  1  0  0  0  0
  4  6  1  0  0  0  0
  4  7  1  0  0  0  0
  7  8  1  0  0  0  0
  7  9  1  0  0  0  0
  7 10  1  0  0  0  0
 10 11  1  0  0  0  0
 10 12  1  0  0  0  0
 10 13  1  0  0  0  0
 13 14  1  0  0  0  0
 13 15  1  0  0  0  0
 13 16  1  0  0  0  0
 16 17  1  0  0  0  0
 16 18  1  0  0  0  0
 16 19  1  0  0  0  0
 19 20  1  0  0  0  0
 19 21  1  0  0  0  0
 19 22  1  0  0  0  0
 22 23  1  0  0  0  0
 22 24  1  0  0  0  0
 22 25  1  0  0  0  0
M  END
> <VM2 Rank>
136

> <Conf_Id>
455

> <Probability>
0.00

> <Sum Probability>
99.97

> <Delta G>
5.492

> <G>
-2.471

> <E>
-27.597

> <-TS>
25.126

> <U+W>
-48.165

> <U>
12.689

> <W>
-60.854

> <W(PB)>
-63.277

> <W(SA)>
2.424

> <Valence>
10.791

> <Coulomb>
1.261

> <VdW>
0.637

> <VdW6>
-10.463

> <VdW12>
11.099

> <Bond>
0.216

> <Angle>
3.125

> <Pdih>
7.449

> <Idih>
0.001

> <Tether>
0.000

$$$$
VeraChem MOL file


 25 24  0  0  0  0  0  0  0  0999 V2000     
   19.7739   19.6962   26.8285 C   0  0  0  0  0  0  0  0  0  0  0  0
   20.5728   20.4501   27.3488 O   0  5  0  0  0  0  0  0  0  0  0  0
   18.6245   20.0017   26.5788 O   0  0  0  0  0  0  0  0  0  0  0  0
   20.2356   18.2810   26.4918 C   0  0  0  0  0  0  0  0  0  0  0  0
   19.3507   17.6479   26.3537 H   0  0  0  0  0  0  0  0  0  0  0  0
   20.7699   17.8935   27.3672 H   0  0  0  0  0  0  0  0  0  0  0  0
   21.1538   18.1967   25.2449 C   0  0  0  0  0  0  0  0  0  0  0  0
   22.0221   18.8552   25.3866 H   0  0  0  0  0  0  0  0  0  0  0  0
   21.5435   17.1734   25.1584 H   0  0  0  0  0  0  0  0  0  0  0  0
   20.4182   18.5751   23.9397 C   0  0  0  0  0  0  0  0  0  0  0  0
   20.0441   19.6037   24.0231 H   0  0  0  0  0  0  0  0  0  0  0  0
   19.5452   17.9219   23.8064 H   0  0  0  0  0  0  0  0  0  0  0  0
   21.3436   18.4619   22.7079 C   0  0  0  0  0  0  0  0  0  0  0  0
   22.1641   19.1865   22.8006 H   0  0  0  0  0  0  0  0  0  0  0  0
   21.8102   17.4674   22.7023 H   0  0  0  0  0  0  0  0  0  0  0  0
   20.6256   18.6677   21.3503 C   0  0  0  0  0  0  0  0  0  0  0  0
   19.8627   17.8905   21.2059 H   0  0  0  0  0  0  0  0  0  0  0  0
   21.3683   18.5074   20.5569 H   0  0  0  0  0  0  0  0  0  0  0  0
   20.0041   20.0728   21.1510 C   0  0  0  0  0  0  0  0  0  0  0  0
   20.5609   20.8215   21.7313 H   0  0  0  0  0  0  0  0  0  0  0  0
   20.1156   20.3593   20.0961 H   0  0  0  0  0  0  0  0  0  0  0  0
   18.5010   20.1309   21.5043 C   0  0  0  0  0  0  0  0  0  0  0  0
   18.3178   19.8775   22.5548 H   0  0  0  0  0  0  0  0  0  0  0  0
   18.1046   21.1395   21.3299 H   0  0  0  0  0  0  0  0  0  0  0  0
   17.9264   19.4324   20.8823 H   0  0  0  0  0  0  0  0  0  0  0  0
  1  2  1  0  0  0  0
  1  3  2  0  0  0  0
  1  4  1  0  0  0  0
  4  5  1  0  0  0  0
  4  6  1  0  0  0  0
  4  7  1  0  0  0  0
  7  8  1  0  0  0  0
  7  9  1  0  0  0  0
  7 10  1  0  0  0  0
 10 11  1  0  0  0  0
 10 12  1  0  0  0  0
 10 13  1  0  0  0  0
 13 14  1  0  0  0  0
 13 15  1  0  0  0  0
 13 16  1  0  0  0  0
 16 17  1  0  0  0  0
 16 18  1  0  0  0  0
 16 19  1  0  0  0  0
 19 20  1  0  0  0  0
 19 21  1  0  0  0  0
 19 22  1  0  0  0  0
 22 23  1  0  0  0  0
 22 24  1  0  0  0  0
 22 25  1  0  0  0  0
M  END
> <VM2 Rank>
137

> <Conf_Id>
989

> <Probability>
0.00

> <Sum Probability>
99.97

> <Delta G>
5.494

> <G>
-2.468

> <E>
-27.527

> <-TS>
25.058

> <U+W>
-48.094

> <U>
12.670

> <W>
-60.764

> <W(PB)>
-63.199

> <W(SA)>
2.435

> <Valence>
10.772

> <Coulomb>
1.133

> <VdW>
0.764

> <VdW6>
-10.207

> <VdW12>
10.971

> <Bond>
0.213

> <Angle>
3.170

> <Pdih>
7.388

> <Idih>
0.001

> <Tether>
0.000

$$$$
VeraChem MOL file


 25 24  0  0  0  0  0  0  0  0999 V2000     
   19.9547   19.7953   26.8431 C   0  0  0  0  0  0  0  0  0  0  0  0
   20.8352   20.5794   27.1384 O   0  5  0  0  0  0  0  0  0  0  0  0
   18.7803   20.0988   26.7695 O   0  0  0  0  0  0  0  0  0  0  0  0
   20.3450   18.3446   26.5740 C   0  0  0  0  0  0  0  0  0  0  0  0
   19.4480   17.7192   26.6587 H   0  0  0  0  0  0  0  0  0  0  0  0
   21.0255   18.0342   27.3756 H   0  0  0  0  0  0  0  0  0  0  0  0
   21.0268   18.1197   25.1995 C   0  0  0  0  0  0  0  0  0  0  0  0
   21.9062   18.7737   25.1184 H   0  0  0  0  0  0  0  0  0  0  0  0
   21.3955   17.0863   25.1488 H   0  0  0  0  0  0  0  0  0  0  0  0
   20.0717   18.3794   24.0128 C   0  0  0  0  0  0  0  0  0  0  0  0
   19.7054   19.4120   24.0578 H   0  0  0  0  0  0  0  0  0  0  0  0
   19.1903   17.7303   24.1050 H   0  0  0  0  0  0  0  0  0  0  0  0
   20.7639   18.1156   22.6548 C   0  0  0  0  0  0  0  0  0  0  0  0
   21.6802   18.7157   22.5700 H   0  0  0  0  0  0  0  0  0  0  0  0
   21.0828   17.0646   22.6316 H   0  0  0  0  0  0  0  0  0  0  0  0
   19.8435   18.3768   21.4354 C   0  0  0  0  0  0  0  0  0  0  0  0
   18.7931   18.2044   21.7070 H   0  0  0  0  0  0  0  0  0  0  0  0
   20.0786   17.6307   20.6641 H   0  0  0  0  0  0  0  0  0  0  0  0
   20.0037   19.7770   20.7929 C   0  0  0  0  0  0  0  0  0  0  0  0
   21.0378   19.9061   20.4447 H   0  0  0  0  0  0  0  0  0  0  0  0
   19.3698   19.8239   19.8968 H   0  0  0  0  0  0  0  0  0  0  0  0
   19.6281   20.9474   21.7256 C   0  0  0  0  0  0  0  0  0  0  0  0
   19.6421   21.8969   21.1752 H   0  0  0  0  0  0  0  0  0  0  0  0
   18.6217   20.8120   22.1426 H   0  0  0  0  0  0  0  0  0  0  0  0
   20.3402   21.0362   22.5556 H   0  0  0  0  0  0  0  0  0  0  0  0
  1  2  1  0  0  0  0
  1  3  2  0  0  0  0
  1  4  1  0  0  0  0
  4  5  1  0  0  0  0
  4  6  1  0  0  0  0
  4  7  1  0  0  0  0
  7  8  1  0  0  0  0
  7  9  1  0  0  0  0
  7 10  1  0  0  0  0
 10 11  1  0  0  0  0
 10 12  1  0  0  0  0
 10 13  1  0  0  0  0
 13 14  1  0  0  0  0
 13 15  1  0  0  0  0
 13 16  1  0  0  0  0
 16 17  1  0  0  0  0
 16 18  1  0  0  0  0
 16 19  1  0  0  0  0
 19 20  1  0  0  0  0
 19 21  1  0  0  0  0
 19 22  1  0  0  0  0
 22 23  1  0  0  0  0
 22 24  1  0  0  0  0
 22 25  1  0  0  0  0
M  END
> <VM2 Rank>
138

> <Conf_Id>
1076

> <Probability>
0.00

> <Sum Probability>
99.98

> <Delta G>
5.502

> <G>
-2.461

> <E>
-27.521

> <-TS>
25.060

> <U+W>
-48.089

> <U>
12.640

> <W>
-60.728

> <W(PB)>
-63.138

> <W(SA)>
2.409

> <Valence>
10.756

> <Coulomb>
1.145

> <VdW>
0.738

> <VdW6>
-10.212

> <VdW12>
10.950

> <Bond>
0.214

> <Angle>
3.129

> <Pdih>
7.413

> <Idih>
0.001

> <Tether>
0.000

$$$$
VeraChem MOL file


 25 24  0  0  0  0  0  0  0  0999 V2000     
   20.2231   19.7562   27.1088 C   0  0  0  0  0  0  0  0  0  0  0  0
   21.3112   19.8941   27.6322 O   0  5  0  0  0  0  0  0  0  0  0  0
   19.1774   19.7300   27.7273 O   0  0  0  0  0  0  0  0  0  0  0  0
   20.1692   19.5837   25.5951 C   0  0  0  0  0  0  0  0  0  0  0  0
   21.0044   20.1435   25.1575 H   0  0  0  0  0  0  0  0  0  0  0  0
   19.2399   20.0451   25.2441 H   0  0  0  0  0  0  0  0  0  0  0  0
   20.2298   18.0987   25.1579 C   0  0  0  0  0  0  0  0  0  0  0  0
   21.0751   17.6171   25.6688 H   0  0  0  0  0  0  0  0  0  0  0  0
   19.3256   17.5815   25.5071 H   0  0  0  0  0  0  0  0  0  0  0  0
   20.3973   17.8850   23.6323 C   0  0  0  0  0  0  0  0  0  0  0  0
   20.4791   16.8029   23.4621 H   0  0  0  0  0  0  0  0  0  0  0  0
   21.3537   18.3047   23.2991 H   0  0  0  0  0  0  0  0  0  0  0  0
   19.2233   18.4136   22.7648 C   0  0  0  0  0  0  0  0  0  0  0  0
   19.0887   17.7395   21.9092 H   0  0  0  0  0  0  0  0  0  0  0  0
   18.2889   18.3398   23.3374 H   0  0  0  0  0  0  0  0  0  0  0  0
   19.3808   19.8636   22.2292 C   0  0  0  0  0  0  0  0  0  0  0  0
   19.4545   20.5667   23.0662 H   0  0  0  0  0  0  0  0  0  0  0  0
   18.4592   20.1344   21.6965 H   0  0  0  0  0  0  0  0  0  0  0  0
   20.5813   20.1018   21.2784 C   0  0  0  0  0  0  0  0  0  0  0  0
   20.5689   21.1537   20.9616 H   0  0  0  0  0  0  0  0  0  0  0  0
   21.5285   19.9620   21.8146 H   0  0  0  0  0  0  0  0  0  0  0  0
   20.5594   19.2073   20.0201 C   0  0  0  0  0  0  0  0  0  0  0  0
   19.6071   19.3067   19.4833 H   0  0  0  0  0  0  0  0  0  0  0  0
   21.3668   19.4914   19.3329 H   0  0  0  0  0  0  0  0  0  0  0  0
   20.7016   18.1507   20.2799 H   0  0  0  0  0  0  0  0  0  0  0  0
  1  2  1  0  0  0  0
  1  3  2  0  0  0  0
  1  4  1  0  0  0  0
  4  5  1  0  0  0  0
  4  6  1  0  0  0  0
  4  7  1  0  0  0  0
  7  8  1  0  0  0  0
  7  9  1  0  0  0  0
  7 10  1  0  0  0  0
 10 11  1  0  0  0  0
 10 12  1  0  0  0  0
 10 13  1  0  0  0  0
 13 14  1  0  0  0  0
 13 15  1  0  0  0  0
 13 16  1  0  0  0  0
 16 17  1  0  0  0  0
 16 18  1  0  0  0  0
 16 19  1  0  0  0  0
 19 20  1  0  0  0  0
 19 21  1  0  0  0  0
 19 22  1  0  0  0  0
 22 23  1  0  0  0  0
 22 24  1  0  0  0  0
 22 25  1  0  0  0  0
M  END
> <VM2 Rank>
139

> <Conf_Id>
541

> <Probability>
0.00

> <Sum Probability>
99.98

> <Delta G>
5.606

> <G>
-2.356

> <E>
-27.058

> <-TS>
24.702

> <U+W>
-47.626

> <U>
11.838

> <W>
-59.464

> <W(PB)>
-61.851

> <W(SA)>
2.386

> <Valence>
11.761

> <Coulomb>
-1.045

> <VdW>
1.123

> <VdW6>
-10.752

> <VdW12>
11.874

> <Bond>
0.310

> <Angle>
4.049

> <Pdih>
7.401

> <Idih>
0.001

> <Tether>
0.000

$$$$
VeraChem MOL file


 25 24  0  0  0  0  0  0  0  0999 V2000     
   20.3510   19.5494   27.1270 C   0  0  0  0  0  0  0  0  0  0  0  0
   21.2953   20.3139   27.1541 O   0  5  0  0  0  0  0  0  0  0  0  0
   19.5521   19.4343   28.0355 O   0  0  0  0  0  0  0  0  0  0  0  0
   20.1451   18.7026   25.8762 C   0  0  0  0  0  0  0  0  0  0  0  0
   19.6865   17.7536   26.1783 H   0  0  0  0  0  0  0  0  0  0  0  0
   21.1340   18.4715   25.4641 H   0  0  0  0  0  0  0  0  0  0  0  0
   19.2647   19.4082   24.8125 C   0  0  0  0  0  0  0  0  0  0  0  0
   18.3214   19.7158   25.2845 H   0  0  0  0  0  0  0  0  0  0  0  0
   19.7531   20.3362   24.4884 H   0  0  0  0  0  0  0  0  0  0  0  0
   18.9318   18.5190   23.5870 C   0  0  0  0  0  0  0  0  0  0  0  0
   18.3019   19.0944   22.8999 H   0  0  0  0  0  0  0  0  0  0  0  0
   18.3072   17.6815   23.9260 H   0  0  0  0  0  0  0  0  0  0  0  0
   20.1531   17.9340   22.8251 C   0  0  0  0  0  0  0  0  0  0  0  0
   20.6949   17.2642   23.5053 H   0  0  0  0  0  0  0  0  0  0  0  0
   19.7951   17.2887   22.0116 H   0  0  0  0  0  0  0  0  0  0  0  0
   21.1587   18.9687   22.2509 C   0  0  0  0  0  0  0  0  0  0  0  0
   22.1483   18.4924   22.2300 H   0  0  0  0  0  0  0  0  0  0  0  0
   21.2669   19.8289   22.9220 H   0  0  0  0  0  0  0  0  0  0  0  0
   20.8571   19.4537   20.8110 C   0  0  0  0  0  0  0  0  0  0  0  0
   21.6890   20.0915   20.4820 H   0  0  0  0  0  0  0  0  0  0  0  0
   20.8409   18.5947   20.1262 H   0  0  0  0  0  0  0  0  0  0  0  0
   19.5441   20.2501   20.6667 C   0  0  0  0  0  0  0  0  0  0  0  0
   19.4913   20.7259   19.6790 H   0  0  0  0  0  0  0  0  0  0  0  0
   18.6717   19.5927   20.7596 H   0  0  0  0  0  0  0  0  0  0  0  0
   19.4738   21.0382   21.4277 H   0  0  0  0  0  0  0  0  0  0  0  0
  1  2  1  0  0  0  0
  1  3  2  0  0  0  0
  1  4  1  0  0  0  0
  4  5  1  0  0  0  0
  4  6  1  0  0  0  0
  4  7  1  0  0  0  0
  7  8  1  0  0  0  0
  7  9  1  0  0  0  0
  7 10  1  0  0  0  0
 10 11  1  0  0  0  0
 10 12  1  0  0  0  0
 10 13  1  0  0  0  0
 13 14  1  0  0  0  0
 13 15  1  0  0  0  0
 13 16  1  0  0  0  0
 16 17  1  0  0  0  0
 16 18  1  0  0  0  0
 16 19  1  0  0  0  0
 19 20  1  0  0  0  0
 19 21  1  0  0  0  0
 19 22  1  0  0  0  0
 22 23  1  0  0  0  0
 22 24  1  0  0  0  0
 22 25  1  0  0  0  0
M  END
> <VM2 Rank>
140

> <Conf_Id>
174

> <Probability>
0.00

> <Sum Probability>
99.98

> <Delta G>
5.685

> <G>
-2.278

> <E>
-26.875

> <-TS>
24.598

> <U+W>
-47.443

> <U>
12.177

> <W>
-59.620

> <W(PB)>
-62.022

> <W(SA)>
2.402

> <Valence>
11.760

> <Coulomb>
-0.594

> <VdW>
1.012

> <VdW6>
-10.894

> <VdW12>
11.906

> <Bond>
0.319

> <Angle>
4.240

> <Pdih>
7.199

> <Idih>
0.001

> <Tether>
0.000

$$$$
VeraChem MOL file


 25 24  0  0  0  0  0  0  0  0999 V2000     
   20.1362   19.6900   26.7732 C   0  0  0  0  0  0  0  0  0  0  0  0
   21.1820   20.2911   26.9220 O   0  5  0  0  0  0  0  0  0  0  0  0
   19.0430   20.1959   26.9363 O   0  0  0  0  0  0  0  0  0  0  0  0
   20.2032   18.2032   26.4293 C   0  0  0  0  0  0  0  0  0  0  0  0
   19.7667   17.6708   27.2822 H   0  0  0  0  0  0  0  0  0  0  0  0
   21.2547   17.8967   26.3732 H   0  0  0  0  0  0  0  0  0  0  0  0
   19.4500   17.7865   25.1344 C   0  0  0  0  0  0  0  0  0  0  0  0
   19.2361   16.7111   25.1996 H   0  0  0  0  0  0  0  0  0  0  0  0
   18.4722   18.2862   25.0913 H   0  0  0  0  0  0  0  0  0  0  0  0
   20.2298   18.0312   23.8184 C   0  0  0  0  0  0  0  0  0  0  0  0
   19.6727   17.5450   23.0078 H   0  0  0  0  0  0  0  0  0  0  0  0
   21.2062   17.5306   23.8679 H   0  0  0  0  0  0  0  0  0  0  0  0
   20.4279   19.5267   23.4719 C   0  0  0  0  0  0  0  0  0  0  0  0
   19.4587   20.0421   23.4747 H   0  0  0  0  0  0  0  0  0  0  0  0
   21.0288   20.0032   24.2556 H   0  0  0  0  0  0  0  0  0  0  0  0
   21.1514   19.7606   22.1210 C   0  0  0  0  0  0  0  0  0  0  0  0
   22.1504   19.3064   22.1696 H   0  0  0  0  0  0  0  0  0  0  0  0
   21.3159   20.8395   21.9957 H   0  0  0  0  0  0  0  0  0  0  0  0
   20.4184   19.2221   20.8669 C   0  0  0  0  0  0  0  0  0  0  0  0
   21.0269   19.4529   19.9818 H   0  0  0  0  0  0  0  0  0  0  0  0
   20.3491   18.1273   20.9076 H   0  0  0  0  0  0  0  0  0  0  0  0
   19.0111   19.8266   20.6726 C   0  0  0  0  0  0  0  0  0  0  0  0
   18.5748   19.4878   19.7241 H   0  0  0  0  0  0  0  0  0  0  0  0
   18.3319   19.5214   21.4786 H   0  0  0  0  0  0  0  0  0  0  0  0
   19.0536   20.9233   20.6536 H   0  0  0  0  0  0  0  0  0  0  0  0
  1  2  1  0  0  0  0
  1  3  2  0  0  0  0
  1  4  1  0  0  0  0
  4  5  1  0  0  0  0
  4  6  1  0  0  0  0
  4  7  1  0  0  0  0
  7  8  1  0  0  0  0
  7  9  1  0  0  0  0
  7 10  1  0  0  0  0
 10 11  1  0  0  0  0
 10 12  1  0  0  0  0
 10 13  1  0  0  0  0
 13 14  1  0  0  0  0
 13 15  1  0  0  0  0
 13 16  1  0  0  0  0
 16 17  1  0  0  0  0
 16 18  1  0  0  0  0
 16 19  1  0  0  0  0
 19 20  1  0  0  0  0
 19 21  1  0  0  0  0
 19 22  1  0  0  0  0
 22 23  1  0  0  0  0
 22 24  1  0  0  0  0
 22 25  1  0  0  0  0
M  END
> <VM2 Rank>
141

> <Conf_Id>
572

> <Probability>
0.00

> <Sum Probability>
99.98

> <Delta G>
5.725

> <G>
-2.238

> <E>
-27.551

> <-TS>
25.313

> <U+W>
-48.119

> <U>
12.472

> <W>
-60.590

> <W(PB)>
-62.977

> <W(SA)>
2.387

> <Valence>
10.550

> <Coulomb>
1.040

> <VdW>
0.882

> <VdW6>
-11.389

> <VdW12>
12.271

> <Bond>
0.286

> <Angle>
3.973

> <Pdih>
6.285

> <Idih>
0.006

> <Tether>
0.000

$$$$
VeraChem MOL file


 25 24  0  0  0  0  0  0  0  0999 V2000     
   19.6667   19.0494   26.5469 C   0  0  0  0  0  0  0  0  0  0  0  0
   20.4147   18.3200   27.1683 O   0  5  0  0  0  0  0  0  0  0  0  0
   18.5184   18.7581   26.2752 O   0  0  0  0  0  0  0  0  0  0  0  0
   20.1722   20.4339   26.1456 C   0  0  0  0  0  0  0  0  0  0  0  0
   20.3733   20.9715   27.0794 H   0  0  0  0  0  0  0  0  0  0  0  0
   19.3634   20.9749   25.6396 H   0  0  0  0  0  0  0  0  0  0  0  0
   21.4562   20.4436   25.2691 C   0  0  0  0  0  0  0  0  0  0  0  0
   21.9110   21.4404   25.3449 H   0  0  0  0  0  0  0  0  0  0  0  0
   22.1958   19.7420   25.6794 H   0  0  0  0  0  0  0  0  0  0  0  0
   21.2169   20.1469   23.7679 C   0  0  0  0  0  0  0  0  0  0  0  0
   22.1533   20.3369   23.2259 H   0  0  0  0  0  0  0  0  0  0  0  0
   20.4789   20.8565   23.3713 H   0  0  0  0  0  0  0  0  0  0  0  0
   20.7611   18.6967   23.4788 C   0  0  0  0  0  0  0  0  0  0  0  0
   21.4196   17.9995   24.0146 H   0  0  0  0  0  0  0  0  0  0  0  0
   19.7527   18.5319   23.8769 H   0  0  0  0  0  0  0  0  0  0  0  0
   20.7840   18.3353   21.9721 C   0  0  0  0  0  0  0  0  0  0  0  0
   20.4883   17.2837   21.8574 H   0  0  0  0  0  0  0  0  0  0  0  0
   21.8175   18.4012   21.6059 H   0  0  0  0  0  0  0  0  0  0  0  0
   19.8788   19.2115   21.0710 C   0  0  0  0  0  0  0  0  0  0  0  0
   20.2166   20.2559   21.0967 H   0  0  0  0  0  0  0  0  0  0  0  0
   19.9953   18.8801   20.0300 H   0  0  0  0  0  0  0  0  0  0  0  0
   18.3840   19.1386   21.4512 C   0  0  0  0  0  0  0  0  0  0  0  0
   18.2046   19.5640   22.4469 H   0  0  0  0  0  0  0  0  0  0  0  0
   17.7764   19.7041   20.7331 H   0  0  0  0  0  0  0  0  0  0  0  0
   18.0290   18.0999   21.4518 H   0  0  0  0  0  0  0  0  0  0  0  0
  1  2  1  0  0  0  0
  1  3  2  0  0  0  0
  1  4  1  0  0  0  0
  4  5  1  0  0  0  0
  4  6  1  0  0  0  0
  4  7  1  0  0  0  0
  7  8  1  0  0  0  0
  7  9  1  0  0  0  0
  7 10  1  0  0  0  0
 10 11  1  0  0  0  0
 10 12  1  0  0  0  0
 10 13  1  0  0  0  0
 13 14  1  0  0  0  0
 13 15  1  0  0  0  0
 13 16  1  0  0  0  0
 16 17  1  0  0  0  0
 16 18  1  0  0  0  0
 16 19  1  0  0  0  0
 19 20  1  0  0  0  0
 19 21  1  0  0  0  0
 19 22  1  0  0  0  0
 22 23  1  0  0  0  0
 22 24  1  0  0  0  0
 22 25  1  0  0  0  0
M  END
> <VM2 Rank>
142

> <Conf_Id>
831

> <Probability>
0.00

> <Sum Probability>
99.98

> <Delta G>
5.811

> <G>
-2.151

> <E>
-27.594

> <-TS>
25.443

> <U+W>
-48.162

> <U>
12.721

> <W>
-60.883

> <W(PB)>
-63.249

> <W(SA)>
2.365

> <Valence>
10.325

> <Coulomb>
1.750

> <VdW>
0.646

> <VdW6>
-11.745

> <VdW12>
12.391

> <Bond>
0.275

> <Angle>
3.728

> <Pdih>
6.316

> <Idih>
0.007

> <Tether>
0.000

$$$$
VeraChem MOL file


 25 24  0  0  0  0  0  0  0  0999 V2000     
   20.0679   19.8714   26.9139 C   0  0  0  0  0  0  0  0  0  0  0  0
   21.1742   20.3181   27.1446 O   0  5  0  0  0  0  0  0  0  0  0  0
   19.2355   19.6584   27.7733 O   0  0  0  0  0  0  0  0  0  0  0  0
   19.7114   19.5406   25.4691 C   0  0  0  0  0  0  0  0  0  0  0  0
   20.2255   20.2621   24.8280 H   0  0  0  0  0  0  0  0  0  0  0  0
   18.6351   19.7049   25.3403 H   0  0  0  0  0  0  0  0  0  0  0  0
   20.0789   18.0845   25.0799 C   0  0  0  0  0  0  0  0  0  0  0  0
   21.1559   17.9173   25.2188 H   0  0  0  0  0  0  0  0  0  0  0  0
   19.5727   17.4114   25.7857 H   0  0  0  0  0  0  0  0  0  0  0  0
   19.6552   17.6915   23.6411 C   0  0  0  0  0  0  0  0  0  0  0  0
   18.7301   18.2089   23.3555 H   0  0  0  0  0  0  0  0  0  0  0  0
   19.4004   16.6230   23.6494 H   0  0  0  0  0  0  0  0  0  0  0  0
   20.7515   17.8889   22.5610 C   0  0  0  0  0  0  0  0  0  0  0  0
   21.6437   17.3201   22.8560 H   0  0  0  0  0  0  0  0  0  0  0  0
   20.4082   17.4281   21.6256 H   0  0  0  0  0  0  0  0  0  0  0  0
   21.1723   19.3528   22.2739 C   0  0  0  0  0  0  0  0  0  0  0  0
   21.9533   19.3444   21.5016 H   0  0  0  0  0  0  0  0  0  0  0  0
   21.6501   19.7751   23.1665 H   0  0  0  0  0  0  0  0  0  0  0  0
   20.0283   20.2876   21.8081 C   0  0  0  0  0  0  0  0  0  0  0  0
   19.2583   20.3651   22.5862 H   0  0  0  0  0  0  0  0  0  0  0  0
   20.4343   21.3002   21.6791 H   0  0  0  0  0  0  0  0  0  0  0  0
   19.3777   19.8404   20.4812 C   0  0  0  0  0  0  0  0  0  0  0  0
   18.8613   18.8790   20.5952 H   0  0  0  0  0  0  0  0  0  0  0  0
   18.6367   20.5787   20.1486 H   0  0  0  0  0  0  0  0  0  0  0  0
   20.1309   19.7360   19.6896 H   0  0  0  0  0  0  0  0  0  0  0  0
  1  2  1  0  0  0  0
  1  3  2  0  0  0  0
  1  4  1  0  0  0  0
  4  5  1  0  0  0  0
  4  6  1  0  0  0  0
  4  7  1  0  0  0  0
  7  8  1  0  0  0  0
  7  9  1  0  0  0  0
  7 10  1  0  0  0  0
 10 11  1  0  0  0  0
 10 12  1  0  0  0  0
 10 13  1  0  0  0  0
 13 14  1  0  0  0  0
 13 15  1  0  0  0  0
 13 16  1  0  0  0  0
 16 17  1  0  0  0  0
 16 18  1  0  0  0  0
 16 19  1  0  0  0  0
 19 20  1  0  0  0  0
 19 21  1  0  0  0  0
 19 22  1  0  0  0  0
 22 23  1  0  0  0  0
 22 24  1  0  0  0  0
 22 25  1  0  0  0  0
M  END
> <VM2 Rank>
143

> <Conf_Id>
283

> <Probability>
0.00

> <Sum Probability>
99.98

> <Delta G>
5.871

> <G>
-2.091

> <E>
-27.534

> <-TS>
25.443

> <U+W>
-48.102

> <U>
11.683

> <W>
-59.784

> <W(PB)>
-62.170

> <W(SA)>
2.386

> <Valence>
11.569

> <Coulomb>
-0.570

> <VdW>
0.684

> <VdW6>
-11.332

> <VdW12>
12.016

> <Bond>
0.291

> <Angle>
3.994

> <Pdih>
7.283

> <Idih>
0.001

> <Tether>
0.000

$$$$
VeraChem MOL file


 25 24  0  0  0  0  0  0  0  0999 V2000     
   20.1631   19.8776   26.9127 C   0  0  0  0  0  0  0  0  0  0  0  0
   21.0352   19.7735   27.7526 O   0  5  0  0  0  0  0  0  0  0  0  0
   19.0144   20.1800   27.1692 O   0  0  0  0  0  0  0  0  0  0  0  0
   20.5258   19.5927   25.4597 C   0  0  0  0  0  0  0  0  0  0  0  0
   21.5691   19.8929   25.3066 H   0  0  0  0  0  0  0  0  0  0  0  0
   19.9094   20.2418   24.8315 H   0  0  0  0  0  0  0  0  0  0  0  0
   20.3383   18.1011   25.0769 C   0  0  0  0  0  0  0  0  0  0  0  0
   20.9424   17.4992   25.7699 H   0  0  0  0  0  0  0  0  0  0  0  0
   19.2950   17.7980   25.2403 H   0  0  0  0  0  0  0  0  0  0  0  0
   20.7755   17.7633   23.6281 C   0  0  0  0  0  0  0  0  0  0  0  0
   21.1648   16.7361   23.6291 H   0  0  0  0  0  0  0  0  0  0  0  0
   21.6202   18.3941   23.3221 H   0  0  0  0  0  0  0  0  0  0  0  0
   19.6384   17.8174   22.5739 C   0  0  0  0  0  0  0  0  0  0  0  0
   20.0162   17.4030   21.6302 H   0  0  0  0  0  0  0  0  0  0  0  0
   18.8333   17.1397   22.8884 H   0  0  0  0  0  0  0  0  0  0  0  0
   19.0275   19.2151   22.2989 C   0  0  0  0  0  0  0  0  0  0  0  0
   18.5204   19.5742   23.2029 H   0  0  0  0  0  0  0  0  0  0  0  0
   18.2364   19.1060   21.5447 H   0  0  0  0  0  0  0  0  0  0  0  0
   20.0317   20.2878   21.8082 C   0  0  0  0  0  0  0  0  0  0  0  0
   19.4968   21.2401   21.6902 H   0  0  0  0  0  0  0  0  0  0  0  0
   20.8033   20.4641   22.5684 H   0  0  0  0  0  0  0  0  0  0  0  0
   20.7032   19.9256   20.4659 C   0  0  0  0  0  0  0  0  0  0  0  0
   21.3407   19.0382   20.5664 H   0  0  0  0  0  0  0  0  0  0  0  0
   19.9513   19.7247   19.6918 H   0  0  0  0  0  0  0  0  0  0  0  0
   21.3357   20.7521   20.1173 H   0  0  0  0  0  0  0  0  0  0  0  0
  1  2  1  0  0  0  0
  1  3  2  0  0  0  0
  1  4  1  0  0  0  0
  4  5  1  0  0  0  0
  4  6  1  0  0  0  0
  4  7  1  0  0  0  0
  7  8  1  0  0  0  0
  7  9  1  0  0  0  0
  7 10  1  0  0  0  0
 10 11  1  0  0  0  0
 10 12  1  0  0  0  0
 10 13  1  0  0  0  0
 13 14  1  0  0  0  0
 13 15  1  0  0  0  0
 13 16  1  0  0  0  0
 16 17  1  0  0  0  0
 16 18  1  0  0  0  0
 16 19  1  0  0  0  0
 19 20  1  0  0  0  0
 19 21  1  0  0  0  0
 19 22  1  0  0  0  0
 22 23  1  0  0  0  0
 22 24  1  0  0  0  0
 22 25  1  0  0  0  0
M  END
> <VM2 Rank>
144

> <Conf_Id>
434

> <Probability>
0.00

> <Sum Probability>
99.99

> <Delta G>
5.935

> <G>
-2.027

> <E>
-27.470

> <-TS>
25.442

> <U+W>
-48.037

> <U>
11.683

> <W>
-59.720

> <W(PB)>
-62.088

> <W(SA)>
2.368

> <Valence>
11.569

> <Coulomb>
-0.570

> <VdW>
0.684

> <VdW6>
-11.332

> <VdW12>
12.017

> <Bond>
0.291

> <Angle>
3.994

> <Pdih>
7.284

> <Idih>
0.001

> <Tether>
0.000

$$$$
VeraChem MOL file


 25 24  0  0  0  0  0  0  0  0999 V2000     
   20.7607   19.4886   26.4282 C   0  0  0  0  0  0  0  0  0  0  0  0
   21.8101   19.6329   25.8330 O   0  5  0  0  0  0  0  0  0  0  0  0
   20.6604   18.8670   27.4682 O   0  0  0  0  0  0  0  0  0  0  0  0
   19.5110   20.1666   25.8702 C   0  0  0  0  0  0  0  0  0  0  0  0
   19.7848   20.7561   24.9886 H   0  0  0  0  0  0  0  0  0  0  0  0
   19.1726   20.8834   26.6271 H   0  0  0  0  0  0  0  0  0  0  0  0
   18.3491   19.1926   25.5367 C   0  0  0  0  0  0  0  0  0  0  0  0
   18.0741   18.6525   26.4533 H   0  0  0  0  0  0  0  0  0  0  0  0
   17.4626   19.7747   25.2512 H   0  0  0  0  0  0  0  0  0  0  0  0
   18.6570   18.1564   24.4257 C   0  0  0  0  0  0  0  0  0  0  0  0
   17.8121   17.4552   24.3885 H   0  0  0  0  0  0  0  0  0  0  0  0
   19.5325   17.5511   24.6986 H   0  0  0  0  0  0  0  0  0  0  0  0
   18.8342   18.7634   23.0104 C   0  0  0  0  0  0  0  0  0  0  0  0
   18.3721   18.0835   22.2816 H   0  0  0  0  0  0  0  0  0  0  0  0
   18.2852   19.7117   22.9334 H   0  0  0  0  0  0  0  0  0  0  0  0
   20.3131   18.9658   22.6067 C   0  0  0  0  0  0  0  0  0  0  0  0
   20.8395   18.0028   22.6531 H   0  0  0  0  0  0  0  0  0  0  0  0
   20.8152   19.6311   23.3188 H   0  0  0  0  0  0  0  0  0  0  0  0
   20.4410   19.5527   21.1850 C   0  0  0  0  0  0  0  0  0  0  0  0
   19.9503   18.8858   20.4627 H   0  0  0  0  0  0  0  0  0  0  0  0
   19.9183   20.5179   21.1353 H   0  0  0  0  0  0  0  0  0  0  0  0
   21.9164   19.7481   20.7817 C   0  0  0  0  0  0  0  0  0  0  0  0
   22.4559   18.7919   20.7915 H   0  0  0  0  0  0  0  0  0  0  0  0
   21.9891   20.1685   19.7703 H   0  0  0  0  0  0  0  0  0  0  0  0
   22.4240   20.4346   21.4721 H   0  0  0  0  0  0  0  0  0  0  0  0
  1  2  1  0  0  0  0
  1  3  2  0  0  0  0
  1  4  1  0  0  0  0
  4  5  1  0  0  0  0
  4  6  1  0  0  0  0
  4  7  1  0  0  0  0
  7  8  1  0  0  0  0
  7  9  1  0  0  0  0
  7 10  1  0  0  0  0
 10 11  1  0  0  0  0
 10 12  1  0  0  0  0
 10 13  1  0  0  0  0
 13 14  1  0  0  0  0
 13 15  1  0  0  0  0
 13 16  1  0  0  0  0
 16 17  1  0  0  0  0
 16 18  1  0  0  0  0
 16 19  1  0  0  0  0
 19 20  1  0  0  0  0
 19 21  1  0  0  0  0
 19 22  1  0  0  0  0
 22 23  1  0  0  0  0
 22 24  1  0  0  0  0
 22 25  1  0  0  0  0
M  END
> <VM2 Rank>
145

> <Conf_Id>
836

> <Probability>
0.00

> <Sum Probability>
99.99

> <Delta G>
5.974

> <G>
-1.988

> <E>
-27.115

> <-TS>
25.127

> <U+W>
-47.683

> <U>
13.358

> <W>
-61.041

> <W(PB)>
-63.441

> <W(SA)>
2.400

> <Valence>
11.157

> <Coulomb>
1.807

> <VdW>
0.394

> <VdW6>
-10.846

> <VdW12>
11.239

> <Bond>
0.228

> <Angle>
3.384

> <Pdih>
7.541

> <Idih>
0.004

> <Tether>
0.000

$$$$
VeraChem MOL file


 25 24  0  0  0  0  0  0  0  0999 V2000     
   19.9920   19.9587   26.1670 C   0  0  0  0  0  0  0  0  0  0  0  0
   20.9479   20.7094   26.1825 O   0  5  0  0  0  0  0  0  0  0  0  0
   18.8498   20.3295   25.9782 O   0  0  0  0  0  0  0  0  0  0  0  0
   20.2242   18.4895   26.5150 C   0  0  0  0  0  0  0  0  0  0  0  0
   19.6372   18.2914   27.4193 H   0  0  0  0  0  0  0  0  0  0  0  0
   21.2771   18.3491   26.7878 H   0  0  0  0  0  0  0  0  0  0  0  0
   19.8109   17.4742   25.4126 C   0  0  0  0  0  0  0  0  0  0  0  0
   19.6394   16.5035   25.8971 H   0  0  0  0  0  0  0  0  0  0  0  0
   18.8442   17.7619   24.9784 H   0  0  0  0  0  0  0  0  0  0  0  0
   20.8700   17.2579   24.3002 C   0  0  0  0  0  0  0  0  0  0  0  0
   20.5349   16.4347   23.6545 H   0  0  0  0  0  0  0  0  0  0  0  0
   21.8055   16.9147   24.7626 H   0  0  0  0  0  0  0  0  0  0  0  0
   21.1772   18.4870   23.4100 C   0  0  0  0  0  0  0  0  0  0  0  0
   21.5988   19.2972   24.0182 H   0  0  0  0  0  0  0  0  0  0  0  0
   21.9630   18.2062   22.6957 H   0  0  0  0  0  0  0  0  0  0  0  0
   19.9498   19.0027   22.6238 C   0  0  0  0  0  0  0  0  0  0  0  0
   19.1797   19.3548   23.3227 H   0  0  0  0  0  0  0  0  0  0  0  0
   19.5089   18.1781   22.0475 H   0  0  0  0  0  0  0  0  0  0  0  0
   20.3278   20.1558   21.6706 C   0  0  0  0  0  0  0  0  0  0  0  0
   20.7641   20.9824   22.2486 H   0  0  0  0  0  0  0  0  0  0  0  0
   21.0983   19.8170   20.9644 H   0  0  0  0  0  0  0  0  0  0  0  0
   19.1035   20.6692   20.8861 C   0  0  0  0  0  0  0  0  0  0  0  0
   18.6642   19.8692   20.2760 H   0  0  0  0  0  0  0  0  0  0  0  0
   18.3298   21.0440   21.5691 H   0  0  0  0  0  0  0  0  0  0  0  0
   19.3898   21.4895   20.2152 H   0  0  0  0  0  0  0  0  0  0  0  0
  1  2  1  0  0  0  0
  1  3  2  0  0  0  0
  1  4  1  0  0  0  0
  4  5  1  0  0  0  0
  4  6  1  0  0  0  0
  4  7  1  0  0  0  0
  7  8  1  0  0  0  0
  7  9  1  0  0  0  0
  7 10  1  0  0  0  0
 10 11  1  0  0  0  0
 10 12  1  0  0  0  0
 10 13  1  0  0  0  0
 13 14  1  0  0  0  0
 13 15  1  0  0  0  0
 13 16  1  0  0  0  0
 16 17  1  0  0  0  0
 16 18  1  0  0  0  0
 16 19  1  0  0  0  0
 19 20  1  0  0  0  0
 19 21  1  0  0  0  0
 19 22  1  0  0  0  0
 22 23  1  0  0  0  0
 22 24  1  0  0  0  0
 22 25  1  0  0  0  0
M  END
> <VM2 Rank>
146

> <Conf_Id>
740

> <Probability>
0.00

> <Sum Probability>
99.99

> <Delta G>
6.000

> <G>
-1.963

> <E>
-27.679

> <-TS>
25.717

> <U+W>
-48.247

> <U>
13.046

> <W>
-61.293

> <W(PB)>
-63.664

> <W(SA)>
2.371

> <Valence>
10.098

> <Coulomb>
2.795

> <VdW>
0.153

> <VdW6>
-11.571

> <VdW12>
11.724

> <Bond>
0.240

> <Angle>
3.695

> <Pdih>
6.146

> <Idih>
0.017

> <Tether>
0.000

$$$$
VeraChem MOL file


 25 24  0  0  0  0  0  0  0  0999 V2000     
   20.7799   18.9309   26.1625 C   0  0  0  0  0  0  0  0  0  0  0  0
   21.7531   19.6591   26.1779 O   0  5  0  0  0  0  0  0  0  0  0  0
   20.8407   17.7328   25.9661 O   0  0  0  0  0  0  0  0  0  0  0  0
   19.4229   19.5345   26.5199 C   0  0  0  0  0  0  0  0  0  0  0  0
   19.5617   20.5861   26.7982 H   0  0  0  0  0  0  0  0  0  0  0  0
   19.0831   19.0137   27.4226 H   0  0  0  0  0  0  0  0  0  0  0  0
   18.3304   19.4053   25.4214 C   0  0  0  0  0  0  0  0  0  0  0  0
   18.3553   18.3996   24.9812 H   0  0  0  0  0  0  0  0  0  0  0  0
   17.3506   19.4888   25.9105 H   0  0  0  0  0  0  0  0  0  0  0  0
   18.3917   20.4907   24.3150 C   0  0  0  0  0  0  0  0  0  0  0  0
   18.3053   21.4805   24.7835 H   0  0  0  0  0  0  0  0  0  0  0  0
   17.5069   20.3847   23.6726 H   0  0  0  0  0  0  0  0  0  0  0  0
   19.6545   20.4734   23.4191 C   0  0  0  0  0  0  0  0  0  0  0  0
   19.5842   21.3092   22.7100 H   0  0  0  0  0  0  0  0  0  0  0  0
   20.5490   20.6666   24.0244 H   0  0  0  0  0  0  0  0  0  0  0  0
   19.8301   19.1588   22.6244 C   0  0  0  0  0  0  0  0  0  0  0  0
   18.9168   18.9505   22.0509 H   0  0  0  0  0  0  0  0  0  0  0  0
   19.9732   18.3195   23.3178 H   0  0  0  0  0  0  0  0  0  0  0  0
   21.0377   19.2298   21.6663 C   0  0  0  0  0  0  0  0  0  0  0  0
   20.9076   20.0661   20.9656 H   0  0  0  0  0  0  0  0  0  0  0  0
   21.9518   19.4331   22.2416 H   0  0  0  0  0  0  0  0  0  0  0  0
   21.2120   17.9188   20.8734 C   0  0  0  0  0  0  0  0  0  0  0  0
   20.3227   17.7060   20.2659 H   0  0  0  0  0  0  0  0  0  0  0  0
   22.0755   17.9862   20.1990 H   0  0  0  0  0  0  0  0  0  0  0  0
   21.3759   17.0703   21.5507 H   0  0  0  0  0  0  0  0  0  0  0  0
  1  2  1  0  0  0  0
  1  3  2  0  0  0  0
  1  4  1  0  0  0  0
  4  5  1  0  0  0  0
  4  6  1  0  0  0  0
  4  7  1  0  0  0  0
  7  8  1  0  0  0  0
  7  9  1  0  0  0  0
  7 10  1  0  0  0  0
 10 11  1  0  0  0  0
 10 12  1  0  0  0  0
 10 13  1  0  0  0  0
 13 14  1  0  0  0  0
 13 15  1  0  0  0  0
 13 16  1  0  0  0  0
 16 17  1  0  0  0  0
 16 18  1  0  0  0  0
 16 19  1  0  0  0  0
 19 20  1  0  0  0  0
 19 21  1  0  0  0  0
 19 22  1  0  0  0  0
 22 23  1  0  0  0  0
 22 24  1  0  0  0  0
 22 25  1  0  0  0  0
M  END
> <VM2 Rank>
147

> <Conf_Id>
226

> <Probability>
0.00

> <Sum Probability>
99.99

> <Delta G>
6.028

> <G>
-1.935

> <E>
-27.651

> <-TS>
25.716

> <U+W>
-48.219

> <U>
13.046

> <W>
-61.265

> <W(PB)>
-63.654

> <W(SA)>
2.389

> <Valence>
10.098

> <Coulomb>
2.796

> <VdW>
0.153

> <VdW6>
-11.571

> <VdW12>
11.724

> <Bond>
0.240

> <Angle>
3.695

> <Pdih>
6.145

> <Idih>
0.018

> <Tether>
0.000

$$$$
VeraChem MOL file


 25 24  0  0  0  0  0  0  0  0999 V2000     
   20.5276   19.2214   26.9320 C   0  0  0  0  0  0  0  0  0  0  0  0
   21.4815   19.9595   26.7820 O   0  5  0  0  0  0  0  0  0  0  0  0
   19.8752   19.1661   27.9561 O   0  0  0  0  0  0  0  0  0  0  0  0
   20.1407   18.2952   25.7823 C   0  0  0  0  0  0  0  0  0  0  0  0
   20.0106   17.2922   26.2050 H   0  0  0  0  0  0  0  0  0  0  0  0
   20.9855   18.2349   25.0894 H   0  0  0  0  0  0  0  0  0  0  0  0
   18.8383   18.7142   25.0450 C   0  0  0  0  0  0  0  0  0  0  0  0
   18.5208   17.9119   24.3655 H   0  0  0  0  0  0  0  0  0  0  0  0
   18.0403   18.8079   25.7947 H   0  0  0  0  0  0  0  0  0  0  0  0
   18.9464   20.0501   24.2640 C   0  0  0  0  0  0  0  0  0  0  0  0
   19.6571   20.7282   24.7556 H   0  0  0  0  0  0  0  0  0  0  0  0
   17.9715   20.5538   24.3162 H   0  0  0  0  0  0  0  0  0  0  0  0
   19.3098   19.8968   22.7656 C   0  0  0  0  0  0  0  0  0  0  0  0
   18.5419   19.2885   22.2699 H   0  0  0  0  0  0  0  0  0  0  0  0
   19.2672   20.8898   22.2981 H   0  0  0  0  0  0  0  0  0  0  0  0
   20.7068   19.2833   22.5116 C   0  0  0  0  0  0  0  0  0  0  0  0
   20.7101   18.2292   22.8174 H   0  0  0  0  0  0  0  0  0  0  0  0
   21.4455   19.7998   23.1399 H   0  0  0  0  0  0  0  0  0  0  0  0
   21.1586   19.3803   21.0359 C   0  0  0  0  0  0  0  0  0  0  0  0
   21.1778   20.4331   20.7220 H   0  0  0  0  0  0  0  0  0  0  0  0
   22.1918   19.0147   20.9582 H   0  0  0  0  0  0  0  0  0  0  0  0
   20.2681   18.5671   20.0715 C   0  0  0  0  0  0  0  0  0  0  0  0
   20.2144   17.5148   20.3797 H   0  0  0  0  0  0  0  0  0  0  0  0
   19.2474   18.9680   20.0358 H   0  0  0  0  0  0  0  0  0  0  0  0
   20.6747   18.6007   19.0525 H   0  0  0  0  0  0  0  0  0  0  0  0
  1  2  1  0  0  0  0
  1  3  2  0  0  0  0
  1  4  1  0  0  0  0
  4  5  1  0  0  0  0
  4  6  1  0  0  0  0
  4  7  1  0  0  0  0
  7  8  1  0  0  0  0
  7  9  1  0  0  0  0
  7 10  1  0  0  0  0
 10 11  1  0  0  0  0
 10 12  1  0  0  0  0
 10 13  1  0  0  0  0
 13 14  1  0  0  0  0
 13 15  1  0  0  0  0
 13 16  1  0  0  0  0
 16 17  1  0  0  0  0
 16 18  1  0  0  0  0
 16 19  1  0  0  0  0
 19 20  1  0  0  0  0
 19 21  1  0  0  0  0
 19 22  1  0  0  0  0
 22 23  1  0  0  0  0
 22 24  1  0  0  0  0
 22 25  1  0  0  0  0
M  END
> <VM2 Rank>
148

> <Conf_Id>
266

> <Probability>
0.00

> <Sum Probability>
99.99

> <Delta G>
6.227

> <G>
-1.735

> <E>
-26.995

> <-TS>
25.260

> <U+W>
-47.563

> <U>
12.455

> <W>
-60.018

> <W(PB)>
-62.428

> <W(SA)>
2.410

> <Valence>
11.319

> <Coulomb>
0.248

> <VdW>
0.888

> <VdW6>
-10.931

> <VdW12>
11.819

> <Bond>
0.269

> <Angle>
3.444

> <Pdih>
7.605

> <Idih>
0.001

> <Tether>
0.000

$$$$
VeraChem MOL file


 25 24  0  0  0  0  0  0  0  0999 V2000     
   19.7391   19.6558   26.8711 C   0  0  0  0  0  0  0  0  0  0  0  0
   19.9697   19.0413   27.8940 O   0  5  0  0  0  0  0  0  0  0  0  0
   18.7439   20.3322   26.7020 O   0  0  0  0  0  0  0  0  0  0  0  0
   20.7462   19.5579   25.7308 C   0  0  0  0  0  0  0  0  0  0  0  0
   21.7472   19.4682   26.1690 H   0  0  0  0  0  0  0  0  0  0  0  0
   20.7171   20.5043   25.1802 H   0  0  0  0  0  0  0  0  0  0  0  0
   20.4660   18.3598   24.7860 C   0  0  0  0  0  0  0  0  0  0  0  0
   20.4387   17.4422   25.3895 H   0  0  0  0  0  0  0  0  0  0  0  0
   19.4660   18.4658   24.3504 H   0  0  0  0  0  0  0  0  0  0  0  0
   21.5338   18.1849   23.6761 C   0  0  0  0  0  0  0  0  0  0  0  0
   21.3955   17.2110   23.1875 H   0  0  0  0  0  0  0  0  0  0  0  0
   22.5199   18.1361   24.1577 H   0  0  0  0  0  0  0  0  0  0  0  0
   21.5635   19.3014   22.5973 C   0  0  0  0  0  0  0  0  0  0  0  0
   21.2774   20.2715   23.0191 H   0  0  0  0  0  0  0  0  0  0  0  0
   22.6068   19.4238   22.2761 H   0  0  0  0  0  0  0  0  0  0  0  0
   20.7297   18.9982   21.3243 C   0  0  0  0  0  0  0  0  0  0  0  0
   21.0904   18.0612   20.8788 H   0  0  0  0  0  0  0  0  0  0  0  0
   20.9331   19.7805   20.5805 H   0  0  0  0  0  0  0  0  0  0  0  0
   19.1987   18.8969   21.5231 C   0  0  0  0  0  0  0  0  0  0  0  0
   18.7388   18.6424   20.5585 H   0  0  0  0  0  0  0  0  0  0  0  0
   18.9593   18.0653   22.1975 H   0  0  0  0  0  0  0  0  0  0  0  0
   18.5623   20.2054   22.0412 C   0  0  0  0  0  0  0  0  0  0  0  0
   17.4708   20.1057   22.0974 H   0  0  0  0  0  0  0  0  0  0  0  0
   18.9248   20.4588   23.0453 H   0  0  0  0  0  0  0  0  0  0  0  0
   18.7917   21.0447   21.3721 H   0  0  0  0  0  0  0  0  0  0  0  0
  1  2  1  0  0  0  0
  1  3  2  0  0  0  0
  1  4  1  0  0  0  0
  4  5  1  0  0  0  0
  4  6  1  0  0  0  0
  4  7  1  0  0  0  0
  7  8  1  0  0  0  0
  7  9  1  0  0  0  0
  7 10  1  0  0  0  0
 10 11  1  0  0  0  0
 10 12  1  0  0  0  0
 10 13  1  0  0  0  0
 13 14  1  0  0  0  0
 13 15  1  0  0  0  0
 13 16  1  0  0  0  0
 16 17  1  0  0  0  0
 16 18  1  0  0  0  0
 16 19  1  0  0  0  0
 19 20  1  0  0  0  0
 19 21  1  0  0  0  0
 19 22  1  0  0  0  0
 22 23  1  0  0  0  0
 22 24  1  0  0  0  0
 22 25  1  0  0  0  0
M  END
> <VM2 Rank>
149

> <Conf_Id>
480

> <Probability>
0.00

> <Sum Probability>
99.99

> <Delta G>
6.278

> <G>
-1.684

> <E>
-27.070

> <-TS>
25.385

> <U+W>
-47.637

> <U>
12.577

> <W>
-60.214

> <W(PB)>
-62.544

> <W(SA)>
2.329

> <Valence>
11.827

> <Coulomb>
0.089

> <VdW>
0.661

> <VdW6>
-11.301

> <VdW12>
11.962

> <Bond>
0.300

> <Angle>
3.988

> <Pdih>
7.539

> <Idih>
0.000

> <Tether>
0.000

$$$$
VeraChem MOL file


 25 24  0  0  0  0  0  0  0  0999 V2000     
   20.3746   19.4409   27.0510 C   0  0  0  0  0  0  0  0  0  0  0  0
   21.3013   20.2222   27.1401 O   0  5  0  0  0  0  0  0  0  0  0  0
   19.3196   19.5789   27.6384 O   0  0  0  0  0  0  0  0  0  0  0  0
   20.5559   18.2083   26.1697 C   0  0  0  0  0  0  0  0  0  0  0  0
   19.8205   17.4521   26.4700 H   0  0  0  0  0  0  0  0  0  0  0  0
   21.5463   17.7916   26.3873 H   0  0  0  0  0  0  0  0  0  0  0  0
   20.4381   18.4981   24.6509 C   0  0  0  0  0  0  0  0  0  0  0  0
   21.1688   19.2717   24.3803 H   0  0  0  0  0  0  0  0  0  0  0  0
   20.7061   17.5917   24.0916 H   0  0  0  0  0  0  0  0  0  0  0  0
   19.0171   18.9500   24.2421 C   0  0  0  0  0  0  0  0  0  0  0  0
   18.7835   19.9102   24.7225 H   0  0  0  0  0  0  0  0  0  0  0  0
   18.2872   18.2272   24.6315 H   0  0  0  0  0  0  0  0  0  0  0  0
   18.8085   19.0775   22.7122 C   0  0  0  0  0  0  0  0  0  0  0  0
   18.9474   18.0992   22.2358 H   0  0  0  0  0  0  0  0  0  0  0  0
   17.7559   19.3426   22.5437 H   0  0  0  0  0  0  0  0  0  0  0  0
   19.6911   20.1564   22.0297 C   0  0  0  0  0  0  0  0  0  0  0  0
   19.9343   20.9425   22.7576 H   0  0  0  0  0  0  0  0  0  0  0  0
   19.1034   20.6517   21.2448 H   0  0  0  0  0  0  0  0  0  0  0  0
   20.9972   19.6198   21.3928 C   0  0  0  0  0  0  0  0  0  0  0  0
   21.6349   20.4746   21.1290 H   0  0  0  0  0  0  0  0  0  0  0  0
   21.5654   19.0251   22.1183 H   0  0  0  0  0  0  0  0  0  0  0  0
   20.7496   18.7818   20.1190 C   0  0  0  0  0  0  0  0  0  0  0  0
   20.1899   19.3592   19.3718 H   0  0  0  0  0  0  0  0  0  0  0  0
   21.7034   18.4811   19.6667 H   0  0  0  0  0  0  0  0  0  0  0  0
   20.1841   17.8684   20.3398 H   0  0  0  0  0  0  0  0  0  0  0  0
  1  2  1  0  0  0  0
  1  3  2  0  0  0  0
  1  4  1  0  0  0  0
  4  5  1  0  0  0  0
  4  6  1  0  0  0  0
  4  7  1  0  0  0  0
  7  8  1  0  0  0  0
  7  9  1  0  0  0  0
  7 10  1  0  0  0  0
 10 11  1  0  0  0  0
 10 12  1  0  0  0  0
 10 13  1  0  0  0  0
 13 14  1  0  0  0  0
 13 15  1  0  0  0  0
 13 16  1  0  0  0  0
 16 17  1  0  0  0  0
 16 18  1  0  0  0  0
 16 19  1  0  0  0  0
 19 20  1  0  0  0  0
 19 21  1  0  0  0  0
 19 22  1  0  0  0  0
 22 23  1  0  0  0  0
 22 24  1  0  0  0  0
 22 25  1  0  0  0  0
M  END
> <VM2 Rank>
150

> <Conf_Id>
707

> <Probability>
0.00

> <Sum Probability>
99.99

> <Delta G>
6.290

> <G>
-1.672

> <E>
-26.816

> <-TS>
25.143

> <U+W>
-47.383

> <U>
12.751

> <W>
-60.134

> <W(PB)>
-62.535

> <W(SA)>
2.401

> <Valence>
11.503

> <Coulomb>
0.344

> <VdW>
0.904

> <VdW6>
-10.720

> <VdW12>
11.623

> <Bond>
0.257

> <Angle>
3.380

> <Pdih>
7.866

> <Idih>
0.001

> <Tether>
0.000

$$$$
VeraChem MOL file


 25 24  0  0  0  0  0  0  0  0999 V2000     
   19.9171   19.4121   27.0562 C   0  0  0  0  0  0  0  0  0  0  0  0
   20.9594   19.6840   27.6191 O   0  5  0  0  0  0  0  0  0  0  0  0
   18.9010   20.0695   27.1677 O   0  0  0  0  0  0  0  0  0  0  0  0
   19.8736   18.1649   26.1779 C   0  0  0  0  0  0  0  0  0  0  0  0
   18.9493   17.6263   26.4177 H   0  0  0  0  0  0  0  0  0  0  0  0
   20.7057   17.5087   26.4603 H   0  0  0  0  0  0  0  0  0  0  0  0
   19.9187   18.4646   24.6571 C   0  0  0  0  0  0  0  0  0  0  0  0
   19.7548   17.5306   24.1030 H   0  0  0  0  0  0  0  0  0  0  0  0
   19.0899   19.1390   24.4044 H   0  0  0  0  0  0  0  0  0  0  0  0
   21.2613   19.0921   24.2162 C   0  0  0  0  0  0  0  0  0  0  0  0
   22.0856   18.4680   24.5874 H   0  0  0  0  0  0  0  0  0  0  0  0
   21.3825   20.0748   24.6925 H   0  0  0  0  0  0  0  0  0  0  0  0
   21.4165   19.2428   22.6821 C   0  0  0  0  0  0  0  0  0  0  0  0
   22.4230   19.6385   22.4896 H   0  0  0  0  0  0  0  0  0  0  0  0
   21.3912   18.2541   22.2075 H   0  0  0  0  0  0  0  0  0  0  0  0
   20.3890   20.2006   22.0220 C   0  0  0  0  0  0  0  0  0  0  0  0
   20.8911   20.7655   21.2247 H   0  0  0  0  0  0  0  0  0  0  0  0
   20.0651   20.9504   22.7567 H   0  0  0  0  0  0  0  0  0  0  0  0
   19.1470   19.5022   21.4143 C   0  0  0  0  0  0  0  0  0  0  0  0
   18.6757   18.8410   22.1516 H   0  0  0  0  0  0  0  0  0  0  0  0
   18.4002   20.2691   21.1670 H   0  0  0  0  0  0  0  0  0  0  0  0
   19.4693   18.7012   20.1334 C   0  0  0  0  0  0  0  0  0  0  0  0
   20.1511   17.8672   20.3392 H   0  0  0  0  0  0  0  0  0  0  0  0
   18.5510   18.2815   19.7027 H   0  0  0  0  0  0  0  0  0  0  0  0
   19.9337   19.3443   19.3746 H   0  0  0  0  0  0  0  0  0  0  0  0
  1  2  1  0  0  0  0
  1  3  2  0  0  0  0
  1  4  1  0  0  0  0
  4  5  1  0  0  0  0
  4  6  1  0  0  0  0
  4  7  1  0  0  0  0
  7  8  1  0  0  0  0
  7  9  1  0  0  0  0
  7 10  1  0  0  0  0
 10 11  1  0  0  0  0
 10 12  1  0  0  0  0
 10 13  1  0  0  0  0
 13 14  1  0  0  0  0
 13 15  1  0  0  0  0
 13 16  1  0  0  0  0
 16 17  1  0  0  0  0
 16 18  1  0  0  0  0
 16 19  1  0  0  0  0
 19 20  1  0  0  0  0
 19 21  1  0  0  0  0
 19 22  1  0  0  0  0
 22 23  1  0  0  0  0
 22 24  1  0  0  0  0
 22 25  1  0  0  0  0
M  END
> <VM2 Rank>
151

> <Conf_Id>
418

> <Probability>
0.00

> <Sum Probability>
99.99

> <Delta G>
6.311

> <G>
-1.652

> <E>
-26.796

> <-TS>
25.144

> <U+W>
-47.363

> <U>
12.751

> <W>
-60.114

> <W(PB)>
-62.501

> <W(SA)>
2.387

> <Valence>
11.503

> <Coulomb>
0.344

> <VdW>
0.904

> <VdW6>
-10.719

> <VdW12>
11.623

> <Bond>
0.257

> <Angle>
3.378

> <Pdih>
7.868

> <Idih>
0.001

> <Tether>
0.000

$$$$
VeraChem MOL file


 25 24  0  0  0  0  0  0  0  0999 V2000     
   20.5155   19.7056   26.8623 C   0  0  0  0  0  0  0  0  0  0  0  0
   21.4122   20.5032   26.6713 O   0  5  0  0  0  0  0  0  0  0  0  0
   20.3888   19.0685   27.8894 O   0  0  0  0  0  0  0  0  0  0  0  0
   19.5034   19.4782   25.7452 C   0  0  0  0  0  0  0  0  0  0  0  0
   19.3986   20.4197   25.1956 H   0  0  0  0  0  0  0  0  0  0  0  0
   18.5324   19.2618   26.2062 H   0  0  0  0  0  0  0  0  0  0  0  0
   19.9128   18.3245   24.7924 C   0  0  0  0  0  0  0  0  0  0  0  0
   20.8807   18.5569   24.3340 H   0  0  0  0  0  0  0  0  0  0  0  0
   20.0712   17.4187   25.3937 H   0  0  0  0  0  0  0  0  0  0  0  0
   18.8508   18.0127   23.7072 C   0  0  0  0  0  0  0  0  0  0  0  0
   17.8904   17.8388   24.2113 H   0  0  0  0  0  0  0  0  0  0  0  0
   19.1013   17.0638   23.2140 H   0  0  0  0  0  0  0  0  0  0  0  0
   18.6536   19.1147   22.6310 C   0  0  0  0  0  0  0  0  0  0  0  0
   17.5961   19.1022   22.3342 H   0  0  0  0  0  0  0  0  0  0  0  0
   18.8231   20.1140   23.0475 H   0  0  0  0  0  0  0  0  0  0  0  0
   19.4897   18.9187   21.3386 C   0  0  0  0  0  0  0  0  0  0  0  0
   19.1709   19.6676   20.6009 H   0  0  0  0  0  0  0  0  0  0  0  0
   19.2414   17.9426   20.9001 H   0  0  0  0  0  0  0  0  0  0  0  0
   21.0252   19.0141   21.5018 C   0  0  0  0  0  0  0  0  0  0  0  0
   21.3844   18.2208   22.1692 H   0  0  0  0  0  0  0  0  0  0  0  0
   21.4914   18.8189   20.5264 H   0  0  0  0  0  0  0  0  0  0  0  0
   21.5011   20.3939   22.0069 C   0  0  0  0  0  0  0  0  0  0  0  0
   21.1324   20.6006   23.0194 H   0  0  0  0  0  0  0  0  0  0  0  0
   22.5974   20.4345   22.0377 H   0  0  0  0  0  0  0  0  0  0  0  0
   21.1510   21.1960   21.3444 H   0  0  0  0  0  0  0  0  0  0  0  0
  1  2  1  0  0  0  0
  1  3  2  0  0  0  0
  1  4  1  0  0  0  0
  4  5  1  0  0  0  0
  4  6  1  0  0  0  0
  4  7  1  0  0  0  0
  7  8  1  0  0  0  0
  7  9  1  0  0  0  0
  7 10  1  0  0  0  0
 10 11  1  0  0  0  0
 10 12  1  0  0  0  0
 10 13  1  0  0  0  0
 13 14  1  0  0  0  0
 13 15  1  0  0  0  0
 13 16  1  0  0  0  0
 16 17  1  0  0  0  0
 16 18  1  0  0  0  0
 16 19  1  0  0  0  0
 19 20  1  0  0  0  0
 19 21  1  0  0  0  0
 19 22  1  0  0  0  0
 22 23  1  0  0  0  0
 22 24  1  0  0  0  0
 22 25  1  0  0  0  0
M  END
> <VM2 Rank>
152

> <Conf_Id>
703

> <Probability>
0.00

> <Sum Probability>
99.99

> <Delta G>
6.325

> <G>
-1.638

> <E>
-27.023

> <-TS>
25.385

> <U+W>
-47.590

> <U>
12.576

> <W>
-60.167

> <W(PB)>
-62.530

> <W(SA)>
2.363

> <Valence>
11.827

> <Coulomb>
0.088

> <VdW>
0.661

> <VdW6>
-11.300

> <VdW12>
11.961

> <Bond>
0.300

> <Angle>
3.988

> <Pdih>
7.540

> <Idih>
0.000

> <Tether>
0.000

$$$$
VeraChem MOL file


 25 24  0  0  0  0  0  0  0  0999 V2000     
   19.8750   19.2343   27.1493 C   0  0  0  0  0  0  0  0  0  0  0  0
   20.7307   19.7224   27.8611 O   0  5  0  0  0  0  0  0  0  0  0  0
   18.6961   19.5209   27.2216 O   0  0  0  0  0  0  0  0  0  0  0  0
   20.3039   18.1899   26.1224 C   0  0  0  0  0  0  0  0  0  0  0  0
   19.4209   17.6155   25.8172 H   0  0  0  0  0  0  0  0  0  0  0  0
   20.9781   17.4899   26.6296 H   0  0  0  0  0  0  0  0  0  0  0  0
   21.0136   18.7821   24.8770 C   0  0  0  0  0  0  0  0  0  0  0  0
   21.8754   19.3816   25.2015 H   0  0  0  0  0  0  0  0  0  0  0  0
   21.4141   17.9552   24.2776 H   0  0  0  0  0  0  0  0  0  0  0  0
   20.0676   19.6502   24.0119 C   0  0  0  0  0  0  0  0  0  0  0  0
   19.6722   20.4679   24.6299 H   0  0  0  0  0  0  0  0  0  0  0  0
   19.2012   19.0542   23.7013 H   0  0  0  0  0  0  0  0  0  0  0  0
   20.7683   20.2700   22.7764 C   0  0  0  0  0  0  0  0  0  0  0  0
   20.1471   21.0812   22.3731 H   0  0  0  0  0  0  0  0  0  0  0  0
   21.6987   20.7487   23.1109 H   0  0  0  0  0  0  0  0  0  0  0  0
   21.0988   19.2635   21.6420 C   0  0  0  0  0  0  0  0  0  0  0  0
   21.2682   18.2580   22.0465 H   0  0  0  0  0  0  0  0  0  0  0  0
   22.0519   19.5651   21.1866 H   0  0  0  0  0  0  0  0  0  0  0  0
   20.0419   19.2003   20.5116 C   0  0  0  0  0  0  0  0  0  0  0  0
   19.9371   20.1912   20.0486 H   0  0  0  0  0  0  0  0  0  0  0  0
   20.4134   18.5307   19.7237 H   0  0  0  0  0  0  0  0  0  0  0  0
   18.6570   18.7005   20.9727 C   0  0  0  0  0  0  0  0  0  0  0  0
   17.9912   18.5643   20.1108 H   0  0  0  0  0  0  0  0  0  0  0  0
   18.7392   17.7375   21.4932 H   0  0  0  0  0  0  0  0  0  0  0  0
   18.1806   19.4220   21.6480 H   0  0  0  0  0  0  0  0  0  0  0  0
  1  2  1  0  0  0  0
  1  3  2  0  0  0  0
  1  4  1  0  0  0  0
  4  5  1  0  0  0  0
  4  6  1  0  0  0  0
  4  7  1  0  0  0  0
  7  8  1  0  0  0  0
  7  9  1  0  0  0  0
  7 10  1  0  0  0  0
 10 11  1  0  0  0  0
 10 12  1  0  0  0  0
 10 13  1  0  0  0  0
 13 14  1  0  0  0  0
 13 15  1  0  0  0  0
 13 16  1  0  0  0  0
 16 17  1  0  0  0  0
 16 18  1  0  0  0  0
 16 19  1  0  0  0  0
 19 20  1  0  0  0  0
 19 21  1  0  0  0  0
 19 22  1  0  0  0  0
 22 23  1  0  0  0  0
 22 24  1  0  0  0  0
 22 25  1  0  0  0  0
M  END
> <VM2 Rank>
153

> <Conf_Id>
384

> <Probability>
0.00

> <Sum Probability>
99.99

> <Delta G>
6.389

> <G>
-1.574

> <E>
-26.710

> <-TS>
25.136

> <U+W>
-47.278

> <U>
12.718

> <W>
-59.995

> <W(PB)>
-62.409

> <W(SA)>
2.414

> <Valence>
11.548

> <Coulomb>
0.194

> <VdW>
0.975

> <VdW6>
-10.624

> <VdW12>
11.599

> <Bond>
0.265

> <Angle>
3.381

> <Pdih>
7.902

> <Idih>
0.000

> <Tether>
0.000

$$$$
VeraChem MOL file


 25 24  0  0  0  0  0  0  0  0999 V2000     
   20.1208   19.5198   27.0906 C   0  0  0  0  0  0  0  0  0  0  0  0
   21.0323   19.2155   27.8349 O   0  5  0  0  0  0  0  0  0  0  0  0
   18.9534   19.2734   27.3220 O   0  0  0  0  0  0  0  0  0  0  0  0
   20.4616   20.2717   25.8070 C   0  0  0  0  0  0  0  0  0  0  0  0
   21.1323   21.0941   26.0820 H   0  0  0  0  0  0  0  0  0  0  0  0
   19.5469   20.7340   25.4203 H   0  0  0  0  0  0  0  0  0  0  0  0
   21.1444   19.3957   24.7201 C   0  0  0  0  0  0  0  0  0  0  0  0
   21.4655   20.0391   23.8927 H   0  0  0  0  0  0  0  0  0  0  0  0
   22.0620   18.9674   25.1463 H   0  0  0  0  0  0  0  0  0  0  0  0
   20.2593   18.2395   24.1846 C   0  0  0  0  0  0  0  0  0  0  0  0
   19.8840   17.6613   25.0400 H   0  0  0  0  0  0  0  0  0  0  0  0
   20.8810   17.5404   23.6091 H   0  0  0  0  0  0  0  0  0  0  0  0
   19.0533   18.6890   23.3174 C   0  0  0  0  0  0  0  0  0  0  0  0
   18.2141   18.0120   23.5273 H   0  0  0  0  0  0  0  0  0  0  0  0
   18.7073   19.6870   23.6128 H   0  0  0  0  0  0  0  0  0  0  0  0
   19.3085   18.6540   21.7895 C   0  0  0  0  0  0  0  0  0  0  0  0
   18.3693   18.9053   21.2780 H   0  0  0  0  0  0  0  0  0  0  0  0
   19.5606   17.6294   21.4841 H   0  0  0  0  0  0  0  0  0  0  0  0
   20.4137   19.6197   21.3094 C   0  0  0  0  0  0  0  0  0  0  0  0
   20.2133   20.6315   21.6877 H   0  0  0  0  0  0  0  0  0  0  0  0
   21.3842   19.3065   21.7158 H   0  0  0  0  0  0  0  0  0  0  0  0
   20.5057   19.6556   19.7704 C   0  0  0  0  0  0  0  0  0  0  0  0
   20.7303   18.6593   19.3674 H   0  0  0  0  0  0  0  0  0  0  0  0
   19.5619   20.0000   19.3278 H   0  0  0  0  0  0  0  0  0  0  0  0
   21.3010   20.3395   19.4466 H   0  0  0  0  0  0  0  0  0  0  0  0
  1  2  1  0  0  0  0
  1  3  2  0  0  0  0
  1  4  1  0  0  0  0
  4  5  1  0  0  0  0
  4  6  1  0  0  0  0
  4  7  1  0  0  0  0
  7  8  1  0  0  0  0
  7  9  1  0  0  0  0
  7 10  1  0  0  0  0
 10 11  1  0  0  0  0
 10 12  1  0  0  0  0
 10 13  1  0  0  0  0
 13 14  1  0  0  0  0
 13 15  1  0  0  0  0
 13 16  1  0  0  0  0
 16 17  1  0  0  0  0
 16 18  1  0  0  0  0
 16 19  1  0  0  0  0
 19 20  1  0  0  0  0
 19 21  1  0  0  0  0
 19 22  1  0  0  0  0
 22 23  1  0  0  0  0
 22 24  1  0  0  0  0
 22 25  1  0  0  0  0
M  END
> <VM2 Rank>
154

> <Conf_Id>
1118

> <Probability>
0.00

> <Sum Probability>
99.99

> <Delta G>
6.394

> <G>
-1.568

> <E>
-26.654

> <-TS>
25.086

> <U+W>
-47.221

> <U>
12.590

> <W>
-59.811

> <W(PB)>
-62.229

> <W(SA)>
2.418

> <Valence>
11.587

> <Coulomb>
0.121

> <VdW>
0.881

> <VdW6>
-10.830

> <VdW12>
11.711

> <Bond>
0.286

> <Angle>
3.540

> <Pdih>
7.760

> <Idih>
0.001

> <Tether>
0.000

$$$$
VeraChem MOL file


 25 24  0  0  0  0  0  0  0  0999 V2000     
   19.8667   19.2986   27.1482 C   0  0  0  0  0  0  0  0  0  0  0  0
   20.8147   19.0630   27.8715 O   0  5  0  0  0  0  0  0  0  0  0  0
   18.7971   18.7280   27.2342 O   0  0  0  0  0  0  0  0  0  0  0  0
   20.0243   20.3842   26.0873 C   0  0  0  0  0  0  0  0  0  0  0  0
   20.4994   21.2466   26.5695 H   0  0  0  0  0  0  0  0  0  0  0  0
   19.0267   20.7090   25.7676 H   0  0  0  0  0  0  0  0  0  0  0  0
   20.8649   19.9500   24.8583 C   0  0  0  0  0  0  0  0  0  0  0  0
   21.0476   20.8315   24.2315 H   0  0  0  0  0  0  0  0  0  0  0  0
   21.8481   19.5962   25.1982 H   0  0  0  0  0  0  0  0  0  0  0  0
   20.1704   18.8455   24.0249 C   0  0  0  0  0  0  0  0  0  0  0  0
   19.1834   19.1951   23.6991 H   0  0  0  0  0  0  0  0  0  0  0  0
   19.9901   17.9747   24.6698 H   0  0  0  0  0  0  0  0  0  0  0  0
   21.0090   18.3827   22.8067 C   0  0  0  0  0  0  0  0  0  0  0  0
   22.0285   18.1636   23.1523 H   0  0  0  0  0  0  0  0  0  0  0  0
   20.6128   17.4293   22.4316 H   0  0  0  0  0  0  0  0  0  0  0  0
   21.0809   19.4037   21.6397 C   0  0  0  0  0  0  0  0  0  0  0  0
   22.0809   19.3368   21.1903 H   0  0  0  0  0  0  0  0  0  0  0  0
   20.9909   20.4317   22.0117 H   0  0  0  0  0  0  0  0  0  0  0  0
   20.0465   19.1639   20.5123 C   0  0  0  0  0  0  0  0  0  0  0  0
   20.2411   19.8801   19.7021 H   0  0  0  0  0  0  0  0  0  0  0  0
   20.1956   18.1644   20.0811 H   0  0  0  0  0  0  0  0  0  0  0  0
   18.5786   19.3144   20.9629 C   0  0  0  0  0  0  0  0  0  0  0  0
   18.4144   20.2831   21.4525 H   0  0  0  0  0  0  0  0  0  0  0  0
   17.9034   19.2518   20.0999 H   0  0  0  0  0  0  0  0  0  0  0  0
   18.2959   18.5181   21.6626 H   0  0  0  0  0  0  0  0  0  0  0  0
  1  2  1  0  0  0  0
  1  3  2  0  0  0  0
  1  4  1  0  0  0  0
  4  5  1  0  0  0  0
  4  6  1  0  0  0  0
  4  7  1  0  0  0  0
  7  8  1  0  0  0  0
  7  9  1  0  0  0  0
  7 10  1  0  0  0  0
 10 11  1  0  0  0  0
 10 12  1  0  0  0  0
 10 13  1  0  0  0  0
 13 14  1  0  0  0  0
 13 15  1  0  0  0  0
 13 16  1  0  0  0  0
 16 17  1  0  0  0  0
 16 18  1  0  0  0  0
 16 19  1  0  0  0  0
 19 20  1  0  0  0  0
 19 21  1  0  0  0  0
 19 22  1  0  0  0  0
 22 23  1  0  0  0  0
 22 24  1  0  0  0  0
 22 25  1  0  0  0  0
M  END
> <VM2 Rank>
155

> <Conf_Id>
657

> <Probability>
0.00

> <Sum Probability>
99.99

> <Delta G>
6.405

> <G>
-1.558

> <E>
-26.694

> <-TS>
25.136

> <U+W>
-47.262

> <U>
12.718

> <W>
-59.980

> <W(PB)>
-62.376

> <W(SA)>
2.397

> <Valence>
11.548

> <Coulomb>
0.195

> <VdW>
0.975

> <VdW6>
-10.625

> <VdW12>
11.599

> <Bond>
0.265

> <Angle>
3.381

> <Pdih>
7.902

> <Idih>
0.001

> <Tether>
0.000

$$$$
VeraChem MOL file


 25 24  0  0  0  0  0  0  0  0999 V2000     
   20.2902   19.8121   26.3972 C   0  0  0  0  0  0  0  0  0  0  0  0
   21.2922   20.4535   26.1477 O   0  5  0  0  0  0  0  0  0  0  0  0
   19.2506   20.3132   26.7790 O   0  0  0  0  0  0  0  0  0  0  0  0
   20.3757   18.2887   26.3332 C   0  0  0  0  0  0  0  0  0  0  0  0
   19.4519   17.8622   26.7422 H   0  0  0  0  0  0  0  0  0  0  0  0
   21.1835   17.9966   27.0142 H   0  0  0  0  0  0  0  0  0  0  0  0
   20.6658   17.6992   24.9243 C   0  0  0  0  0  0  0  0  0  0  0  0
   21.4583   18.2760   24.4292 H   0  0  0  0  0  0  0  0  0  0  0  0
   21.0761   16.6897   25.0612 H   0  0  0  0  0  0  0  0  0  0  0  0
   19.4221   17.5754   24.0059 C   0  0  0  0  0  0  0  0  0  0  0  0
   18.6587   16.9773   24.5215 H   0  0  0  0  0  0  0  0  0  0  0  0
   19.6984   16.9936   23.1169 H   0  0  0  0  0  0  0  0  0  0  0  0
   18.7811   18.9127   23.5527 C   0  0  0  0  0  0  0  0  0  0  0  0
   17.9213   18.6858   22.9081 H   0  0  0  0  0  0  0  0  0  0  0  0
   18.3647   19.4314   24.4254 H   0  0  0  0  0  0  0  0  0  0  0  0
   19.7268   19.8788   22.7953 C   0  0  0  0  0  0  0  0  0  0  0  0
   20.5463   20.1954   23.4537 H   0  0  0  0  0  0  0  0  0  0  0  0
   19.1652   20.7909   22.5522 H   0  0  0  0  0  0  0  0  0  0  0  0
   20.3046   19.2819   21.4922 C   0  0  0  0  0  0  0  0  0  0  0  0
   20.9347   18.4131   21.7241 H   0  0  0  0  0  0  0  0  0  0  0  0
   19.4856   18.9239   20.8534 H   0  0  0  0  0  0  0  0  0  0  0  0
   21.1440   20.3184   20.7183 C   0  0  0  0  0  0  0  0  0  0  0  0
   21.9862   20.6732   21.3268 H   0  0  0  0  0  0  0  0  0  0  0  0
   21.5513   19.8779   19.7991 H   0  0  0  0  0  0  0  0  0  0  0  0
   20.5343   21.1870   20.4369 H   0  0  0  0  0  0  0  0  0  0  0  0
  1  2  1  0  0  0  0
  1  3  2  0  0  0  0
  1  4  1  0  0  0  0
  4  5  1  0  0  0  0
  4  6  1  0  0  0  0
  4  7  1  0  0  0  0
  7  8  1  0  0  0  0
  7  9  1  0  0  0  0
  7 10  1  0  0  0  0
 10 11  1  0  0  0  0
 10 12  1  0  0  0  0
 10 13  1  0  0  0  0
 13 14  1  0  0  0  0
 13 15  1  0  0  0  0
 13 16  1  0  0  0  0
 16 17  1  0  0  0  0
 16 18  1  0  0  0  0
 16 19  1  0  0  0  0
 19 20  1  0  0  0  0
 19 21  1  0  0  0  0
 19 22  1  0  0  0  0
 22 23  1  0  0  0  0
 22 24  1  0  0  0  0
 22 25  1  0  0  0  0
M  END
> <VM2 Rank>
156

> <Conf_Id>
524

> <Probability>
0.00

> <Sum Probability>
99.99

> <Delta G>
6.407

> <G>
-1.555

> <E>
-27.544

> <-TS>
25.989

> <U+W>
-48.112

> <U>
13.027

> <W>
-61.139

> <W(PB)>
-63.503

> <W(SA)>
2.364

> <Valence>
10.559

> <Coulomb>
2.239

> <VdW>
0.229

> <VdW6>
-12.344

> <VdW12>
12.573

> <Bond>
0.282

> <Angle>
4.052

> <Pdih>
6.208

> <Idih>
0.016

> <Tether>
0.000

$$$$
VeraChem MOL file


 25 24  0  0  0  0  0  0  0  0999 V2000     
   20.1089   19.1550   27.1017 C   0  0  0  0  0  0  0  0  0  0  0  0
   21.0400   19.4426   27.8282 O   0  5  0  0  0  0  0  0  0  0  0  0
   18.9608   19.4910   27.3158 O   0  0  0  0  0  0  0  0  0  0  0  0
   20.3968   18.3066   25.8662 C   0  0  0  0  0  0  0  0  0  0  0  0
   19.4529   17.8831   25.5063 H   0  0  0  0  0  0  0  0  0  0  0  0
   21.0126   17.4600   26.1912 H   0  0  0  0  0  0  0  0  0  0  0  0
   21.1334   19.0691   24.7299 C   0  0  0  0  0  0  0  0  0  0  0  0
   22.0780   19.4611   25.1314 H   0  0  0  0  0  0  0  0  0  0  0  0
   21.4099   18.3575   23.9433 H   0  0  0  0  0  0  0  0  0  0  0  0
   20.3250   20.2466   24.1243 C   0  0  0  0  0  0  0  0  0  0  0  0
   20.9901   20.8676   23.5091 H   0  0  0  0  0  0  0  0  0  0  0  0
   19.9900   20.8984   24.9426 H   0  0  0  0  0  0  0  0  0  0  0  0
   19.0905   19.8258   23.2830 C   0  0  0  0  0  0  0  0  0  0  0  0
   18.6805   18.8721   23.6370 H   0  0  0  0  0  0  0  0  0  0  0  0
   18.2978   20.5676   23.4503 H   0  0  0  0  0  0  0  0  0  0  0  0
   19.3445   19.7524   21.7563 C   0  0  0  0  0  0  0  0  0  0  0  0
   19.6626   20.7382   21.3906 H   0  0  0  0  0  0  0  0  0  0  0  0
   18.3899   19.5330   21.2589 H   0  0  0  0  0  0  0  0  0  0  0  0
   20.3833   18.6895   21.3372 C   0  0  0  0  0  0  0  0  0  0  0  0
   21.3729   18.9622   21.7262 H   0  0  0  0  0  0  0  0  0  0  0  0
   20.1177   17.7174   21.7750 H   0  0  0  0  0  0  0  0  0  0  0  0
   20.4699   18.5555   19.8033 C   0  0  0  0  0  0  0  0  0  0  0  0
   20.7585   19.5090   19.3419 H   0  0  0  0  0  0  0  0  0  0  0  0
   21.2180   17.8028   19.5227 H   0  0  0  0  0  0  0  0  0  0  0  0
   19.5047   18.2478   19.3802 H   0  0  0  0  0  0  0  0  0  0  0  0
  1  2  1  0  0  0  0
  1  3  2  0  0  0  0
  1  4  1  0  0  0  0
  4  5  1  0  0  0  0
  4  6  1  0  0  0  0
  4  7  1  0  0  0  0
  7  8  1  0  0  0  0
  7  9  1  0  0  0  0
  7 10  1  0  0  0  0
 10 11  1  0  0  0  0
 10 12  1  0  0  0  0
 10 13  1  0  0  0  0
 13 14  1  0  0  0  0
 13 15  1  0  0  0  0
 13 16  1  0  0  0  0
 16 17  1  0  0  0  0
 16 18  1  0  0  0  0
 16 19  1  0  0  0  0
 19 20  1  0  0  0  0
 19 21  1  0  0  0  0
 19 22  1  0  0  0  0
 22 23  1  0  0  0  0
 22 24  1  0  0  0  0
 22 25  1  0  0  0  0
M  END
> <VM2 Rank>
157

> <Conf_Id>
221

> <Probability>
0.00

> <Sum Probability>
100.00

> <Delta G>
6.443

> <G>
-1.519

> <E>
-26.606

> <-TS>
25.086

> <U+W>
-47.174

> <U>
12.589

> <W>
-59.762

> <W(PB)>
-62.181

> <W(SA)>
2.419

> <Valence>
11.588

> <Coulomb>
0.120

> <VdW>
0.881

> <VdW6>
-10.829

> <VdW12>
11.710

> <Bond>
0.286

> <Angle>
3.540

> <Pdih>
7.761

> <Idih>
0.001

> <Tether>
0.000

$$$$
VeraChem MOL file


 25 24  0  0  0  0  0  0  0  0999 V2000     
   20.0751   19.5092   27.1066 C   0  0  0  0  0  0  0  0  0  0  0  0
   21.1524   19.1510   27.5405 O   0  5  0  0  0  0  0  0  0  0  0  0
   19.0125   19.2133   27.6170 O   0  0  0  0  0  0  0  0  0  0  0  0
   20.0538   20.3954   25.8643 C   0  0  0  0  0  0  0  0  0  0  0  0
   21.0464   20.8441   25.7370 H   0  0  0  0  0  0  0  0  0  0  0  0
   19.3565   21.2181   26.0609 H   0  0  0  0  0  0  0  0  0  0  0  0
   19.6305   19.6568   24.5680 C   0  0  0  0  0  0  0  0  0  0  0  0
   18.6500   19.1860   24.7230 H   0  0  0  0  0  0  0  0  0  0  0  0
   19.4978   20.3977   23.7718 H   0  0  0  0  0  0  0  0  0  0  0  0
   20.6599   18.5862   24.1313 C   0  0  0  0  0  0  0  0  0  0  0  0
   20.7520   17.8474   24.9392 H   0  0  0  0  0  0  0  0  0  0  0  0
   21.6548   19.0378   24.0179 H   0  0  0  0  0  0  0  0  0  0  0  0
   20.2629   17.8378   22.8329 C   0  0  0  0  0  0  0  0  0  0  0  0
   20.5885   16.7937   22.9356 H   0  0  0  0  0  0  0  0  0  0  0  0
   19.1706   17.7935   22.7317 H   0  0  0  0  0  0  0  0  0  0  0  0
   20.9127   18.3941   21.5383 C   0  0  0  0  0  0  0  0  0  0  0  0
   20.6748   17.7152   20.7081 H   0  0  0  0  0  0  0  0  0  0  0  0
   22.0051   18.3601   21.6487 H   0  0  0  0  0  0  0  0  0  0  0  0
   20.4989   19.8291   21.1348 C   0  0  0  0  0  0  0  0  0  0  0  0
   20.7833   20.5400   21.9208 H   0  0  0  0  0  0  0  0  0  0  0  0
   21.0738   20.1200   20.2449 H   0  0  0  0  0  0  0  0  0  0  0  0
   18.9943   19.9611   20.8123 C   0  0  0  0  0  0  0  0  0  0  0  0
   18.7021   19.2640   20.0163 H   0  0  0  0  0  0  0  0  0  0  0  0
   18.3745   19.7535   21.6930 H   0  0  0  0  0  0  0  0  0  0  0  0
   18.7619   20.9787   20.4728 H   0  0  0  0  0  0  0  0  0  0  0  0
  1  2  1  0  0  0  0
  1  3  2  0  0  0  0
  1  4  1  0  0  0  0
  4  5  1  0  0  0  0
  4  6  1  0  0  0  0
  4  7  1  0  0  0  0
  7  8  1  0  0  0  0
  7  9  1  0  0  0  0
  7 10  1  0  0  0  0
 10 11  1  0  0  0  0
 10 12  1  0  0  0  0
 10 13  1  0  0  0  0
 13 14  1  0  0  0  0
 13 15  1  0  0  0  0
 13 16  1  0  0  0  0
 16 17  1  0  0  0  0
 16 18  1  0  0  0  0
 16 19  1  0  0  0  0
 19 20  1  0  0  0  0
 19 21  1  0  0  0  0
 19 22  1  0  0  0  0
 22 23  1  0  0  0  0
 22 24  1  0  0  0  0
 22 25  1  0  0  0  0
M  END
> <VM2 Rank>
158

> <Conf_Id>
286

> <Probability>
0.00

> <Sum Probability>
100.00

> <Delta G>
6.483

> <G>
-1.479

> <E>
-26.985

> <-TS>
25.505

> <U+W>
-47.552

> <U>
12.398

> <W>
-59.950

> <W(PB)>
-62.336

> <W(SA)>
2.386

> <Valence>
11.446

> <Coulomb>
0.281

> <VdW>
0.670

> <VdW6>
-11.120

> <VdW12>
11.790

> <Bond>
0.259

> <Angle>
3.688

> <Pdih>
7.498

> <Idih>
0.001

> <Tether>
0.000

$$$$
VeraChem MOL file


 25 24  0  0  0  0  0  0  0  0999 V2000     
   20.1237   19.7836   26.7504 C   0  0  0  0  0  0  0  0  0  0  0  0
   21.2813   20.1535   26.7690 O   0  5  0  0  0  0  0  0  0  0  0  0
   19.5355   19.3671   27.7292 O   0  0  0  0  0  0  0  0  0  0  0  0
   19.3568   19.8698   25.4340 C   0  0  0  0  0  0  0  0  0  0  0  0
   19.9099   20.5247   24.7519 H   0  0  0  0  0  0  0  0  0  0  0  0
   18.4045   20.3706   25.6431 H   0  0  0  0  0  0  0  0  0  0  0  0
   19.0794   18.4920   24.7721 C   0  0  0  0  0  0  0  0  0  0  0  0
   18.4958   17.8798   25.4734 H   0  0  0  0  0  0  0  0  0  0  0  0
   18.4399   18.6250   23.8909 H   0  0  0  0  0  0  0  0  0  0  0  0
   20.3547   17.7071   24.3765 C   0  0  0  0  0  0  0  0  0  0  0  0
   20.0561   16.7283   23.9773 H   0  0  0  0  0  0  0  0  0  0  0  0
   20.9331   17.4934   25.2858 H   0  0  0  0  0  0  0  0  0  0  0  0
   21.2902   18.4007   23.3514 C   0  0  0  0  0  0  0  0  0  0  0  0
   21.6659   19.3522   23.7505 H   0  0  0  0  0  0  0  0  0  0  0  0
   22.1773   17.7623   23.2418 H   0  0  0  0  0  0  0  0  0  0  0  0
   20.6775   18.6020   21.9414 C   0  0  0  0  0  0  0  0  0  0  0  0
   19.9409   17.8140   21.7338 H   0  0  0  0  0  0  0  0  0  0  0  0
   21.4769   18.4755   21.1984 H   0  0  0  0  0  0  0  0  0  0  0  0
   20.0450   19.9967   21.7292 C   0  0  0  0  0  0  0  0  0  0  0  0
   19.2241   20.1593   22.4367 H   0  0  0  0  0  0  0  0  0  0  0  0
   20.7939   20.7754   21.9287 H   0  0  0  0  0  0  0  0  0  0  0  0
   19.5089   20.1615   20.2928 C   0  0  0  0  0  0  0  0  0  0  0  0
   18.7355   19.4134   20.0748 H   0  0  0  0  0  0  0  0  0  0  0  0
   19.0657   21.1566   20.1573 H   0  0  0  0  0  0  0  0  0  0  0  0
   20.3149   20.0464   19.5564 H   0  0  0  0  0  0  0  0  0  0  0  0
  1  2  1  0  0  0  0
  1  3  2  0  0  0  0
  1  4  1  0  0  0  0
  4  5  1  0  0  0  0
  4  6  1  0  0  0  0
  4  7  1  0  0  0  0
  7  8  1  0  0  0  0
  7  9  1  0  0  0  0
  7 10  1  0  0  0  0
 10 11  1  0  0  0  0
 10 12  1  0  0  0  0
 10 13  1  0  0  0  0
 13 14  1  0  0  0  0
 13 15  1  0  0  0  0
 13 16  1  0  0  0  0
 16 17  1  0  0  0  0
 16 18  1  0  0  0  0
 16 19  1  0  0  0  0
 19 20  1  0  0  0  0
 19 21  1  0  0  0  0
 19 22  1  0  0  0  0
 22 23  1  0  0  0  0
 22 24  1  0  0  0  0
 22 25  1  0  0  0  0
M  END
> <VM2 Rank>
159

> <Conf_Id>
727

> <Probability>
0.00

> <Sum Probability>
100.00

> <Delta G>
6.518

> <G>
-1.444

> <E>
-27.002

> <-TS>
25.558

> <U+W>
-47.570

> <U>
12.713

> <W>
-60.283

> <W(PB)>
-62.652

> <W(SA)>
2.369

> <Valence>
11.394

> <Coulomb>
0.936

> <VdW>
0.383

> <VdW6>
-11.631

> <VdW12>
12.014

> <Bond>
0.274

> <Angle>
3.833

> <Pdih>
7.287

> <Idih>
0.001

> <Tether>
0.000

$$$$
VeraChem MOL file


 25 24  0  0  0  0  0  0  0  0999 V2000     
   20.0871   19.8297   26.6193 C   0  0  0  0  0  0  0  0  0  0  0  0
   21.0700   20.2338   27.2093 O   0  5  0  0  0  0  0  0  0  0  0  0
   19.1760   20.5489   26.2592 O   0  0  0  0  0  0  0  0  0  0  0  0
   19.9777   18.3320   26.3470 C   0  0  0  0  0  0  0  0  0  0  0  0
   18.9453   18.1022   26.0594 H   0  0  0  0  0  0  0  0  0  0  0  0
   20.1581   17.8143   27.2962 H   0  0  0  0  0  0  0  0  0  0  0  0
   20.9738   17.8065   25.2773 C   0  0  0  0  0  0  0  0  0  0  0  0
   21.9986   17.9895   25.6287 H   0  0  0  0  0  0  0  0  0  0  0  0
   20.8682   16.7167   25.1913 H   0  0  0  0  0  0  0  0  0  0  0  0
   20.8043   18.4477   23.8781 C   0  0  0  0  0  0  0  0  0  0  0  0
   21.5879   18.0556   23.2158 H   0  0  0  0  0  0  0  0  0  0  0  0
   20.9684   19.5305   23.9550 H   0  0  0  0  0  0  0  0  0  0  0  0
   19.4207   18.1756   23.2429 C   0  0  0  0  0  0  0  0  0  0  0  0
   19.1931   17.1044   23.3270 H   0  0  0  0  0  0  0  0  0  0  0  0
   18.6438   18.7045   23.8112 H   0  0  0  0  0  0  0  0  0  0  0  0
   19.3170   18.5807   21.7510 C   0  0  0  0  0  0  0  0  0  0  0  0
   18.3201   18.2837   21.3976 H   0  0  0  0  0  0  0  0  0  0  0  0
   20.0313   18.0005   21.1511 H   0  0  0  0  0  0  0  0  0  0  0  0
   19.4920   20.0959   21.4788 C   0  0  0  0  0  0  0  0  0  0  0  0
   18.8253   20.3833   20.6542 H   0  0  0  0  0  0  0  0  0  0  0  0
   19.1674   20.6790   22.3521 H   0  0  0  0  0  0  0  0  0  0  0  0
   20.9345   20.4832   21.0832 C   0  0  0  0  0  0  0  0  0  0  0  0
   21.6520   20.2504   21.8780 H   0  0  0  0  0  0  0  0  0  0  0  0
   21.2475   19.9497   20.1764 H   0  0  0  0  0  0  0  0  0  0  0  0
   21.0000   21.5596   20.8788 H   0  0  0  0  0  0  0  0  0  0  0  0
  1  2  1  0  0  0  0
  1  3  2  0  0  0  0
  1  4  1  0  0  0  0
  4  5  1  0  0  0  0
  4  6  1  0  0  0  0
  4  7  1  0  0  0  0
  7  8  1  0  0  0  0
  7  9  1  0  0  0  0
  7 10  1  0  0  0  0
 10 11  1  0  0  0  0
 10 12  1  0  0  0  0
 10 13  1  0  0  0  0
 13 14  1  0  0  0  0
 13 15  1  0  0  0  0
 13 16  1  0  0  0  0
 16 17  1  0  0  0  0
 16 18  1  0  0  0  0
 16 19  1  0  0  0  0
 19 20  1  0  0  0  0
 19 21  1  0  0  0  0
 19 22  1  0  0  0  0
 22 23  1  0  0  0  0
 22 24  1  0  0  0  0
 22 25  1  0  0  0  0
M  END
> <VM2 Rank>
160

> <Conf_Id>
849

> <Probability>
0.00

> <Sum Probability>
100.00

> <Delta G>
6.611

> <G>
-1.351

> <E>
-26.594

> <-TS>
25.243

> <U+W>
-47.162

> <U>
13.833

> <W>
-60.995

> <W(PB)>
-63.364

> <W(SA)>
2.370

> <Valence>
11.236

> <Coulomb>
1.973

> <VdW>
0.624

> <VdW6>
-11.284

> <VdW12>
11.908

> <Bond>
0.259

> <Angle>
3.439

> <Pdih>
7.536

> <Idih>
0.001

> <Tether>
0.000

$$$$
VeraChem MOL file


 25 24  0  0  0  0  0  0  0  0999 V2000     
   20.0918   19.8293   26.7357 C   0  0  0  0  0  0  0  0  0  0  0  0
   21.0741   20.5393   26.8258 O   0  5  0  0  0  0  0  0  0  0  0  0
   18.9531   20.2380   26.8517 O   0  0  0  0  0  0  0  0  0  0  0  0
   20.3033   18.3375   26.4925 C   0  0  0  0  0  0  0  0  0  0  0  0
   19.3923   17.8022   26.7861 H   0  0  0  0  0  0  0  0  0  0  0  0
   21.0992   18.0045   27.1689 H   0  0  0  0  0  0  0  0  0  0  0  0
   20.6848   17.9862   25.0310 C   0  0  0  0  0  0  0  0  0  0  0  0
   21.5851   18.5492   24.7530 H   0  0  0  0  0  0  0  0  0  0  0  0
   20.9498   16.9217   24.9786 H   0  0  0  0  0  0  0  0  0  0  0  0
   19.5364   18.2758   24.0340 C   0  0  0  0  0  0  0  0  0  0  0  0
   19.2779   19.3412   24.0651 H   0  0  0  0  0  0  0  0  0  0  0  0
   18.6400   17.7331   24.3633 H   0  0  0  0  0  0  0  0  0  0  0  0
   19.8646   17.8444   22.5822 C   0  0  0  0  0  0  0  0  0  0  0  0
   20.2257   16.8072   22.6031 H   0  0  0  0  0  0  0  0  0  0  0  0
   18.9401   17.8236   21.9894 H   0  0  0  0  0  0  0  0  0  0  0  0
   20.9171   18.7292   21.8619 C   0  0  0  0  0  0  0  0  0  0  0  0
   21.5196   18.0800   21.2121 H   0  0  0  0  0  0  0  0  0  0  0  0
   21.6215   19.1647   22.5813 H   0  0  0  0  0  0  0  0  0  0  0  0
   20.3178   19.8484   20.9750 C   0  0  0  0  0  0  0  0  0  0  0  0
   21.1392   20.3524   20.4473 H   0  0  0  0  0  0  0  0  0  0  0  0
   19.6811   19.4030   20.1982 H   0  0  0  0  0  0  0  0  0  0  0  0
   19.5102   20.9058   21.7563 C   0  0  0  0  0  0  0  0  0  0  0  0
   20.1011   21.3208   22.5833 H   0  0  0  0  0  0  0  0  0  0  0  0
   19.2215   21.7339   21.0963 H   0  0  0  0  0  0  0  0  0  0  0  0
   18.5894   20.4750   22.1688 H   0  0  0  0  0  0  0  0  0  0  0  0
  1  2  1  0  0  0  0
  1  3  2  0  0  0  0
  1  4  1  0  0  0  0
  4  5  1  0  0  0  0
  4  6  1  0  0  0  0
  4  7  1  0  0  0  0
  7  8  1  0  0  0  0
  7  9  1  0  0  0  0
  7 10  1  0  0  0  0
 10 11  1  0  0  0  0
 10 12  1  0  0  0  0
 10 13  1  0  0  0  0
 13 14  1  0  0  0  0
 13 15  1  0  0  0  0
 13 16  1  0  0  0  0
 16 17  1  0  0  0  0
 16 18  1  0  0  0  0
 16 19  1  0  0  0  0
 19 20  1  0  0  0  0
 19 21  1  0  0  0  0
 19 22  1  0  0  0  0
 22 23  1  0  0  0  0
 22 24  1  0  0  0  0
 22 25  1  0  0  0  0
M  END
> <VM2 Rank>
161

> <Conf_Id>
228

> <Probability>
0.00

> <Sum Probability>
100.00

> <Delta G>
6.637

> <G>
-1.325

> <E>
-26.455

> <-TS>
25.130

> <U+W>
-47.023

> <U>
13.848

> <W>
-60.871

> <W(PB)>
-63.249

> <W(SA)>
2.378

> <Valence>
11.487

> <Coulomb>
1.559

> <VdW>
0.803

> <VdW6>
-10.837

> <VdW12>
11.639

> <Bond>
0.263

> <Angle>
3.376

> <Pdih>
7.847

> <Idih>
0.001

> <Tether>
0.000

$$$$
VeraChem MOL file


 25 24  0  0  0  0  0  0  0  0999 V2000     
   20.3579   18.9803   26.8668 C   0  0  0  0  0  0  0  0  0  0  0  0
   21.5472   18.8070   26.6865 O   0  5  0  0  0  0  0  0  0  0  0  0
   19.6515   18.2068   27.4833 O   0  0  0  0  0  0  0  0  0  0  0  0
   19.7206   20.2530   26.3161 C   0  0  0  0  0  0  0  0  0  0  0  0
   20.5165   20.9550   26.0440 H   0  0  0  0  0  0  0  0  0  0  0  0
   19.1651   20.7199   27.1378 H   0  0  0  0  0  0  0  0  0  0  0  0
   18.7604   20.0159   25.1181 C   0  0  0  0  0  0  0  0  0  0  0  0
   17.9344   19.3738   25.4541 H   0  0  0  0  0  0  0  0  0  0  0  0
   18.3062   20.9718   24.8246 H   0  0  0  0  0  0  0  0  0  0  0  0
   19.4223   19.3635   23.8790 C   0  0  0  0  0  0  0  0  0  0  0  0
   18.6307   19.1504   23.1499 H   0  0  0  0  0  0  0  0  0  0  0  0
   19.8626   18.3962   24.1572 H   0  0  0  0  0  0  0  0  0  0  0  0
   20.4974   20.2539   23.2118 C   0  0  0  0  0  0  0  0  0  0  0  0
   20.0430   21.2033   22.8979 H   0  0  0  0  0  0  0  0  0  0  0  0
   21.2692   20.5076   23.9494 H   0  0  0  0  0  0  0  0  0  0  0  0
   21.2040   19.5952   22.0001 C   0  0  0  0  0  0  0  0  0  0  0  0
   21.7410   18.6932   22.3242 H   0  0  0  0  0  0  0  0  0  0  0  0
   21.9775   20.2924   21.6501 H   0  0  0  0  0  0  0  0  0  0  0  0
   20.2743   19.2671   20.8050 C   0  0  0  0  0  0  0  0  0  0  0  0
   19.4027   19.9361   20.8048 H   0  0  0  0  0  0  0  0  0  0  0  0
   20.8159   19.4715   19.8712 H   0  0  0  0  0  0  0  0  0  0  0  0
   19.8174   17.7913   20.7793 C   0  0  0  0  0  0  0  0  0  0  0  0
   19.2630   17.5201   21.6850 H   0  0  0  0  0  0  0  0  0  0  0  0
   19.1637   17.6064   19.9171 H   0  0  0  0  0  0  0  0  0  0  0  0
   20.6802   17.1176   20.6969 H   0  0  0  0  0  0  0  0  0  0  0  0
  1  2  1  0  0  0  0
  1  3  2  0  0  0  0
  1  4  1  0  0  0  0
  4  5  1  0  0  0  0
  4  6  1  0  0  0  0
  4  7  1  0  0  0  0
  7  8  1  0  0  0  0
  7  9  1  0  0  0  0
  7 10  1  0  0  0  0
 10 11  1  0  0  0  0
 10 12  1  0  0  0  0
 10 13  1  0  0  0  0
 13 14  1  0  0  0  0
 13 15  1  0  0  0  0
 13 16  1  0  0  0  0
 16 17  1  0  0  0  0
 16 18  1  0  0  0  0
 16 19  1  0  0  0  0
 19 20  1  0  0  0  0
 19 21  1  0  0  0  0
 19 22  1  0  0  0  0
 22 23  1  0  0  0  0
 22 24  1  0  0  0  0
 22 25  1  0  0  0  0
M  END
> <VM2 Rank>
162

> <Conf_Id>
535

> <Probability>
0.00

> <Sum Probability>
100.00

> <Delta G>
6.657

> <G>
-1.305

> <E>
-26.412

> <-TS>
25.107

> <U+W>
-46.980

> <U>
13.601

> <W>
-60.581

> <W(PB)>
-63.002

> <W(SA)>
2.421

> <Valence>
11.436

> <Coulomb>
1.346

> <VdW>
0.819

> <VdW6>
-10.981

> <VdW12>
11.799

> <Bond>
0.269

> <Angle>
3.573

> <Pdih>
7.592

> <Idih>
0.001

> <Tether>
0.000

$$$$
VeraChem MOL file


 25 24  0  0  0  0  0  0  0  0999 V2000     
   20.6582   19.5111   26.4915 C   0  0  0  0  0  0  0  0  0  0  0  0
   21.4586   20.2986   26.0269 O   0  5  0  0  0  0  0  0  0  0  0  0
   20.0756   19.6905   27.5433 O   0  0  0  0  0  0  0  0  0  0  0  0
   20.4093   18.2028   25.7437 C   0  0  0  0  0  0  0  0  0  0  0  0
   20.7110   17.3900   26.4142 H   0  0  0  0  0  0  0  0  0  0  0  0
   21.0773   18.1505   24.8773 H   0  0  0  0  0  0  0  0  0  0  0  0
   18.9349   17.9839   25.3105 C   0  0  0  0  0  0  0  0  0  0  0  0
   18.8329   16.9797   24.8775 H   0  0  0  0  0  0  0  0  0  0  0  0
   18.3035   17.9914   26.2098 H   0  0  0  0  0  0  0  0  0  0  0  0
   18.3799   19.0287   24.3087 C   0  0  0  0  0  0  0  0  0  0  0  0
   18.4520   20.0401   24.7316 H   0  0  0  0  0  0  0  0  0  0  0  0
   17.3052   18.8323   24.1932 H   0  0  0  0  0  0  0  0  0  0  0  0
   19.0259   18.9786   22.9001 C   0  0  0  0  0  0  0  0  0  0  0  0
   19.3978   17.9660   22.6980 H   0  0  0  0  0  0  0  0  0  0  0  0
   18.2435   19.1720   22.1538 H   0  0  0  0  0  0  0  0  0  0  0  0
   20.1496   20.0253   22.6989 C   0  0  0  0  0  0  0  0  0  0  0  0
   20.9726   19.8470   23.4005 H   0  0  0  0  0  0  0  0  0  0  0  0
   19.7548   21.0218   22.9391 H   0  0  0  0  0  0  0  0  0  0  0  0
   20.7083   20.0547   21.2571 C   0  0  0  0  0  0  0  0  0  0  0  0
   19.8925   20.2429   20.5456 H   0  0  0  0  0  0  0  0  0  0  0  0
   21.4015   20.9022   21.1658 H   0  0  0  0  0  0  0  0  0  0  0  0
   21.4528   18.7598   20.8653 C   0  0  0  0  0  0  0  0  0  0  0  0
   20.7716   17.9006   20.8302 H   0  0  0  0  0  0  0  0  0  0  0  0
   21.9075   18.8640   19.8717 H   0  0  0  0  0  0  0  0  0  0  0  0
   22.2536   18.5356   21.5820 H   0  0  0  0  0  0  0  0  0  0  0  0
  1  2  1  0  0  0  0
  1  3  2  0  0  0  0
  1  4  1  0  0  0  0
  4  5  1  0  0  0  0
  4  6  1  0  0  0  0
  4  7  1  0  0  0  0
  7  8  1  0  0  0  0
  7  9  1  0  0  0  0
  7 10  1  0  0  0  0
 10 11  1  0  0  0  0
 10 12  1  0  0  0  0
 10 13  1  0  0  0  0
 13 14  1  0  0  0  0
 13 15  1  0  0  0  0
 13 16  1  0  0  0  0
 16 17  1  0  0  0  0
 16 18  1  0  0  0  0
 16 19  1  0  0  0  0
 19 20  1  0  0  0  0
 19 21  1  0  0  0  0
 19 22  1  0  0  0  0
 22 23  1  0  0  0  0
 22 24  1  0  0  0  0
 22 25  1  0  0  0  0
M  END
> <VM2 Rank>
163

> <Conf_Id>
1096

> <Probability>
0.00

> <Sum Probability>
100.00

> <Delta G>
6.827

> <G>
-1.135

> <E>
-26.349

> <-TS>
25.214

> <U+W>
-46.916

> <U>
13.927

> <W>
-60.843

> <W(PB)>
-63.215

> <W(SA)>
2.372

> <Valence>
11.622

> <Coulomb>
1.811

> <VdW>
0.493

> <VdW6>
-11.533

> <VdW12>
12.026

> <Bond>
0.265

> <Angle>
3.636

> <Pdih>
7.718

> <Idih>
0.004

> <Tether>
0.000

$$$$
VeraChem MOL file


 25 24  0  0  0  0  0  0  0  0999 V2000     
   20.3987   19.8080   26.4844 C   0  0  0  0  0  0  0  0  0  0  0  0
   21.2979   20.4822   26.0225 O   0  5  0  0  0  0  0  0  0  0  0  0
   20.4723   19.2360   27.5547 O   0  0  0  0  0  0  0  0  0  0  0  0
   19.0875   19.7156   25.7067 C   0  0  0  0  0  0  0  0  0  0  0  0
   19.1466   20.3602   24.8232 H   0  0  0  0  0  0  0  0  0  0  0  0
   18.3065   20.1417   26.3467 H   0  0  0  0  0  0  0  0  0  0  0  0
   18.6830   18.2722   25.3033 C   0  0  0  0  0  0  0  0  0  0  0  0
   18.5833   17.6709   26.2176 H   0  0  0  0  0  0  0  0  0  0  0  0
   17.6853   18.2935   24.8447 H   0  0  0  0  0  0  0  0  0  0  0  0
   19.6682   17.5546   24.3453 C   0  0  0  0  0  0  0  0  0  0  0  0
   19.3321   16.5130   24.2508 H   0  0  0  0  0  0  0  0  0  0  0  0
   20.6694   17.5027   24.7947 H   0  0  0  0  0  0  0  0  0  0  0  0
   19.7402   18.1616   22.9205 C   0  0  0  0  0  0  0  0  0  0  0  0
   19.8458   17.3397   22.1994 H   0  0  0  0  0  0  0  0  0  0  0  0
   18.7919   18.6591   22.6804 H   0  0  0  0  0  0  0  0  0  0  0  0
   20.9326   19.1299   22.7216 C   0  0  0  0  0  0  0  0  0  0  0  0
   21.8609   18.6132   23.0004 H   0  0  0  0  0  0  0  0  0  0  0  0
   20.8481   19.9893   23.3967 H   0  0  0  0  0  0  0  0  0  0  0  0
   21.0731   19.6379   21.2676 C   0  0  0  0  0  0  0  0  0  0  0  0
   22.0074   20.2098   21.1837 H   0  0  0  0  0  0  0  0  0  0  0  0
   21.1691   18.7842   20.5827 H   0  0  0  0  0  0  0  0  0  0  0  0
   19.8994   20.5358   20.8194 C   0  0  0  0  0  0  0  0  0  0  0  0
   20.0889   20.9439   19.8181 H   0  0  0  0  0  0  0  0  0  0  0  0
   18.9583   19.9737   20.7763 H   0  0  0  0  0  0  0  0  0  0  0  0
   19.7656   21.3796   21.5088 H   0  0  0  0  0  0  0  0  0  0  0  0
  1  2  1  0  0  0  0
  1  3  2  0  0  0  0
  1  4  1  0  0  0  0
  4  5  1  0  0  0  0
  4  6  1  0  0  0  0
  4  7  1  0  0  0  0
  7  8  1  0  0  0  0
  7  9  1  0  0  0  0
  7 10  1  0  0  0  0
 10 11  1  0  0  0  0
 10 12  1  0  0  0  0
 10 13  1  0  0  0  0
 13 14  1  0  0  0  0
 13 15  1  0  0  0  0
 13 16  1  0  0  0  0
 16 17  1  0  0  0  0
 16 18  1  0  0  0  0
 16 19  1  0  0  0  0
 19 20  1  0  0  0  0
 19 21  1  0  0  0  0
 19 22  1  0  0  0  0
 22 23  1  0  0  0  0
 22 24  1  0  0  0  0
 22 25  1  0  0  0  0
M  END
> <VM2 Rank>
164

> <Conf_Id>
815

> <Probability>
0.00

> <Sum Probability>
100.00

> <Delta G>
6.833

> <G>
-1.129

> <E>
-26.342

> <-TS>
25.212

> <U+W>
-46.909

> <U>
13.927

> <W>
-60.837

> <W(PB)>
-63.218

> <W(SA)>
2.382

> <Valence>
11.622

> <Coulomb>
1.813

> <VdW>
0.493

> <VdW6>
-11.533

> <VdW12>
12.026

> <Bond>
0.266

> <Angle>
3.637

> <Pdih>
7.715

> <Idih>
0.004

> <Tether>
0.000

$$$$
VeraChem MOL file


 25 24  0  0  0  0  0  0  0  0999 V2000     
   20.3474   19.8948   26.2531 C   0  0  0  0  0  0  0  0  0  0  0  0
   19.3880   20.6411   26.2747 O   0  5  0  0  0  0  0  0  0  0  0  0
   21.4952   20.2802   26.1449 O   0  0  0  0  0  0  0  0  0  0  0  0
   20.1067   18.4044   26.4862 C   0  0  0  0  0  0  0  0  0  0  0  0
   19.6344   18.3199   27.4717 H   0  0  0  0  0  0  0  0  0  0  0  0
   21.0743   17.8930   26.5574 H   0  0  0  0  0  0  0  0  0  0  0  0
   19.2025   17.7061   25.4317 C   0  0  0  0  0  0  0  0  0  0  0  0
   18.7806   16.8041   25.8951 H   0  0  0  0  0  0  0  0  0  0  0  0
   18.3412   18.3436   25.1923 H   0  0  0  0  0  0  0  0  0  0  0  0
   19.9359   17.2640   24.1382 C   0  0  0  0  0  0  0  0  0  0  0  0
   19.2357   16.6865   23.5193 H   0  0  0  0  0  0  0  0  0  0  0  0
   20.7410   16.5675   24.4092 H   0  0  0  0  0  0  0  0  0  0  0  0
   20.5352   18.4003   23.2731 C   0  0  0  0  0  0  0  0  0  0  0  0
   21.2997   18.9438   23.8422 H   0  0  0  0  0  0  0  0  0  0  0  0
   21.0603   17.9370   22.4285 H   0  0  0  0  0  0  0  0  0  0  0  0
   19.4754   19.3918   22.7332 C   0  0  0  0  0  0  0  0  0  0  0  0
   18.9479   19.8556   23.5766 H   0  0  0  0  0  0  0  0  0  0  0  0
   18.7190   18.8476   22.1519 H   0  0  0  0  0  0  0  0  0  0  0  0
   20.0790   20.5243   21.8702 C   0  0  0  0  0  0  0  0  0  0  0  0
   19.2887   21.2537   21.6455 H   0  0  0  0  0  0  0  0  0  0  0  0
   20.8418   21.0628   22.4498 H   0  0  0  0  0  0  0  0  0  0  0  0
   20.6876   20.0271   20.5407 C   0  0  0  0  0  0  0  0  0  0  0  0
   19.9515   19.4548   19.9614 H   0  0  0  0  0  0  0  0  0  0  0  0
   21.0140   20.8766   19.9271 H   0  0  0  0  0  0  0  0  0  0  0  0
   21.5624   19.3882   20.7139 H   0  0  0  0  0  0  0  0  0  0  0  0
  1  2  1  0  0  0  0
  1  3  2  0  0  0  0
  1  4  1  0  0  0  0
  4  5  1  0  0  0  0
  4  6  1  0  0  0  0
  4  7  1  0  0  0  0
  7  8  1  0  0  0  0
  7  9  1  0  0  0  0
  7 10  1  0  0  0  0
 10 11  1  0  0  0  0
 10 12  1  0  0  0  0
 10 13  1  0  0  0  0
 13 14  1  0  0  0  0
 13 15  1  0  0  0  0
 13 16  1  0  0  0  0
 16 17  1  0  0  0  0
 16 18  1  0  0  0  0
 16 19  1  0  0  0  0
 19 20  1  0  0  0  0
 19 21  1  0  0  0  0
 19 22  1  0  0  0  0
 22 23  1  0  0  0  0
 22 24  1  0  0  0  0
 22 25  1  0  0  0  0
M  END
> <VM2 Rank>
165

> <Conf_Id>
792

> <Probability>
0.00

> <Sum Probability>
100.00

> <Delta G>
6.859

> <G>
-1.104

> <E>
-26.914

> <-TS>
25.811

> <U+W>
-47.482

> <U>
13.611

> <W>
-61.093

> <W(PB)>
-63.444

> <W(SA)>
2.352

> <Valence>
10.664

> <Coulomb>
2.596

> <VdW>
0.350

> <VdW6>
-12.153

> <VdW12>
12.503

> <Bond>
0.280

> <Angle>
4.003

> <Pdih>
6.364

> <Idih>
0.017

> <Tether>
0.000

$$$$
VeraChem MOL file


 25 24  0  0  0  0  0  0  0  0999 V2000     
   19.7619   19.6494   26.6190 C   0  0  0  0  0  0  0  0  0  0  0  0
   20.4871   19.8596   27.5718 O   0  5  0  0  0  0  0  0  0  0  0  0
   18.9687   20.4634   26.1892 O   0  0  0  0  0  0  0  0  0  0  0  0
   19.8147   18.2712   25.9627 C   0  0  0  0  0  0  0  0  0  0  0  0
   19.0423   18.2116   25.1882 H   0  0  0  0  0  0  0  0  0  0  0  0
   19.5374   17.5414   26.7320 H   0  0  0  0  0  0  0  0  0  0  0  0
   21.2030   17.8932   25.3798 C   0  0  0  0  0  0  0  0  0  0  0  0
   21.9447   17.9370   26.1894 H   0  0  0  0  0  0  0  0  0  0  0  0
   21.1804   16.8469   25.0467 H   0  0  0  0  0  0  0  0  0  0  0  0
   21.6907   18.7879   24.2117 C   0  0  0  0  0  0  0  0  0  0  0  0
   22.7286   18.5030   23.9913 H   0  0  0  0  0  0  0  0  0  0  0  0
   21.7324   19.8399   24.5263 H   0  0  0  0  0  0  0  0  0  0  0  0
   20.8687   18.6420   22.9054 C   0  0  0  0  0  0  0  0  0  0  0  0
   21.5674   18.6638   22.0592 H   0  0  0  0  0  0  0  0  0  0  0  0
   20.3790   17.6594   22.8735 H   0  0  0  0  0  0  0  0  0  0  0  0
   19.8242   19.7681   22.7093 C   0  0  0  0  0  0  0  0  0  0  0  0
   20.3370   20.7368   22.6375 H   0  0  0  0  0  0  0  0  0  0  0  0
   19.1776   19.8316   23.5921 H   0  0  0  0  0  0  0  0  0  0  0  0
   18.9286   19.5650   21.4649 C   0  0  0  0  0  0  0  0  0  0  0  0
   18.4055   18.6016   21.5386 H   0  0  0  0  0  0  0  0  0  0  0  0
   18.1504   20.3406   21.4615 H   0  0  0  0  0  0  0  0  0  0  0  0
   19.7054   19.6342   20.1321 C   0  0  0  0  0  0  0  0  0  0  0  0
   20.4166   18.8040   20.0395 H   0  0  0  0  0  0  0  0  0  0  0  0
   19.0141   19.5756   19.2816 H   0  0  0  0  0  0  0  0  0  0  0  0
   20.2625   20.5766   20.0506 H   0  0  0  0  0  0  0  0  0  0  0  0
  1  2  1  0  0  0  0
  1  3  2  0  0  0  0
  1  4  1  0  0  0  0
  4  5  1  0  0  0  0
  4  6  1  0  0  0  0
  4  7  1  0  0  0  0
  7  8  1  0  0  0  0
  7  9  1  0  0  0  0
  7 10  1  0  0  0  0
 10 11  1  0  0  0  0
 10 12  1  0  0  0  0
 10 13  1  0  0  0  0
 13 14  1  0  0  0  0
 13 15  1  0  0  0  0
 13 16  1  0  0  0  0
 16 17  1  0  0  0  0
 16 18  1  0  0  0  0
 16 19  1  0  0  0  0
 19 20  1  0  0  0  0
 19 21  1  0  0  0  0
 19 22  1  0  0  0  0
 22 23  1  0  0  0  0
 22 24  1  0  0  0  0
 22 25  1  0  0  0  0
M  END
> <VM2 Rank>
166

> <Conf_Id>
542

> <Probability>
0.00

> <Sum Probability>
100.00

> <Delta G>
6.939

> <G>
-1.023

> <E>
-26.292

> <-TS>
25.269

> <U+W>
-46.860

> <U>
13.632

> <W>
-60.491

> <W(PB)>
-62.870

> <W(SA)>
2.379

> <Valence>
11.731

> <Coulomb>
1.281

> <VdW>
0.620

> <VdW6>
-11.359

> <VdW12>
11.979

> <Bond>
0.262

> <Angle>
3.561

> <Pdih>
7.904

> <Idih>
0.004

> <Tether>
0.000

$$$$
VeraChem MOL file


 25 24  0  0  0  0  0  0  0  0999 V2000     
   20.3223   19.8344   26.5550 C   0  0  0  0  0  0  0  0  0  0  0  0
   21.3540   20.4703   26.4653 O   0  5  0  0  0  0  0  0  0  0  0  0
   19.2543   20.3241   26.8660 O   0  0  0  0  0  0  0  0  0  0  0  0
   20.3799   18.3316   26.2945 C   0  0  0  0  0  0  0  0  0  0  0  0
   19.5131   17.8598   26.7726 H   0  0  0  0  0  0  0  0  0  0  0  0
   21.2719   17.9446   26.8011 H   0  0  0  0  0  0  0  0  0  0  0  0
   20.4345   17.9562   24.7911 C   0  0  0  0  0  0  0  0  0  0  0  0
   21.2921   18.4620   24.3288 H   0  0  0  0  0  0  0  0  0  0  0  0
   20.6163   16.8772   24.6980 H   0  0  0  0  0  0  0  0  0  0  0  0
   19.1293   18.3189   24.0427 C   0  0  0  0  0  0  0  0  0  0  0  0
   18.9377   19.3974   24.1066 H   0  0  0  0  0  0  0  0  0  0  0  0
   18.2847   17.8345   24.5511 H   0  0  0  0  0  0  0  0  0  0  0  0
   19.1266   17.8724   22.5609 C   0  0  0  0  0  0  0  0  0  0  0  0
   19.2415   16.7806   22.5237 H   0  0  0  0  0  0  0  0  0  0  0  0
   18.1376   18.0839   22.1323 H   0  0  0  0  0  0  0  0  0  0  0  0
   20.2100   18.5146   21.6542 C   0  0  0  0  0  0  0  0  0  0  0  0
   20.1182   18.0506   20.6627 H   0  0  0  0  0  0  0  0  0  0  0  0
   21.2166   18.2530   22.0055 H   0  0  0  0  0  0  0  0  0  0  0  0
   20.0805   20.0481   21.4718 C   0  0  0  0  0  0  0  0  0  0  0  0
   20.3850   20.3034   20.4474 H   0  0  0  0  0  0  0  0  0  0  0  0
   19.0296   20.3554   21.5630 H   0  0  0  0  0  0  0  0  0  0  0  0
   20.9616   20.8633   22.4445 C   0  0  0  0  0  0  0  0  0  0  0  0
   22.0189   20.5877   22.3404 H   0  0  0  0  0  0  0  0  0  0  0  0
   20.8724   21.9368   22.2344 H   0  0  0  0  0  0  0  0  0  0  0  0
   20.6725   20.7060   23.4899 H   0  0  0  0  0  0  0  0  0  0  0  0
  1  2  1  0  0  0  0
  1  3  2  0  0  0  0
  1  4  1  0  0  0  0
  4  5  1  0  0  0  0
  4  6  1  0  0  0  0
  4  7  1  0  0  0  0
  7  8  1  0  0  0  0
  7  9  1  0  0  0  0
  7 10  1  0  0  0  0
 10 11  1  0  0  0  0
 10 12  1  0  0  0  0
 10 13  1  0  0  0  0
 13 14  1  0  0  0  0
 13 15  1  0  0  0  0
 13 16  1  0  0  0  0
 16 17  1  0  0  0  0
 16 18  1  0  0  0  0
 16 19  1  0  0  0  0
 19 20  1  0  0  0  0
 19 21  1  0  0  0  0
 19 22  1  0  0  0  0
 22 23  1  0  0  0  0
 22 24  1  0  0  0  0
 22 25  1  0  0  0  0
M  END
> <VM2 Rank>
167

> <Conf_Id>
571

> <Probability>
0.00

> <Sum Probability>
100.00

> <Delta G>
6.982

> <G>
-0.980

> <E>
-26.700

> <-TS>
25.720

> <U+W>
-47.268

> <U>
13.894

> <W>
-61.162

> <W(PB)>
-63.483

> <W(SA)>
2.321

> <Valence>
11.359

> <Coulomb>
2.378

> <VdW>
0.157

> <VdW6>
-11.937

> <VdW12>
12.094

> <Bond>
0.256

> <Angle>
3.730

> <Pdih>
7.371

> <Idih>
0.001

> <Tether>
0.000

$$$$
VeraChem MOL file


 25 24  0  0  0  0  0  0  0  0999 V2000     
   19.9073   19.8077   26.5599 C   0  0  0  0  0  0  0  0  0  0  0  0
   20.9110   20.4302   26.8470 O   0  5  0  0  0  0  0  0  0  0  0  0
   18.8011   20.3067   26.4949 O   0  0  0  0  0  0  0  0  0  0  0  0
   20.0360   18.3095   26.2985 C   0  0  0  0  0  0  0  0  0  0  0  0
   19.2125   17.8126   26.8247 H   0  0  0  0  0  0  0  0  0  0  0  0
   20.9667   17.9528   26.7559 H   0  0  0  0  0  0  0  0  0  0  0  0
   19.9953   17.9281   24.7961 C   0  0  0  0  0  0  0  0  0  0  0  0
   19.9507   16.8346   24.7055 H   0  0  0  0  0  0  0  0  0  0  0  0
   19.0697   18.3196   24.3544 H   0  0  0  0  0  0  0  0  0  0  0  0
   21.2259   18.4535   24.0185 C   0  0  0  0  0  0  0  0  0  0  0  0
   22.1369   18.0818   24.5068 H   0  0  0  0  0  0  0  0  0  0  0  0
   21.2796   19.5477   24.0796 H   0  0  0  0  0  0  0  0  0  0  0  0
   21.2517   18.0088   22.5364 C   0  0  0  0  0  0  0  0  0  0  0  0
   22.1955   18.3444   22.0856 H   0  0  0  0  0  0  0  0  0  0  0  0
   21.2765   16.9113   22.5002 H   0  0  0  0  0  0  0  0  0  0  0  0
   20.0746   18.5059   21.6557 C   0  0  0  0  0  0  0  0  0  0  0  0
   19.1181   18.1183   22.0296 H   0  0  0  0  0  0  0  0  0  0  0  0
   20.2022   18.0559   20.6618 H   0  0  0  0  0  0  0  0  0  0  0  0
   20.0028   20.0431   21.4725 C   0  0  0  0  0  0  0  0  0  0  0  0
   21.0076   20.4823   21.5400 H   0  0  0  0  0  0  0  0  0  0  0  0
   19.6447   20.2558   20.4558 H   0  0  0  0  0  0  0  0  0  0  0  0
   19.0474   20.7405   22.4664 C   0  0  0  0  0  0  0  0  0  0  0  0
   19.3782   20.6231   23.5047 H   0  0  0  0  0  0  0  0  0  0  0  0
   18.9937   21.8163   22.2558 H   0  0  0  0  0  0  0  0  0  0  0  0
   18.0319   20.3317   22.3863 H   0  0  0  0  0  0  0  0  0  0  0  0
  1  2  1  0  0  0  0
  1  3  2  0  0  0  0
  1  4  1  0  0  0  0
  4  5  1  0  0  0  0
  4  6  1  0  0  0  0
  4  7  1  0  0  0  0
  7  8  1  0  0  0  0
  7  9  1  0  0  0  0
  7 10  1  0  0  0  0
 10 11  1  0  0  0  0
 10 12  1  0  0  0  0
 10 13  1  0  0  0  0
 13 14  1  0  0  0  0
 13 15  1  0  0  0  0
 13 16  1  0  0  0  0
 16 17  1  0  0  0  0
 16 18  1  0  0  0  0
 16 19  1  0  0  0  0
 19 20  1  0  0  0  0
 19 21  1  0  0  0  0
 19 22  1  0  0  0  0
 22 23  1  0  0  0  0
 22 24  1  0  0  0  0
 22 25  1  0  0  0  0
M  END
> <VM2 Rank>
168

> <Conf_Id>
857

> <Probability>
0.00

> <Sum Probability>
100.00

> <Delta G>
7.054

> <G>
-0.909

> <E>
-26.630

> <-TS>
25.721

> <U+W>
-47.197

> <U>
13.894

> <W>
-61.091

> <W(PB)>
-63.416

> <W(SA)>
2.325

> <Valence>
11.359

> <Coulomb>
2.378

> <VdW>
0.157

> <VdW6>
-11.937

> <VdW12>
12.093

> <Bond>
0.256

> <Angle>
3.731

> <Pdih>
7.371

> <Idih>
0.001

> <Tether>
0.000

$$$$
VeraChem MOL file


 25 24  0  0  0  0  0  0  0  0999 V2000     
   19.9211   19.6953   27.0873 C   0  0  0  0  0  0  0  0  0  0  0  0
   20.9444   20.0347   27.6480 O   0  5  0  0  0  0  0  0  0  0  0  0
   18.8811   19.4590   27.6699 O   0  0  0  0  0  0  0  0  0  0  0  0
   19.9493   19.5351   25.5717 C   0  0  0  0  0  0  0  0  0  0  0  0
   20.6500   20.2764   25.1711 H   0  0  0  0  0  0  0  0  0  0  0  0
   18.9533   19.7810   25.1849 H   0  0  0  0  0  0  0  0  0  0  0  0
   20.3587   18.1082   25.1261 C   0  0  0  0  0  0  0  0  0  0  0  0
   21.3749   17.8938   25.4848 H   0  0  0  0  0  0  0  0  0  0  0  0
   19.6985   17.3821   25.6205 H   0  0  0  0  0  0  0  0  0  0  0  0
   20.2882   17.8779   23.5955 C   0  0  0  0  0  0  0  0  0  0  0  0
   19.2566   18.0151   23.2479 H   0  0  0  0  0  0  0  0  0  0  0  0
   20.5323   16.8241   23.4046 H   0  0  0  0  0  0  0  0  0  0  0  0
   21.2656   18.7581   22.7724 C   0  0  0  0  0  0  0  0  0  0  0  0
   22.1430   18.9919   23.3907 H   0  0  0  0  0  0  0  0  0  0  0  0
   21.6525   18.1761   21.9249 H   0  0  0  0  0  0  0  0  0  0  0  0
   20.6474   20.0772   22.2370 C   0  0  0  0  0  0  0  0  0  0  0  0
   21.4292   20.8487   22.2431 H   0  0  0  0  0  0  0  0  0  0  0  0
   19.8616   20.4400   22.9110 H   0  0  0  0  0  0  0  0  0  0  0  0
   20.0921   19.9814   20.7945 C   0  0  0  0  0  0  0  0  0  0  0  0
   19.7696   20.9822   20.4758 H   0  0  0  0  0  0  0  0  0  0  0  0
   20.8976   19.6851   20.1085 H   0  0  0  0  0  0  0  0  0  0  0  0
   18.9049   19.0072   20.6435 C   0  0  0  0  0  0  0  0  0  0  0  0
   18.0944   19.2651   21.3373 H   0  0  0  0  0  0  0  0  0  0  0  0
   18.5025   19.0468   19.6231 H   0  0  0  0  0  0  0  0  0  0  0  0
   19.2136   17.9726   20.8393 H   0  0  0  0  0  0  0  0  0  0  0  0
  1  2  1  0  0  0  0
  1  3  2  0  0  0  0
  1  4  1  0  0  0  0
  4  5  1  0  0  0  0
  4  6  1  0  0  0  0
  4  7  1  0  0  0  0
  7  8  1  0  0  0  0
  7  9  1  0  0  0  0
  7 10  1  0  0  0  0
 10 11  1  0  0  0  0
 10 12  1  0  0  0  0
 10 13  1  0  0  0  0
 13 14  1  0  0  0  0
 13 15  1  0  0  0  0
 13 16  1  0  0  0  0
 16 17  1  0  0  0  0
 16 18  1  0  0  0  0
 16 19  1  0  0  0  0
 19 20  1  0  0  0  0
 19 21  1  0  0  0  0
 19 22  1  0  0  0  0
 22 23  1  0  0  0  0
 22 24  1  0  0  0  0
 22 25  1  0  0  0  0
M  END
> <VM2 Rank>
169

> <Conf_Id>
6

> <Probability>
0.00

> <Sum Probability>
100.00

> <Delta G>
7.264

> <G>
-0.698

> <E>
-25.926

> <-TS>
25.227

> <U+W>
-46.493

> <U>
13.064

> <W>
-59.557

> <W(PB)>
-61.926

> <W(SA)>
2.369

> <Valence>
13.064

> <Coulomb>
-1.007

> <VdW>
1.008

> <VdW6>
-10.968

> <VdW12>
11.976

> <Bond>
0.280

> <Angle>
3.439

> <Pdih>
9.344

> <Idih>
0.001

> <Tether>
0.000

$$$$
VeraChem MOL file


 25 24  0  0  0  0  0  0  0  0999 V2000     
   20.1818   18.8955   27.1063 C   0  0  0  0  0  0  0  0  0  0  0  0
   21.2009   19.2480   27.6667 O   0  5  0  0  0  0  0  0  0  0  0  0
   19.1943   18.4984   27.6927 O   0  0  0  0  0  0  0  0  0  0  0  0
   20.1315   18.9764   25.5849 C   0  0  0  0  0  0  0  0  0  0  0  0
   19.4770   18.1746   25.2230 H   0  0  0  0  0  0  0  0  0  0  0  0
   21.1399   18.7737   25.2068 H   0  0  0  0  0  0  0  0  0  0  0  0
   19.6280   20.3499   25.0730 C   0  0  0  0  0  0  0  0  0  0  0  0
   18.6600   20.5682   25.5449 H   0  0  0  0  0  0  0  0  0  0  0  0
   20.3178   21.1369   25.4078 H   0  0  0  0  0  0  0  0  0  0  0  0
   19.4568   20.4286   23.5350 C   0  0  0  0  0  0  0  0  0  0  0  0
   19.0359   21.4146   23.2957 H   0  0  0  0  0  0  0  0  0  0  0  0
   18.7089   19.6953   23.2081 H   0  0  0  0  0  0  0  0  0  0  0  0
   20.7764   20.2587   22.7368 C   0  0  0  0  0  0  0  0  0  0  0  0
   20.7581   20.9199   21.8598 H   0  0  0  0  0  0  0  0  0  0  0  0
   21.6144   20.6134   23.3522 H   0  0  0  0  0  0  0  0  0  0  0  0
   21.0614   18.8072   22.2672 C   0  0  0  0  0  0  0  0  0  0  0  0
   20.6307   18.0804   22.9670 H   0  0  0  0  0  0  0  0  0  0  0  0
   22.1474   18.6452   22.2954 H   0  0  0  0  0  0  0  0  0  0  0  0
   20.5765   18.4955   20.8297 C   0  0  0  0  0  0  0  0  0  0  0  0
   21.0624   19.1797   20.1205 H   0  0  0  0  0  0  0  0  0  0  0  0
   20.9099   17.4843   20.5588 H   0  0  0  0  0  0  0  0  0  0  0  0
   19.0455   18.5758   20.6537 C   0  0  0  0  0  0  0  0  0  0  0  0
   18.6828   19.6009   20.8008 H   0  0  0  0  0  0  0  0  0  0  0  0
   18.7579   18.2632   19.6417 H   0  0  0  0  0  0  0  0  0  0  0  0
   18.5328   17.9200   21.3692 H   0  0  0  0  0  0  0  0  0  0  0  0
  1  2  1  0  0  0  0
  1  3  2  0  0  0  0
  1  4  1  0  0  0  0
  4  5  1  0  0  0  0
  4  6  1  0  0  0  0
  4  7  1  0  0  0  0
  7  8  1  0  0  0  0
  7  9  1  0  0  0  0
  7 10  1  0  0  0  0
 10 11  1  0  0  0  0
 10 12  1  0  0  0  0
 10 13  1  0  0  0  0
 13 14  1  0  0  0  0
 13 15  1  0  0  0  0
 13 16  1  0  0  0  0
 16 17  1  0  0  0  0
 16 18  1  0  0  0  0
 16 19  1  0  0  0  0
 19 20  1  0  0  0  0
 19 21  1  0  0  0  0
 19 22  1  0  0  0  0
 22 23  1  0  0  0  0
 22 24  1  0  0  0  0
 22 25  1  0  0  0  0
M  END
> <VM2 Rank>
170

> <Conf_Id>
5

> <Probability>
0.00

> <Sum Probability>
100.00

> <Delta G>
7.289

> <G>
-0.673

> <E>
-25.900

> <-TS>
25.227

> <U+W>
-46.468

> <U>
13.064

> <W>
-59.532

> <W(PB)>
-61.933

> <W(SA)>
2.401

> <Valence>
13.064

> <Coulomb>
-1.008

> <VdW>
1.008

> <VdW6>
-10.968

> <VdW12>
11.977

> <Bond>
0.280

> <Angle>
3.438

> <Pdih>
9.345

> <Idih>
0.001

> <Tether>
0.000

$$$$
VeraChem MOL file


 25 24  0  0  0  0  0  0  0  0999 V2000     
   20.5776   19.5635   27.0228 C   0  0  0  0  0  0  0  0  0  0  0  0
   21.6604   20.1127   26.9725 O   0  5  0  0  0  0  0  0  0  0  0  0
   19.7400   19.8028   27.8701 O   0  0  0  0  0  0  0  0  0  0  0  0
   20.2447   18.5284   25.9543 C   0  0  0  0  0  0  0  0  0  0  0  0
   19.6169   17.7551   26.4128 H   0  0  0  0  0  0  0  0  0  0  0  0
   21.1795   18.0462   25.6441 H   0  0  0  0  0  0  0  0  0  0  0  0
   19.5280   19.1411   24.7260 C   0  0  0  0  0  0  0  0  0  0  0  0
   18.6007   19.6299   25.0552 H   0  0  0  0  0  0  0  0  0  0  0  0
   20.1604   19.9278   24.2977 H   0  0  0  0  0  0  0  0  0  0  0  0
   19.1977   18.0692   23.6607 C   0  0  0  0  0  0  0  0  0  0  0  0
   18.5189   17.3354   24.1165 H   0  0  0  0  0  0  0  0  0  0  0  0
   20.0999   17.5113   23.3770 H   0  0  0  0  0  0  0  0  0  0  0  0
   18.5141   18.6514   22.3989 C   0  0  0  0  0  0  0  0  0  0  0  0
   17.7752   17.9171   22.0502 H   0  0  0  0  0  0  0  0  0  0  0  0
   17.9368   19.5493   22.6584 H   0  0  0  0  0  0  0  0  0  0  0  0
   19.4591   18.9529   21.2053 C   0  0  0  0  0  0  0  0  0  0  0  0
   18.8249   19.2279   20.3515 H   0  0  0  0  0  0  0  0  0  0  0  0
   19.9835   18.0373   20.8996 H   0  0  0  0  0  0  0  0  0  0  0  0
   20.4738   20.1014   21.4268 C   0  0  0  0  0  0  0  0  0  0  0  0
   20.6177   20.6279   20.4733 H   0  0  0  0  0  0  0  0  0  0  0  0
   20.0630   20.8449   22.1228 H   0  0  0  0  0  0  0  0  0  0  0  0
   21.8576   19.6108   21.9085 C   0  0  0  0  0  0  0  0  0  0  0  0
   22.3058   18.9271   21.1761 H   0  0  0  0  0  0  0  0  0  0  0  0
   22.5416   20.4592   22.0387 H   0  0  0  0  0  0  0  0  0  0  0  0
   21.7936   19.0837   22.8669 H   0  0  0  0  0  0  0  0  0  0  0  0
  1  2  1  0  0  0  0
  1  3  2  0  0  0  0
  1  4  1  0  0  0  0
  4  5  1  0  0  0  0
  4  6  1  0  0  0  0
  4  7  1  0  0  0  0
  7  8  1  0  0  0  0
  7  9  1  0  0  0  0
  7 10  1  0  0  0  0
 10 11  1  0  0  0  0
 10 12  1  0  0  0  0
 10 13  1  0  0  0  0
 13 14  1  0  0  0  0
 13 15  1  0  0  0  0
 13 16  1  0  0  0  0
 16 17  1  0  0  0  0
 16 18  1  0  0  0  0
 16 19  1  0  0  0  0
 19 20  1  0  0  0  0
 19 21  1  0  0  0  0
 19 22  1  0  0  0  0
 22 23  1  0  0  0  0
 22 24  1  0  0  0  0
 22 25  1  0  0  0  0
M  END
> <VM2 Rank>
171

> <Conf_Id>
476

> <Probability>
0.00

> <Sum Probability>
100.00

> <Delta G>
7.313

> <G>
-0.649

> <E>
-25.903

> <-TS>
25.254

> <U+W>
-46.471

> <U>
13.592

> <W>
-60.063

> <W(PB)>
-62.446

> <W(SA)>
2.382

> <Valence>
13.121

> <Coulomb>
-0.198

> <VdW>
0.669

> <VdW6>
-10.627

> <VdW12>
11.296

> <Bond>
0.238

> <Angle>
3.708

> <Pdih>
9.174

> <Idih>
0.000

> <Tether>
0.000

$$$$
VeraChem MOL file


 25 24  0  0  0  0  0  0  0  0999 V2000     
   20.1117   19.7174   26.5190 C   0  0  0  0  0  0  0  0  0  0  0  0
   21.1884   20.2081   26.7975 O   0  5  0  0  0  0  0  0  0  0  0  0
   19.0733   20.3490   26.4923 O   0  0  0  0  0  0  0  0  0  0  0  0
   20.0429   18.2079   26.2974 C   0  0  0  0  0  0  0  0  0  0  0  0
   19.3556   17.8162   27.0561 H   0  0  0  0  0  0  0  0  0  0  0  0
   21.0260   17.7711   26.5101 H   0  0  0  0  0  0  0  0  0  0  0  0
   19.5477   17.7657   24.8917 C   0  0  0  0  0  0  0  0  0  0  0  0
   19.1801   16.7341   24.9747 H   0  0  0  0  0  0  0  0  0  0  0  0
   18.6789   18.3664   24.5913 H   0  0  0  0  0  0  0  0  0  0  0  0
   20.6357   17.7845   23.7865 C   0  0  0  0  0  0  0  0  0  0  0  0
   20.2358   17.2906   22.8912 H   0  0  0  0  0  0  0  0  0  0  0  0
   21.4822   17.1642   24.1105 H   0  0  0  0  0  0  0  0  0  0  0  0
   21.1696   19.1849   23.3894 C   0  0  0  0  0  0  0  0  0  0  0  0
   21.6957   19.6293   24.2434 H   0  0  0  0  0  0  0  0  0  0  0  0
   21.9354   19.0609   22.6128 H   0  0  0  0  0  0  0  0  0  0  0  0
   20.0950   20.1846   22.8862 C   0  0  0  0  0  0  0  0  0  0  0  0
   20.5909   21.1296   22.6266 H   0  0  0  0  0  0  0  0  0  0  0  0
   19.4108   20.4271   23.7098 H   0  0  0  0  0  0  0  0  0  0  0  0
   19.2654   19.7048   21.6697 C   0  0  0  0  0  0  0  0  0  0  0  0
   18.6930   18.8060   21.9343 H   0  0  0  0  0  0  0  0  0  0  0  0
   18.5230   20.4771   21.4262 H   0  0  0  0  0  0  0  0  0  0  0  0
   20.1234   19.4271   20.4164 C   0  0  0  0  0  0  0  0  0  0  0  0
   20.8087   18.5862   20.5810 H   0  0  0  0  0  0  0  0  0  0  0  0
   19.4838   19.1730   19.5613 H   0  0  0  0  0  0  0  0  0  0  0  0
   20.7182   20.3087   20.1446 H   0  0  0  0  0  0  0  0  0  0  0  0
  1  2  1  0  0  0  0
  1  3  2  0  0  0  0
  1  4  1  0  0  0  0
  4  5  1  0  0  0  0
  4  6  1  0  0  0  0
  4  7  1  0  0  0  0
  7  8  1  0  0  0  0
  7  9  1  0  0  0  0
  7 10  1  0  0  0  0
 10 11  1  0  0  0  0
 10 12  1  0  0  0  0
 10 13  1  0  0  0  0
 13 14  1  0  0  0  0
 13 15  1  0  0  0  0
 13 16  1  0  0  0  0
 16 17  1  0  0  0  0
 16 18  1  0  0  0  0
 16 19  1  0  0  0  0
 19 20  1  0  0  0  0
 19 21  1  0  0  0  0
 19 22  1  0  0  0  0
 22 23  1  0  0  0  0
 22 24  1  0  0  0  0
 22 25  1  0  0  0  0
M  END
> <VM2 Rank>
172

> <Conf_Id>
93

> <Probability>
0.00

> <Sum Probability>
100.00

> <Delta G>
7.314

> <G>
-0.648

> <E>
-26.934

> <-TS>
26.285

> <U+W>
-47.501

> <U>
13.323

> <W>
-60.824

> <W(PB)>
-63.154

> <W(SA)>
2.329

> <Valence>
10.989

> <Coulomb>
2.084

> <VdW>
0.250

> <VdW6>
-13.144

> <VdW12>
13.394

> <Bond>
0.321

> <Angle>
4.360

> <Pdih>
6.292

> <Idih>
0.016

> <Tether>
0.000

$$$$
VeraChem MOL file


 25 24  0  0  0  0  0  0  0  0999 V2000     
   20.1303   19.7186   26.5188 C   0  0  0  0  0  0  0  0  0  0  0  0
   21.0789   20.4773   26.4691 O   0  5  0  0  0  0  0  0  0  0  0  0
   19.0066   20.0686   26.8227 O   0  0  0  0  0  0  0  0  0  0  0  0
   20.3859   18.2299   26.2935 C   0  0  0  0  0  0  0  0  0  0  0  0
   19.4716   17.6716   26.5281 H   0  0  0  0  0  0  0  0  0  0  0  0
   21.1348   17.9302   27.0356 H   0  0  0  0  0  0  0  0  0  0  0  0
   20.9010   17.8523   24.8761 C   0  0  0  0  0  0  0  0  0  0  0  0
   21.6790   18.5584   24.5567 H   0  0  0  0  0  0  0  0  0  0  0  0
   21.3989   16.8761   24.9492 H   0  0  0  0  0  0  0  0  0  0  0  0
   19.7944   17.7306   23.7963 C   0  0  0  0  0  0  0  0  0  0  0  0
   19.0415   17.0079   24.1387 H   0  0  0  0  0  0  0  0  0  0  0  0
   20.2333   17.2904   22.8913 H   0  0  0  0  0  0  0  0  0  0  0  0
   19.0773   19.0509   23.4136 C   0  0  0  0  0  0  0  0  0  0  0  0
   18.3158   18.8292   22.6547 H   0  0  0  0  0  0  0  0  0  0  0  0
   18.5186   19.4259   24.2801 H   0  0  0  0  0  0  0  0  0  0  0  0
   20.0038   20.1787   22.8872 C   0  0  0  0  0  0  0  0  0  0  0  0
   20.6704   20.5077   23.6952 H   0  0  0  0  0  0  0  0  0  0  0  0
   19.3857   21.0524   22.6406 H   0  0  0  0  0  0  0  0  0  0  0  0
   20.8595   19.8068   21.6512 C   0  0  0  0  0  0  0  0  0  0  0  0
   21.4916   20.6671   21.3918 H   0  0  0  0  0  0  0  0  0  0  0  0
   21.5478   18.9886   21.9011 H   0  0  0  0  0  0  0  0  0  0  0  0
   20.0153   19.4203   20.4176 C   0  0  0  0  0  0  0  0  0  0  0  0
   19.4466   18.4992   20.5967 H   0  0  0  0  0  0  0  0  0  0  0  0
   19.3068   20.2185   20.1609 H   0  0  0  0  0  0  0  0  0  0  0  0
   20.6621   19.2486   19.5476 H   0  0  0  0  0  0  0  0  0  0  0  0
  1  2  1  0  0  0  0
  1  3  2  0  0  0  0
  1  4  1  0  0  0  0
  4  5  1  0  0  0  0
  4  6  1  0  0  0  0
  4  7  1  0  0  0  0
  7  8  1  0  0  0  0
  7  9  1  0  0  0  0
  7 10  1  0  0  0  0
 10 11  1  0  0  0  0
 10 12  1  0  0  0  0
 10 13  1  0  0  0  0
 13 14  1  0  0  0  0
 13 15  1  0  0  0  0
 13 16  1  0  0  0  0
 16 17  1  0  0  0  0
 16 18  1  0  0  0  0
 16 19  1  0  0  0  0
 19 20  1  0  0  0  0
 19 21  1  0  0  0  0
 19 22  1  0  0  0  0
 22 23  1  0  0  0  0
 22 24  1  0  0  0  0
 22 25  1  0  0  0  0
M  END
> <VM2 Rank>
173

> <Conf_Id>
824

> <Probability>
0.00

> <Sum Probability>
100.00

> <Delta G>
7.362

> <G>
-0.601

> <E>
-26.886

> <-TS>
26.285

> <U+W>
-47.453

> <U>
13.323

> <W>
-60.777

> <W(PB)>
-63.095

> <W(SA)>
2.319

> <Valence>
10.989

> <Coulomb>
2.084

> <VdW>
0.250

> <VdW6>
-13.143

> <VdW12>
13.393

> <Bond>
0.321

> <Angle>
4.360

> <Pdih>
6.292

> <Idih>
0.016

> <Tether>
0.000

$$$$
VeraChem MOL file


 25 24  0  0  0  0  0  0  0  0999 V2000     
   20.8371   19.3979   26.5815 C   0  0  0  0  0  0  0  0  0  0  0  0
   21.6954   20.1847   26.2341 O   0  5  0  0  0  0  0  0  0  0  0  0
   20.5455   19.1888   27.7426 O   0  0  0  0  0  0  0  0  0  0  0  0
   20.0662   18.6487   25.5008 C   0  0  0  0  0  0  0  0  0  0  0  0
   19.7671   17.6763   25.9098 H   0  0  0  0  0  0  0  0  0  0  0  0
   20.7568   18.4474   24.6765 H   0  0  0  0  0  0  0  0  0  0  0  0
   18.8162   19.4253   25.0090 C   0  0  0  0  0  0  0  0  0  0  0  0
   18.1524   19.5720   25.8723 H   0  0  0  0  0  0  0  0  0  0  0  0
   19.0974   20.4316   24.6705 H   0  0  0  0  0  0  0  0  0  0  0  0
   18.0266   18.6864   23.9001 C   0  0  0  0  0  0  0  0  0  0  0  0
   16.9604   18.9078   24.0451 H   0  0  0  0  0  0  0  0  0  0  0  0
   18.1215   17.5992   24.0260 H   0  0  0  0  0  0  0  0  0  0  0  0
   18.3836   19.0870   22.4440 C   0  0  0  0  0  0  0  0  0  0  0  0
   17.6613   18.5875   21.7840 H   0  0  0  0  0  0  0  0  0  0  0  0
   18.2196   20.1634   22.2985 H   0  0  0  0  0  0  0  0  0  0  0  0
   19.8047   18.6924   21.9706 C   0  0  0  0  0  0  0  0  0  0  0  0
   19.7512   18.4135   20.9094 H   0  0  0  0  0  0  0  0  0  0  0  0
   20.1442   17.7934   22.5015 H   0  0  0  0  0  0  0  0  0  0  0  0
   20.8374   19.8350   22.1104 C   0  0  0  0  0  0  0  0  0  0  0  0
   20.5162   20.6957   21.5081 H   0  0  0  0  0  0  0  0  0  0  0  0
   20.8916   20.1837   23.1489 H   0  0  0  0  0  0  0  0  0  0  0  0
   22.2403   19.3879   21.6527 C   0  0  0  0  0  0  0  0  0  0  0  0
   22.6021   18.5496   22.2625 H   0  0  0  0  0  0  0  0  0  0  0  0
   22.2287   19.0692   20.6023 H   0  0  0  0  0  0  0  0  0  0  0  0
   22.9591   20.2118   21.7499 H   0  0  0  0  0  0  0  0  0  0  0  0
  1  2  1  0  0  0  0
  1  3  2  0  0  0  0
  1  4  1  0  0  0  0
  4  5  1  0  0  0  0
  4  6  1  0  0  0  0
  4  7  1  0  0  0  0
  7  8  1  0  0  0  0
  7  9  1  0  0  0  0
  7 10  1  0  0  0  0
 10 11  1  0  0  0  0
 10 12  1  0  0  0  0
 10 13  1  0  0  0  0
 13 14  1  0  0  0  0
 13 15  1  0  0  0  0
 13 16  1  0  0  0  0
 16 17  1  0  0  0  0
 16 18  1  0  0  0  0
 16 19  1  0  0  0  0
 19 20  1  0  0  0  0
 19 21  1  0  0  0  0
 19 22  1  0  0  0  0
 22 23  1  0  0  0  0
 22 24  1  0  0  0  0
 22 25  1  0  0  0  0
M  END
> <VM2 Rank>
174

> <Conf_Id>
1081

> <Probability>
0.00

> <Sum Probability>
100.00

> <Delta G>
7.437

> <G>
-0.525

> <E>
-25.861

> <-TS>
25.335

> <U+W>
-46.428

> <U>
13.989

> <W>
-60.417

> <W(PB)>
-62.801

> <W(SA)>
2.384

> <Valence>
13.108

> <Coulomb>
0.471

> <VdW>
0.410

> <VdW6>
-11.098

> <VdW12>
11.507

> <Bond>
0.254

> <Angle>
3.732

> <Pdih>
9.121

> <Idih>
0.001

> <Tether>
0.000

$$$$
VeraChem MOL file


 25 24  0  0  0  0  0  0  0  0999 V2000     
   19.7737   18.6890   26.2712 C   0  0  0  0  0  0  0  0  0  0  0  0
   20.6087   18.1918   27.0018 O   0  5  0  0  0  0  0  0  0  0  0  0
   18.8761   18.0553   25.7522 O   0  0  0  0  0  0  0  0  0  0  0  0
   19.8145   20.1998   26.0476 C   0  0  0  0  0  0  0  0  0  0  0  0
   19.5962   20.6702   27.0130 H   0  0  0  0  0  0  0  0  0  0  0  0
   18.9985   20.4833   25.3738 H   0  0  0  0  0  0  0  0  0  0  0  0
   21.1706   20.7366   25.5145 C   0  0  0  0  0  0  0  0  0  0  0  0
   21.1408   21.8344   25.4964 H   0  0  0  0  0  0  0  0  0  0  0  0
   21.9595   20.4670   26.2303 H   0  0  0  0  0  0  0  0  0  0  0  0
   21.5740   20.2151   24.1119 C   0  0  0  0  0  0  0  0  0  0  0  0
   21.6380   19.1198   24.1244 H   0  0  0  0  0  0  0  0  0  0  0  0
   22.5942   20.5687   23.9098 H   0  0  0  0  0  0  0  0  0  0  0  0
   20.6598   20.7105   22.9593 C   0  0  0  0  0  0  0  0  0  0  0  0
   20.1773   21.6524   23.2532 H   0  0  0  0  0  0  0  0  0  0  0  0
   21.2850   20.9584   22.0907 H   0  0  0  0  0  0  0  0  0  0  0  0
   19.5777   19.6987   22.5070 C   0  0  0  0  0  0  0  0  0  0  0  0
   18.8637   20.2214   21.8562 H   0  0  0  0  0  0  0  0  0  0  0  0
   19.0033   19.3428   23.3708 H   0  0  0  0  0  0  0  0  0  0  0  0
   20.1570   18.4905   21.7357 C   0  0  0  0  0  0  0  0  0  0  0  0
   20.7395   18.8451   20.8743 H   0  0  0  0  0  0  0  0  0  0  0  0
   20.8464   17.9253   22.3761 H   0  0  0  0  0  0  0  0  0  0  0  0
   19.0408   17.5467   21.2449 C   0  0  0  0  0  0  0  0  0  0  0  0
   18.3509   18.0703   20.5702 H   0  0  0  0  0  0  0  0  0  0  0  0
   19.4664   16.6939   20.7004 H   0  0  0  0  0  0  0  0  0  0  0  0
   18.4615   17.1542   22.0913 H   0  0  0  0  0  0  0  0  0  0  0  0
  1  2  1  0  0  0  0
  1  3  2  0  0  0  0
  1  4  1  0  0  0  0
  4  5  1  0  0  0  0
  4  6  1  0  0  0  0
  4  7  1  0  0  0  0
  7  8  1  0  0  0  0
  7  9  1  0  0  0  0
  7 10  1  0  0  0  0
 10 11  1  0  0  0  0
 10 12  1  0  0  0  0
 10 13  1  0  0  0  0
 13 14  1  0  0  0  0
 13 15  1  0  0  0  0
 13 16  1  0  0  0  0
 16 17  1  0  0  0  0
 16 18  1  0  0  0  0
 16 19  1  0  0  0  0
 19 20  1  0  0  0  0
 19 21  1  0  0  0  0
 19 22  1  0  0  0  0
 22 23  1  0  0  0  0
 22 24  1  0  0  0  0
 22 25  1  0  0  0  0
M  END
> <VM2 Rank>
175

> <Conf_Id>
859

> <Probability>
0.00

> <Sum Probability>
100.00

> <Delta G>
7.547

> <G>
-0.415

> <E>
-25.618

> <-TS>
25.202

> <U+W>
-46.186

> <U>
15.106

> <W>
-61.292

> <W(PB)>
-63.639

> <W(SA)>
2.348

> <Valence>
11.933

> <Coulomb>
2.761

> <VdW>
0.412

> <VdW6>
-11.606

> <VdW12>
12.018

> <Bond>
0.273

> <Angle>
3.594

> <Pdih>
8.060

> <Idih>
0.006

> <Tether>
0.000

$$$$
VeraChem MOL file


 25 24  0  0  0  0  0  0  0  0999 V2000     
   20.2028   19.2008   26.9113 C   0  0  0  0  0  0  0  0  0  0  0  0
   21.2214   19.8413   27.0827 O   0  5  0  0  0  0  0  0  0  0  0  0
   19.2445   19.2502   27.6574 O   0  0  0  0  0  0  0  0  0  0  0  0
   20.1322   18.2595   25.7121 C   0  0  0  0  0  0  0  0  0  0  0  0
   19.8009   17.2828   26.0831 H   0  0  0  0  0  0  0  0  0  0  0  0
   21.1448   18.1151   25.3186 H   0  0  0  0  0  0  0  0  0  0  0  0
   19.1722   18.7349   24.5877 C   0  0  0  0  0  0  0  0  0  0  0  0
   19.1269   17.9658   23.8066 H   0  0  0  0  0  0  0  0  0  0  0  0
   18.1562   18.8078   24.9993 H   0  0  0  0  0  0  0  0  0  0  0  0
   19.5514   20.1003   23.9574 C   0  0  0  0  0  0  0  0  0  0  0  0
   19.4920   20.8763   24.7327 H   0  0  0  0  0  0  0  0  0  0  0  0
   18.7984   20.3784   23.2099 H   0  0  0  0  0  0  0  0  0  0  0  0
   20.9596   20.1601   23.3132 C   0  0  0  0  0  0  0  0  0  0  0  0
   21.1200   21.1711   22.9154 H   0  0  0  0  0  0  0  0  0  0  0  0
   21.7143   20.0352   24.1012 H   0  0  0  0  0  0  0  0  0  0  0  0
   21.2416   19.1298   22.1876 C   0  0  0  0  0  0  0  0  0  0  0  0
   21.1239   18.1038   22.5596 H   0  0  0  0  0  0  0  0  0  0  0  0
   22.3041   19.2239   21.9250 H   0  0  0  0  0  0  0  0  0  0  0  0
   20.4187   19.3371   20.8908 C   0  0  0  0  0  0  0  0  0  0  0  0
   20.2058   20.4045   20.7414 H   0  0  0  0  0  0  0  0  0  0  0  0
   21.0364   19.0274   20.0365 H   0  0  0  0  0  0  0  0  0  0  0  0
   19.1085   18.5201   20.8458 C   0  0  0  0  0  0  0  0  0  0  0  0
   18.4039   18.8354   21.6226 H   0  0  0  0  0  0  0  0  0  0  0  0
   18.6109   18.6487   19.8760 H   0  0  0  0  0  0  0  0  0  0  0  0
   19.3095   17.4495   20.9807 H   0  0  0  0  0  0  0  0  0  0  0  0
  1  2  1  0  0  0  0
  1  3  2  0  0  0  0
  1  4  1  0  0  0  0
  4  5  1  0  0  0  0
  4  6  1  0  0  0  0
  4  7  1  0  0  0  0
  7  8  1  0  0  0  0
  7  9  1  0  0  0  0
  7 10  1  0  0  0  0
 10 11  1  0  0  0  0
 10 12  1  0  0  0  0
 10 13  1  0  0  0  0
 13 14  1  0  0  0  0
 13 15  1  0  0  0  0
 13 16  1  0  0  0  0
 16 17  1  0  0  0  0
 16 18  1  0  0  0  0
 16 19  1  0  0  0  0
 19 20  1  0  0  0  0
 19 21  1  0  0  0  0
 19 22  1  0  0  0  0
 22 23  1  0  0  0  0
 22 24  1  0  0  0  0
 22 25  1  0  0  0  0
M  END
> <VM2 Rank>
176

> <Conf_Id>
751

> <Probability>
0.00

> <Sum Probability>
100.00

> <Delta G>
7.597

> <G>
-0.366

> <E>
-26.191

> <-TS>
25.825

> <U+W>
-46.758

> <U>
13.457

> <W>
-60.216

> <W(PB)>
-62.549

> <W(SA)>
2.334

> <Valence>
11.827

> <Coulomb>
1.257

> <VdW>
0.373

> <VdW6>
-12.463

> <VdW12>
12.835

> <Bond>
0.314

> <Angle>
4.265

> <Pdih>
7.247

> <Idih>
0.001

> <Tether>
0.000

$$$$
VeraChem MOL file


 25 24  0  0  0  0  0  0  0  0999 V2000     
   20.0823   19.0289   26.8806 C   0  0  0  0  0  0  0  0  0  0  0  0
   20.4745   17.8838   26.9904 O   0  5  0  0  0  0  0  0  0  0  0  0
   18.9947   19.4056   27.2715 O   0  0  0  0  0  0  0  0  0  0  0  0
   21.0328   20.0606   26.2765 C   0  0  0  0  0  0  0  0  0  0  0  0
   21.9837   19.5710   26.0339 H   0  0  0  0  0  0  0  0  0  0  0  0
   21.2468   20.7835   27.0721 H   0  0  0  0  0  0  0  0  0  0  0  0
   20.4862   20.8223   25.0359 C   0  0  0  0  0  0  0  0  0  0  0  0
   19.4408   21.1158   25.2046 H   0  0  0  0  0  0  0  0  0  0  0  0
   21.0507   21.7598   24.9415 H   0  0  0  0  0  0  0  0  0  0  0  0
   20.6155   20.0607   23.6930 C   0  0  0  0  0  0  0  0  0  0  0  0
   21.6577   19.7492   23.5411 H   0  0  0  0  0  0  0  0  0  0  0  0
   20.3791   20.7687   22.8891 H   0  0  0  0  0  0  0  0  0  0  0  0
   19.6791   18.8358   23.5686 C   0  0  0  0  0  0  0  0  0  0  0  0
   19.8966   18.1265   24.3758 H   0  0  0  0  0  0  0  0  0  0  0  0
   18.6375   19.1552   23.7089 H   0  0  0  0  0  0  0  0  0  0  0  0
   19.8088   18.0704   22.2273 C   0  0  0  0  0  0  0  0  0  0  0  0
   19.1441   17.1973   22.2803 H   0  0  0  0  0  0  0  0  0  0  0  0
   20.8246   17.6649   22.1235 H   0  0  0  0  0  0  0  0  0  0  0  0
   19.4268   18.8916   20.9704 C   0  0  0  0  0  0  0  0  0  0  0  0
   18.8884   18.2365   20.2717 H   0  0  0  0  0  0  0  0  0  0  0  0
   18.7255   19.6942   21.2375 H   0  0  0  0  0  0  0  0  0  0  0  0
   20.6525   19.4743   20.2319 C   0  0  0  0  0  0  0  0  0  0  0  0
   21.2364   20.1427   20.8750 H   0  0  0  0  0  0  0  0  0  0  0  0
   21.3173   18.6717   19.8868 H   0  0  0  0  0  0  0  0  0  0  0  0
   20.3341   20.0479   19.3519 H   0  0  0  0  0  0  0  0  0  0  0  0
  1  2  1  0  0  0  0
  1  3  2  0  0  0  0
  1  4  1  0  0  0  0
  4  5  1  0  0  0  0
  4  6  1  0  0  0  0
  4  7  1  0  0  0  0
  7  8  1  0  0  0  0
  7  9  1  0  0  0  0
  7 10  1  0  0  0  0
 10 11  1  0  0  0  0
 10 12  1  0  0  0  0
 10 13  1  0  0  0  0
 13 14  1  0  0  0  0
 13 15  1  0  0  0  0
 13 16  1  0  0  0  0
 16 17  1  0  0  0  0
 16 18  1  0  0  0  0
 16 19  1  0  0  0  0
 19 20  1  0  0  0  0
 19 21  1  0  0  0  0
 19 22  1  0  0  0  0
 22 23  1  0  0  0  0
 22 24  1  0  0  0  0
 22 25  1  0  0  0  0
M  END
> <VM2 Rank>
177

> <Conf_Id>
230

> <Probability>
0.00

> <Sum Probability>
100.00

> <Delta G>
7.650

> <G>
-0.312

> <E>
-25.489

> <-TS>
25.177

> <U+W>
-46.056

> <U>
14.423

> <W>
-60.479

> <W(PB)>
-62.879

> <W(SA)>
2.400

> <Valence>
12.698

> <Coulomb>
0.772

> <VdW>
0.953

> <VdW6>
-11.272

> <VdW12>
12.225

> <Bond>
0.285

> <Angle>
4.020

> <Pdih>
8.388

> <Idih>
0.006

> <Tether>
0.000

$$$$
VeraChem MOL file


 25 24  0  0  0  0  0  0  0  0999 V2000     
   20.5028   19.2112   26.7518 C   0  0  0  0  0  0  0  0  0  0  0  0
   21.3460   20.0816   26.8472 O   0  5  0  0  0  0  0  0  0  0  0  0
   20.7217   18.0377   26.9804 O   0  0  0  0  0  0  0  0  0  0  0  0
   19.0754   19.6209   26.3938 C   0  0  0  0  0  0  0  0  0  0  0  0
   18.7283   20.2704   27.2057 H   0  0  0  0  0  0  0  0  0  0  0  0
   18.4346   18.7310   26.4079 H   0  0  0  0  0  0  0  0  0  0  0  0
   18.9214   20.3742   25.0425 C   0  0  0  0  0  0  0  0  0  0  0  0
   17.9710   20.9242   25.0665 H   0  0  0  0  0  0  0  0  0  0  0  0
   19.7083   21.1351   24.9463 H   0  0  0  0  0  0  0  0  0  0  0  0
   18.9086   19.4646   23.7889 C   0  0  0  0  0  0  0  0  0  0  0  0
   18.6444   20.0832   22.9230 H   0  0  0  0  0  0  0  0  0  0  0  0
   18.1075   18.7191   23.8835 H   0  0  0  0  0  0  0  0  0  0  0  0
   20.2525   18.7446   23.5203 C   0  0  0  0  0  0  0  0  0  0  0  0
   21.0899   19.4510   23.6021 H   0  0  0  0  0  0  0  0  0  0  0  0
   20.4065   17.9925   24.3044 H   0  0  0  0  0  0  0  0  0  0  0  0
   20.2958   18.0230   22.1492 C   0  0  0  0  0  0  0  0  0  0  0  0
   19.2838   17.7232   21.8443 H   0  0  0  0  0  0  0  0  0  0  0  0
   20.8595   17.0883   22.2730 H   0  0  0  0  0  0  0  0  0  0  0  0
   20.9767   18.8315   21.0171 C   0  0  0  0  0  0  0  0  0  0  0  0
   22.0152   19.0543   21.2986 H   0  0  0  0  0  0  0  0  0  0  0  0
   21.0304   18.1997   20.1199 H   0  0  0  0  0  0  0  0  0  0  0  0
   20.2522   20.1447   20.6548 C   0  0  0  0  0  0  0  0  0  0  0  0
   19.1974   19.9591   20.4144 H   0  0  0  0  0  0  0  0  0  0  0  0
   20.3002   20.8641   21.4820 H   0  0  0  0  0  0  0  0  0  0  0  0
   20.7215   20.6136   19.7804 H   0  0  0  0  0  0  0  0  0  0  0  0
  1  2  1  0  0  0  0
  1  3  2  0  0  0  0
  1  4  1  0  0  0  0
  4  5  1  0  0  0  0
  4  6  1  0  0  0  0
  4  7  1  0  0  0  0
  7  8  1  0  0  0  0
  7  9  1  0  0  0  0
  7 10  1  0  0  0  0
 10 11  1  0  0  0  0
 10 12  1  0  0  0  0
 10 13  1  0  0  0  0
 13 14  1  0  0  0  0
 13 15  1  0  0  0  0
 13 16  1  0  0  0  0
 16 17  1  0  0  0  0
 16 18  1  0  0  0  0
 16 19  1  0  0  0  0
 19 20  1  0  0  0  0
 19 21  1  0  0  0  0
 19 22  1  0  0  0  0
 22 23  1  0  0  0  0
 22 24  1  0  0  0  0
 22 25  1  0  0  0  0
M  END
> <VM2 Rank>
178

> <Conf_Id>
229

> <Probability>
0.00

> <Sum Probability>
100.00

> <Delta G>
7.727

> <G>
-0.236

> <E>
-25.681

> <-TS>
25.446

> <U+W>
-46.249

> <U>
14.482

> <W>
-60.730

> <W(PB)>
-63.110

> <W(SA)>
2.380

> <Valence>
12.477

> <Coulomb>
1.221

> <VdW>
0.784

> <VdW6>
-11.565

> <VdW12>
12.349

> <Bond>
0.279

> <Angle>
3.853

> <Pdih>
8.338

> <Idih>
0.007

> <Tether>
0.000

$$$$
VeraChem MOL file


 25 24  0  0  0  0  0  0  0  0999 V2000     
   20.3123   19.0221   26.8628 C   0  0  0  0  0  0  0  0  0  0  0  0
   21.4446   19.4453   26.9893 O   0  5  0  0  0  0  0  0  0  0  0  0
   19.4508   19.1436   27.7117 O   0  0  0  0  0  0  0  0  0  0  0  0
   19.9578   18.2742   25.5807 C   0  0  0  0  0  0  0  0  0  0  0  0
   19.4673   17.3394   25.8760 H   0  0  0  0  0  0  0  0  0  0  0  0
   20.8862   17.9886   25.0748 H   0  0  0  0  0  0  0  0  0  0  0  0
   19.0218   19.0621   24.6226 C   0  0  0  0  0  0  0  0  0  0  0  0
   18.7403   18.4145   23.7852 H   0  0  0  0  0  0  0  0  0  0  0  0
   18.0884   19.2846   25.1576 H   0  0  0  0  0  0  0  0  0  0  0  0
   19.6153   20.3949   24.0945 C   0  0  0  0  0  0  0  0  0  0  0  0
   19.9037   21.0094   24.9582 H   0  0  0  0  0  0  0  0  0  0  0  0
   18.8292   20.9641   23.5804 H   0  0  0  0  0  0  0  0  0  0  0  0
   20.8447   20.2556   23.1563 C   0  0  0  0  0  0  0  0  0  0  0  0
   21.4929   21.1249   23.3312 H   0  0  0  0  0  0  0  0  0  0  0  0
   21.4554   19.3865   23.4254 H   0  0  0  0  0  0  0  0  0  0  0  0
   20.5102   20.2370   21.6410 C   0  0  0  0  0  0  0  0  0  0  0  0
   21.4518   20.2762   21.0766 H   0  0  0  0  0  0  0  0  0  0  0  0
   19.9703   21.1589   21.3859 H   0  0  0  0  0  0  0  0  0  0  0  0
   19.6887   19.0254   21.1404 C   0  0  0  0  0  0  0  0  0  0  0  0
   18.7042   19.0106   21.6242 H   0  0  0  0  0  0  0  0  0  0  0  0
   19.4930   19.1573   20.0675 H   0  0  0  0  0  0  0  0  0  0  0  0
   20.4069   17.6738   21.3467 C   0  0  0  0  0  0  0  0  0  0  0  0
   20.5532   17.4555   22.4116 H   0  0  0  0  0  0  0  0  0  0  0  0
   19.8160   16.8550   20.9165 H   0  0  0  0  0  0  0  0  0  0  0  0
   21.3902   17.6744   20.8590 H   0  0  0  0  0  0  0  0  0  0  0  0
  1  2  1  0  0  0  0
  1  3  2  0  0  0  0
  1  4  1  0  0  0  0
  4  5  1  0  0  0  0
  4  6  1  0  0  0  0
  4  7  1  0  0  0  0
  7  8  1  0  0  0  0
  7  9  1  0  0  0  0
  7 10  1  0  0  0  0
 10 11  1  0  0  0  0
 10 12  1  0  0  0  0
 10 13  1  0  0  0  0
 13 14  1  0  0  0  0
 13 15  1  0  0  0  0
 13 16  1  0  0  0  0
 16 17  1  0  0  0  0
 16 18  1  0  0  0  0
 16 19  1  0  0  0  0
 19 20  1  0  0  0  0
 19 21  1  0  0  0  0
 19 22  1  0  0  0  0
 22 23  1  0  0  0  0
 22 24  1  0  0  0  0
 22 25  1  0  0  0  0
M  END
> <VM2 Rank>
179

> <Conf_Id>
735

> <Probability>
0.00

> <Sum Probability>
100.00

> <Delta G>
7.747

> <G>
-0.215

> <E>
-25.868

> <-TS>
25.653

> <U+W>
-46.436

> <U>
13.852

> <W>
-60.287

> <W(PB)>
-62.650

> <W(SA)>
2.363

> <Valence>
12.137

> <Coulomb>
1.191

> <VdW>
0.523

> <VdW6>
-12.148

> <VdW12>
12.671

> <Bond>
0.336

> <Angle>
4.319

> <Pdih>
7.481

> <Idih>
0.001

> <Tether>
0.000

$$$$
VeraChem MOL file


 25 24  0  0  0  0  0  0  0  0999 V2000     
   20.5038   19.6804   26.5206 C   0  0  0  0  0  0  0  0  0  0  0  0
   21.4451   20.3827   26.2077 O   0  5  0  0  0  0  0  0  0  0  0  0
   19.5525   20.0809   27.1628 O   0  0  0  0  0  0  0  0  0  0  0  0
   20.5544   18.2004   26.1462 C   0  0  0  0  0  0  0  0  0  0  0  0
   20.6043   17.6455   27.0902 H   0  0  0  0  0  0  0  0  0  0  0  0
   21.4922   17.9997   25.6141 H   0  0  0  0  0  0  0  0  0  0  0  0
   19.3445   17.6825   25.3184 C   0  0  0  0  0  0  0  0  0  0  0  0
   19.3017   16.5906   25.4292 H   0  0  0  0  0  0  0  0  0  0  0  0
   18.4065   18.0661   25.7432 H   0  0  0  0  0  0  0  0  0  0  0  0
   19.4129   17.9996   23.8038 C   0  0  0  0  0  0  0  0  0  0  0  0
   18.6095   17.4420   23.3038 H   0  0  0  0  0  0  0  0  0  0  0  0
   20.3528   17.6117   23.3940 H   0  0  0  0  0  0  0  0  0  0  0  0
   19.2532   19.5031   23.4679 C   0  0  0  0  0  0  0  0  0  0  0  0
   18.3386   19.8680   23.9548 H   0  0  0  0  0  0  0  0  0  0  0  0
   20.0803   20.0870   23.8903 H   0  0  0  0  0  0  0  0  0  0  0  0
   19.1470   19.7851   21.9469 C   0  0  0  0  0  0  0  0  0  0  0  0
   18.4542   20.6256   21.8043 H   0  0  0  0  0  0  0  0  0  0  0  0
   18.6888   18.9309   21.4303 H   0  0  0  0  0  0  0  0  0  0  0  0
   20.4841   20.1643   21.2632 C   0  0  0  0  0  0  0  0  0  0  0  0
   20.2797   20.4138   20.2129 H   0  0  0  0  0  0  0  0  0  0  0  0
   20.8865   21.0773   21.7235 H   0  0  0  0  0  0  0  0  0  0  0  0
   21.5554   19.0550   21.3085 C   0  0  0  0  0  0  0  0  0  0  0  0
   21.1566   18.1054   20.9290 H   0  0  0  0  0  0  0  0  0  0  0  0
   22.4200   19.3310   20.6914 H   0  0  0  0  0  0  0  0  0  0  0  0
   21.9177   18.8988   22.3323 H   0  0  0  0  0  0  0  0  0  0  0  0
  1  2  1  0  0  0  0
  1  3  2  0  0  0  0
  1  4  1  0  0  0  0
  4  5  1  0  0  0  0
  4  6  1  0  0  0  0
  4  7  1  0  0  0  0
  7  8  1  0  0  0  0
  7  9  1  0  0  0  0
  7 10  1  0  0  0  0
 10 11  1  0  0  0  0
 10 12  1  0  0  0  0
 10 13  1  0  0  0  0
 13 14  1  0  0  0  0
 13 15  1  0  0  0  0
 13 16  1  0  0  0  0
 16 17  1  0  0  0  0
 16 18  1  0  0  0  0
 16 19  1  0  0  0  0
 19 20  1  0  0  0  0
 19 21  1  0  0  0  0
 19 22  1  0  0  0  0
 22 23  1  0  0  0  0
 22 24  1  0  0  0  0
 22 25  1  0  0  0  0
M  END
> <VM2 Rank>
180

> <Conf_Id>
498

> <Probability>
0.00

> <Sum Probability>
100.00

> <Delta G>
7.751

> <G>
-0.211

> <E>
-25.433

> <-TS>
25.222

> <U+W>
-46.001

> <U>
15.041

> <W>
-61.042

> <W(PB)>
-63.404

> <W(SA)>
2.363

> <Valence>
12.413

> <Coulomb>
1.925

> <VdW>
0.703

> <VdW6>
-11.649

> <VdW12>
12.351

> <Bond>
0.287

> <Angle>
3.936

> <Pdih>
8.183

> <Idih>
0.007

> <Tether>
0.000

$$$$
VeraChem MOL file


 25 24  0  0  0  0  0  0  0  0999 V2000     
   19.7464   19.6319   26.5293 C   0  0  0  0  0  0  0  0  0  0  0  0
   20.6534   20.1514   27.1500 O   0  5  0  0  0  0  0  0  0  0  0  0
   18.7163   20.2081   26.2392 O   0  0  0  0  0  0  0  0  0  0  0  0
   19.8762   18.1569   26.1541 C   0  0  0  0  0  0  0  0  0  0  0  0
   18.9596   17.8375   25.6435 H   0  0  0  0  0  0  0  0  0  0  0  0
   19.9192   17.6017   27.0982 H   0  0  0  0  0  0  0  0  0  0  0  0
   21.1228   17.7963   25.2978 C   0  0  0  0  0  0  0  0  0  0  0  0
   22.0138   18.2969   25.7015 H   0  0  0  0  0  0  0  0  0  0  0  0
   21.3069   16.7189   25.4061 H   0  0  0  0  0  0  0  0  0  0  0  0
   20.9796   18.0998   23.7858 C   0  0  0  0  0  0  0  0  0  0  0  0
   20.0876   17.5947   23.3971 H   0  0  0  0  0  0  0  0  0  0  0  0
   21.8358   17.6484   23.2665 H   0  0  0  0  0  0  0  0  0  0  0  0
   20.9387   19.6109   23.4484 C   0  0  0  0  0  0  0  0  0  0  0  0
   20.0540   20.0853   23.8907 H   0  0  0  0  0  0  0  0  0  0  0  0
   21.8104   20.0901   23.9147 H   0  0  0  0  0  0  0  0  0  0  0  0
   20.9731   19.9019   21.9258 C   0  0  0  0  0  0  0  0  0  0  0  0
   21.5244   19.1123   21.3975 H   0  0  0  0  0  0  0  0  0  0  0  0
   21.5497   20.8236   21.7685 H   0  0  0  0  0  0  0  0  0  0  0  0
   19.5832   20.1067   21.2736 C   0  0  0  0  0  0  0  0  0  0  0  0
   19.0786   20.9617   21.7444 H   0  0  0  0  0  0  0  0  0  0  0  0
   19.7299   20.3788   20.2193 H   0  0  0  0  0  0  0  0  0  0  0  0
   18.6633   18.8701   21.3419 C   0  0  0  0  0  0  0  0  0  0  0  0
   18.3476   18.6703   22.3735 H   0  0  0  0  0  0  0  0  0  0  0  0
   17.7566   19.0328   20.7453 H   0  0  0  0  0  0  0  0  0  0  0  0
   19.1710   17.9784   20.9519 H   0  0  0  0  0  0  0  0  0  0  0  0
  1  2  1  0  0  0  0
  1  3  2  0  0  0  0
  1  4  1  0  0  0  0
  4  5  1  0  0  0  0
  4  6  1  0  0  0  0
  4  7  1  0  0  0  0
  7  8  1  0  0  0  0
  7  9  1  0  0  0  0
  7 10  1  0  0  0  0
 10 11  1  0  0  0  0
 10 12  1  0  0  0  0
 10 13  1  0  0  0  0
 13 14  1  0  0  0  0
 13 15  1  0  0  0  0
 13 16  1  0  0  0  0
 16 17  1  0  0  0  0
 16 18  1  0  0  0  0
 16 19  1  0  0  0  0
 19 20  1  0  0  0  0
 19 21  1  0  0  0  0
 19 22  1  0  0  0  0
 22 23  1  0  0  0  0
 22 24  1  0  0  0  0
 22 25  1  0  0  0  0
M  END
> <VM2 Rank>
181

> <Conf_Id>
716

> <Probability>
0.00

> <Sum Probability>
100.00

> <Delta G>
7.755

> <G>
-0.207

> <E>
-25.429

> <-TS>
25.222

> <U+W>
-45.997

> <U>
15.041

> <W>
-61.037

> <W(PB)>
-63.387

> <W(SA)>
2.349

> <Valence>
12.413

> <Coulomb>
1.926

> <VdW>
0.703

> <VdW6>
-11.649

> <VdW12>
12.351

> <Bond>
0.287

> <Angle>
3.936

> <Pdih>
8.183

> <Idih>
0.007

> <Tether>
0.000

$$$$
VeraChem MOL file


 25 24  0  0  0  0  0  0  0  0999 V2000     
   20.1260   19.6623   26.7470 C   0  0  0  0  0  0  0  0  0  0  0  0
   21.1317   20.3381   26.8448 O   0  5  0  0  0  0  0  0  0  0  0  0
   19.0081   20.0894   26.9591 O   0  0  0  0  0  0  0  0  0  0  0  0
   20.2785   18.1804   26.4087 C   0  0  0  0  0  0  0  0  0  0  0  0
   19.2885   17.7086   26.4185 H   0  0  0  0  0  0  0  0  0  0  0  0
   20.8473   17.7333   27.2321 H   0  0  0  0  0  0  0  0  0  0  0  0
   21.0061   17.8782   25.0685 C   0  0  0  0  0  0  0  0  0  0  0  0
   21.8960   18.5158   24.9736 H   0  0  0  0  0  0  0  0  0  0  0  0
   21.3777   16.8454   25.1090 H   0  0  0  0  0  0  0  0  0  0  0  0
   20.1217   18.0121   23.8040 C   0  0  0  0  0  0  0  0  0  0  0  0
   19.2445   17.3578   23.8976 H   0  0  0  0  0  0  0  0  0  0  0  0
   20.6922   17.6315   22.9485 H   0  0  0  0  0  0  0  0  0  0  0  0
   19.6554   19.4594   23.5128 C   0  0  0  0  0  0  0  0  0  0  0  0
   18.9348   19.7545   24.2860 H   0  0  0  0  0  0  0  0  0  0  0  0
   20.4989   20.1586   23.5947 H   0  0  0  0  0  0  0  0  0  0  0  0
   18.9672   19.6136   22.1326 C   0  0  0  0  0  0  0  0  0  0  0  0
   18.1467   20.3363   22.2391 H   0  0  0  0  0  0  0  0  0  0  0  0
   18.4950   18.6675   21.8344 H   0  0  0  0  0  0  0  0  0  0  0  0
   19.8957   20.1258   21.0036 C   0  0  0  0  0  0  0  0  0  0  0  0
   19.2928   20.2801   20.0982 H   0  0  0  0  0  0  0  0  0  0  0  0
   20.2970   21.1114   21.2771 H   0  0  0  0  0  0  0  0  0  0  0  0
   21.0625   19.1747   20.6649 C   0  0  0  0  0  0  0  0  0  0  0  0
   21.7704   19.1040   21.5003 H   0  0  0  0  0  0  0  0  0  0  0  0
   20.6943   18.1669   20.4331 H   0  0  0  0  0  0  0  0  0  0  0  0
   21.6164   19.5422   19.7915 H   0  0  0  0  0  0  0  0  0  0  0  0
  1  2  1  0  0  0  0
  1  3  2  0  0  0  0
  1  4  1  0  0  0  0
  4  5  1  0  0  0  0
  4  6  1  0  0  0  0
  4  7  1  0  0  0  0
  7  8  1  0  0  0  0
  7  9  1  0  0  0  0
  7 10  1  0  0  0  0
 10 11  1  0  0  0  0
 10 12  1  0  0  0  0
 10 13  1  0  0  0  0
 13 14  1  0  0  0  0
 13 15  1  0  0  0  0
 13 16  1  0  0  0  0
 16 17  1  0  0  0  0
 16 18  1  0  0  0  0
 16 19  1  0  0  0  0
 19 20  1  0  0  0  0
 19 21  1  0  0  0  0
 19 22  1  0  0  0  0
 22 23  1  0  0  0  0
 22 24  1  0  0  0  0
 22 25  1  0  0  0  0
M  END
> <VM2 Rank>
182

> <Conf_Id>
559

> <Probability>
0.00

> <Sum Probability>
100.00

> <Delta G>
7.784

> <G>
-0.178

> <E>
-25.623

> <-TS>
25.446

> <U+W>
-46.191

> <U>
14.481

> <W>
-60.672

> <W(PB)>
-63.049

> <W(SA)>
2.378

> <Valence>
12.477

> <Coulomb>
1.220

> <VdW>
0.784

> <VdW6>
-11.565

> <VdW12>
12.349

> <Bond>
0.279

> <Angle>
3.853

> <Pdih>
8.338

> <Idih>
0.007

> <Tether>
0.000

$$$$
VeraChem MOL file


 25 24  0  0  0  0  0  0  0  0999 V2000     
   20.1927   19.9916   26.0179 C   0  0  0  0  0  0  0  0  0  0  0  0
   21.2296   20.6069   25.8630 O   0  5  0  0  0  0  0  0  0  0  0  0
   19.0922   20.5063   25.9714 O   0  0  0  0  0  0  0  0  0  0  0  0
   20.2829   18.5191   26.4152 C   0  0  0  0  0  0  0  0  0  0  0  0
   19.8216   18.4398   27.4063 H   0  0  0  0  0  0  0  0  0  0  0  0
   21.3380   18.2466   26.5379 H   0  0  0  0  0  0  0  0  0  0  0  0
   19.5770   17.5258   25.4495 C   0  0  0  0  0  0  0  0  0  0  0  0
   19.3619   16.6067   26.0110 H   0  0  0  0  0  0  0  0  0  0  0  0
   18.5988   17.9237   25.1487 H   0  0  0  0  0  0  0  0  0  0  0  0
   20.4131   17.1261   24.2055 C   0  0  0  0  0  0  0  0  0  0  0  0
   19.8824   16.3276   23.6694 H   0  0  0  0  0  0  0  0  0  0  0  0
   21.3608   16.6837   24.5413 H   0  0  0  0  0  0  0  0  0  0  0  0
   20.7231   18.2681   23.2070 C   0  0  0  0  0  0  0  0  0  0  0  0
   21.3312   19.0350   23.7011 H   0  0  0  0  0  0  0  0  0  0  0  0
   21.3458   17.8614   22.3990 H   0  0  0  0  0  0  0  0  0  0  0  0
   19.4545   18.9046   22.5883 C   0  0  0  0  0  0  0  0  0  0  0  0
   18.8674   19.4067   23.3686 H   0  0  0  0  0  0  0  0  0  0  0  0
   18.8171   18.1092   22.1793 H   0  0  0  0  0  0  0  0  0  0  0  0
   19.7661   19.9181   21.4628 C   0  0  0  0  0  0  0  0  0  0  0  0
   20.3466   19.4276   20.6694 H   0  0  0  0  0  0  0  0  0  0  0  0
   18.8201   20.2374   21.0042 H   0  0  0  0  0  0  0  0  0  0  0  0
   20.5219   21.1674   21.9654 C   0  0  0  0  0  0  0  0  0  0  0  0
   21.5257   20.9097   22.3258 H   0  0  0  0  0  0  0  0  0  0  0  0
   20.6351   21.9015   21.1574 H   0  0  0  0  0  0  0  0  0  0  0  0
   19.9783   21.6489   22.7894 H   0  0  0  0  0  0  0  0  0  0  0  0
  1  2  1  0  0  0  0
  1  3  2  0  0  0  0
  1  4  1  0  0  0  0
  4  5  1  0  0  0  0
  4  6  1  0  0  0  0
  4  7  1  0  0  0  0
  7  8  1  0  0  0  0
  7  9  1  0  0  0  0
  7 10  1  0  0  0  0
 10 11  1  0  0  0  0
 10 12  1  0  0  0  0
 10 13  1  0  0  0  0
 13 14  1  0  0  0  0
 13 15  1  0  0  0  0
 13 16  1  0  0  0  0
 16 17  1  0  0  0  0
 16 18  1  0  0  0  0
 16 19  1  0  0  0  0
 19 20  1  0  0  0  0
 19 21  1  0  0  0  0
 19 22  1  0  0  0  0
 22 23  1  0  0  0  0
 22 24  1  0  0  0  0
 22 25  1  0  0  0  0
M  END
> <VM2 Rank>
183

> <Conf_Id>
543

> <Probability>
0.00

> <Sum Probability>
100.00

> <Delta G>
7.908

> <G>
-0.054

> <E>
-25.945

> <-TS>
25.890

> <U+W>
-46.512

> <U>
14.293

> <W>
-60.806

> <W(PB)>
-63.092

> <W(SA)>
2.287

> <Valence>
10.557

> <Coulomb>
3.764

> <VdW>
-0.028

> <VdW6>
-12.699

> <VdW12>
12.671

> <Bond>
0.274

> <Angle>
3.852

> <Pdih>
6.409

> <Idih>
0.021

> <Tether>
0.000

$$$$
VeraChem MOL file


 25 24  0  0  0  0  0  0  0  0999 V2000     
   20.6002   19.3235   26.6158 C   0  0  0  0  0  0  0  0  0  0  0  0
   21.6607   19.8740   26.3933 O   0  5  0  0  0  0  0  0  0  0  0  0
   20.5071   18.2142   27.1039 O   0  0  0  0  0  0  0  0  0  0  0  0
   19.3157   20.0882   26.3108 C   0  0  0  0  0  0  0  0  0  0  0  0
   19.4163   21.0754   26.7767 H   0  0  0  0  0  0  0  0  0  0  0  0
   18.4813   19.5878   26.8167 H   0  0  0  0  0  0  0  0  0  0  0  0
   18.9979   20.2685   24.8001 C   0  0  0  0  0  0  0  0  0  0  0  0
   18.1808   20.9975   24.7155 H   0  0  0  0  0  0  0  0  0  0  0  0
   19.8604   20.7182   24.2925 H   0  0  0  0  0  0  0  0  0  0  0  0
   18.5520   18.9652   24.0864 C   0  0  0  0  0  0  0  0  0  0  0  0
   17.9101   19.2206   23.2323 H   0  0  0  0  0  0  0  0  0  0  0  0
   17.9140   18.3893   24.7705 H   0  0  0  0  0  0  0  0  0  0  0  0
   19.7127   18.0615   23.5927 C   0  0  0  0  0  0  0  0  0  0  0  0
   20.5997   18.1805   24.2266 H   0  0  0  0  0  0  0  0  0  0  0  0
   19.4030   17.0142   23.7097 H   0  0  0  0  0  0  0  0  0  0  0  0
   20.1020   18.2728   22.1080 C   0  0  0  0  0  0  0  0  0  0  0  0
   19.2316   18.0713   21.4689 H   0  0  0  0  0  0  0  0  0  0  0  0
   20.8607   17.5248   21.8403 H   0  0  0  0  0  0  0  0  0  0  0  0
   20.6554   19.6805   21.7960 C   0  0  0  0  0  0  0  0  0  0  0  0
   19.8745   20.4340   21.9632 H   0  0  0  0  0  0  0  0  0  0  0  0
   21.4826   19.9133   22.4809 H   0  0  0  0  0  0  0  0  0  0  0  0
   21.1493   19.7857   20.3390 C   0  0  0  0  0  0  0  0  0  0  0  0
   20.3339   19.5822   19.6326 H   0  0  0  0  0  0  0  0  0  0  0  0
   21.5331   20.7932   20.1328 H   0  0  0  0  0  0  0  0  0  0  0  0
   21.9580   19.0690   20.1452 H   0  0  0  0  0  0  0  0  0  0  0  0
  1  2  1  0  0  0  0
  1  3  2  0  0  0  0
  1  4  1  0  0  0  0
  4  5  1  0  0  0  0
  4  6  1  0  0  0  0
  4  7  1  0  0  0  0
  7  8  1  0  0  0  0
  7  9  1  0  0  0  0
  7 10  1  0  0  0  0
 10 11  1  0  0  0  0
 10 12  1  0  0  0  0
 10 13  1  0  0  0  0
 13 14  1  0  0  0  0
 13 15  1  0  0  0  0
 13 16  1  0  0  0  0
 16 17  1  0  0  0  0
 16 18  1  0  0  0  0
 16 19  1  0  0  0  0
 19 20  1  0  0  0  0
 19 21  1  0  0  0  0
 19 22  1  0  0  0  0
 22 23  1  0  0  0  0
 22 24  1  0  0  0  0
 22 25  1  0  0  0  0
M  END
> <VM2 Rank>
184

> <Conf_Id>
659

> <Probability>
0.00

> <Sum Probability>
100.00

> <Delta G>
7.920

> <G>
-0.042

> <E>
-25.285

> <-TS>
25.243

> <U+W>
-45.853

> <U>
14.997

> <W>
-60.850

> <W(PB)>
-63.216

> <W(SA)>
2.366

> <Valence>
12.645

> <Coulomb>
1.771

> <VdW>
0.582

> <VdW6>
-11.471

> <VdW12>
12.053

> <Bond>
0.285

> <Angle>
3.668

> <Pdih>
8.688

> <Idih>
0.004

> <Tether>
0.000

$$$$
VeraChem MOL file


 25 24  0  0  0  0  0  0  0  0999 V2000     
   20.0032   19.9794   26.0202 C   0  0  0  0  0  0  0  0  0  0  0  0
   21.0275   20.6304   25.9496 O   0  5  0  0  0  0  0  0  0  0  0  0
   18.8930   20.4570   25.8898 O   0  0  0  0  0  0  0  0  0  0  0  0
   20.1111   18.5080   26.4171 C   0  0  0  0  0  0  0  0  0  0  0  0
   19.1026   18.1030   26.5634 H   0  0  0  0  0  0  0  0  0  0  0  0
   20.6012   18.4897   27.3974 H   0  0  0  0  0  0  0  0  0  0  0  0
   20.9160   17.6118   25.4341 C   0  0  0  0  0  0  0  0  0  0  0  0
   21.8281   18.1312   25.1115 H   0  0  0  0  0  0  0  0  0  0  0  0
   21.2598   16.7286   25.9891 H   0  0  0  0  0  0  0  0  0  0  0  0
   20.1097   17.1066   24.2090 C   0  0  0  0  0  0  0  0  0  0  0  0
   19.2344   16.5470   24.5656 H   0  0  0  0  0  0  0  0  0  0  0  0
   20.7258   16.3819   23.6595 H   0  0  0  0  0  0  0  0  0  0  0  0
   19.6333   18.1981   23.2195 C   0  0  0  0  0  0  0  0  0  0  0  0
   19.0494   17.7138   22.4253 H   0  0  0  0  0  0  0  0  0  0  0  0
   18.9434   18.8815   23.7286 H   0  0  0  0  0  0  0  0  0  0  0  0
   20.7954   18.9910   22.5730 C   0  0  0  0  0  0  0  0  0  0  0  0
   21.5200   18.2832   22.1485 H   0  0  0  0  0  0  0  0  0  0  0  0
   21.3309   19.5654   23.3404 H   0  0  0  0  0  0  0  0  0  0  0  0
   20.3310   19.9545   21.4562 C   0  0  0  0  0  0  0  0  0  0  0  0
   21.2176   20.3917   20.9768 H   0  0  0  0  0  0  0  0  0  0  0  0
   19.8003   19.3923   20.6756 H   0  0  0  0  0  0  0  0  0  0  0  0
   19.4328   21.0972   21.9776 C   0  0  0  0  0  0  0  0  0  0  0  0
   19.9286   21.6457   22.7897 H   0  0  0  0  0  0  0  0  0  0  0  0
   19.2081   21.8094   21.1733 H   0  0  0  0  0  0  0  0  0  0  0  0
   18.4787   20.7134   22.3602 H   0  0  0  0  0  0  0  0  0  0  0  0
  1  2  1  0  0  0  0
  1  3  2  0  0  0  0
  1  4  1  0  0  0  0
  4  5  1  0  0  0  0
  4  6  1  0  0  0  0
  4  7  1  0  0  0  0
  7  8  1  0  0  0  0
  7  9  1  0  0  0  0
  7 10  1  0  0  0  0
 10 11  1  0  0  0  0
 10 12  1  0  0  0  0
 10 13  1  0  0  0  0
 13 14  1  0  0  0  0
 13 15  1  0  0  0  0
 13 16  1  0  0  0  0
 16 17  1  0  0  0  0
 16 18  1  0  0  0  0
 16 19  1  0  0  0  0
 19 20  1  0  0  0  0
 19 21  1  0  0  0  0
 19 22  1  0  0  0  0
 22 23  1  0  0  0  0
 22 24  1  0  0  0  0
 22 25  1  0  0  0  0
M  END
> <VM2 Rank>
185

> <Conf_Id>
821

> <Probability>
0.00

> <Sum Probability>
100.00

> <Delta G>
7.963

> <G>
0.001

> <E>
-25.889

> <-TS>
25.890

> <U+W>
-46.457

> <U>
14.293

> <W>
-60.750

> <W(PB)>
-63.045

> <W(SA)>
2.295

> <Valence>
10.557

> <Coulomb>
3.763

> <VdW>
-0.028

> <VdW6>
-12.698

> <VdW12>
12.670

> <Bond>
0.274

> <Angle>
3.852

> <Pdih>
6.410

> <Idih>
0.021

> <Tether>
0.000

$$$$
VeraChem MOL file


 25 24  0  0  0  0  0  0  0  0999 V2000     
   20.3088   19.7407   26.6066 C   0  0  0  0  0  0  0  0  0  0  0  0
   21.1950   20.5407   26.3787 O   0  5  0  0  0  0  0  0  0  0  0  0
   19.2259   20.0484   27.0650 O   0  0  0  0  0  0  0  0  0  0  0  0
   20.5905   18.2635   26.3494 C   0  0  0  0  0  0  0  0  0  0  0  0
   19.8234   17.6667   26.8573 H   0  0  0  0  0  0  0  0  0  0  0  0
   21.5425   18.0320   26.8413 H   0  0  0  0  0  0  0  0  0  0  0  0
   20.6807   17.8600   24.8512 C   0  0  0  0  0  0  0  0  0  0  0  0
   21.4097   18.5008   24.3394 H   0  0  0  0  0  0  0  0  0  0  0  0
   21.0858   16.8403   24.8038 H   0  0  0  0  0  0  0  0  0  0  0  0
   19.3182   17.8683   24.1094 C   0  0  0  0  0  0  0  0  0  0  0  0
   18.5445   17.4862   24.7893 H   0  0  0  0  0  0  0  0  0  0  0  0
   19.3545   17.1538   23.2758 H   0  0  0  0  0  0  0  0  0  0  0  0
   18.8784   19.2541   23.5674 C   0  0  0  0  0  0  0  0  0  0  0  0
   17.7863   19.3259   23.6604 H   0  0  0  0  0  0  0  0  0  0  0  0
   19.2822   20.0641   24.1869 H   0  0  0  0  0  0  0  0  0  0  0  0
   19.2405   19.5052   22.0819 C   0  0  0  0  0  0  0  0  0  0  0  0
   18.8043   20.4666   21.7782 H   0  0  0  0  0  0  0  0  0  0  0  0
   18.7651   18.7390   21.4545 H   0  0  0  0  0  0  0  0  0  0  0  0
   20.7586   19.5332   21.7996 C   0  0  0  0  0  0  0  0  0  0  0  0
   21.2476   20.2493   22.4745 H   0  0  0  0  0  0  0  0  0  0  0  0
   21.1944   18.5463   22.0034 H   0  0  0  0  0  0  0  0  0  0  0  0
   21.0563   19.9199   20.3367 C   0  0  0  0  0  0  0  0  0  0  0  0
   20.5993   19.2042   19.6409 H   0  0  0  0  0  0  0  0  0  0  0  0
   20.6652   20.9196   20.1069 H   0  0  0  0  0  0  0  0  0  0  0  0
   22.1383   19.9289   20.1519 H   0  0  0  0  0  0  0  0  0  0  0  0
  1  2  1  0  0  0  0
  1  3  2  0  0  0  0
  1  4  1  0  0  0  0
  4  5  1  0  0  0  0
  4  6  1  0  0  0  0
  4  7  1  0  0  0  0
  7  8  1  0  0  0  0
  7  9  1  0  0  0  0
  7 10  1  0  0  0  0
 10 11  1  0  0  0  0
 10 12  1  0  0  0  0
 10 13  1  0  0  0  0
 13 14  1  0  0  0  0
 13 15  1  0  0  0  0
 13 16  1  0  0  0  0
 16 17  1  0  0  0  0
 16 18  1  0  0  0  0
 16 19  1  0  0  0  0
 19 20  1  0  0  0  0
 19 21  1  0  0  0  0
 19 22  1  0  0  0  0
 22 23  1  0  0  0  0
 22 24  1  0  0  0  0
 22 25  1  0  0  0  0
M  END
> <VM2 Rank>
186

> <Conf_Id>
390

> <Probability>
0.00

> <Sum Probability>
100.00

> <Delta G>
7.973

> <G>
0.011

> <E>
-25.230

> <-TS>
25.241

> <U+W>
-45.798

> <U>
14.997

> <W>
-60.795

> <W(PB)>
-63.174

> <W(SA)>
2.379

> <Valence>
12.645

> <Coulomb>
1.770

> <VdW>
0.582

> <VdW6>
-11.471

> <VdW12>
12.053

> <Bond>
0.285

> <Angle>
3.670

> <Pdih>
8.687

> <Idih>
0.003

> <Tether>
0.000

$$$$
VeraChem MOL file


 25 24  0  0  0  0  0  0  0  0999 V2000     
   20.3501   18.7702   26.8719 C   0  0  0  0  0  0  0  0  0  0  0  0
   21.4871   18.6689   27.2889 O   0  5  0  0  0  0  0  0  0  0  0  0
   19.3649   18.6953   27.5794 O   0  0  0  0  0  0  0  0  0  0  0  0
   20.1498   19.0276   25.3828 C   0  0  0  0  0  0  0  0  0  0  0  0
   19.2189   18.5327   25.0864 H   0  0  0  0  0  0  0  0  0  0  0  0
   20.9710   18.5451   24.8402 H   0  0  0  0  0  0  0  0  0  0  0  0
   20.0888   20.5366   25.0377 C   0  0  0  0  0  0  0  0  0  0  0  0
   19.1878   20.9737   25.4895 H   0  0  0  0  0  0  0  0  0  0  0  0
   20.9435   21.0387   25.5118 H   0  0  0  0  0  0  0  0  0  0  0  0
   20.1186   20.8560   23.5214 C   0  0  0  0  0  0  0  0  0  0  0  0
   21.0682   20.5286   23.0834 H   0  0  0  0  0  0  0  0  0  0  0  0
   20.1171   21.9500   23.4220 H   0  0  0  0  0  0  0  0  0  0  0  0
   18.9166   20.3079   22.7075 C   0  0  0  0  0  0  0  0  0  0  0  0
   18.0134   20.3321   23.3321 H   0  0  0  0  0  0  0  0  0  0  0  0
   18.7191   21.0007   21.8782 H   0  0  0  0  0  0  0  0  0  0  0  0
   19.0892   18.8877   22.1043 C   0  0  0  0  0  0  0  0  0  0  0  0
   18.1446   18.6256   21.6085 H   0  0  0  0  0  0  0  0  0  0  0  0
   19.2192   18.1367   22.8913 H   0  0  0  0  0  0  0  0  0  0  0  0
   20.2263   18.7701   21.0578 C   0  0  0  0  0  0  0  0  0  0  0  0
   19.8462   18.2283   20.1807 H   0  0  0  0  0  0  0  0  0  0  0  0
   20.5207   19.7649   20.6961 H   0  0  0  0  0  0  0  0  0  0  0  0
   21.4616   18.0137   21.5942 C   0  0  0  0  0  0  0  0  0  0  0  0
   22.2387   17.9492   20.8218 H   0  0  0  0  0  0  0  0  0  0  0  0
   21.8959   18.5159   22.4666 H   0  0  0  0  0  0  0  0  0  0  0  0
   21.1953   16.9906   21.8898 H   0  0  0  0  0  0  0  0  0  0  0  0
  1  2  1  0  0  0  0
  1  3  2  0  0  0  0
  1  4  1  0  0  0  0
  4  5  1  0  0  0  0
  4  6  1  0  0  0  0
  4  7  1  0  0  0  0
  7  8  1  0  0  0  0
  7  9  1  0  0  0  0
  7 10  1  0  0  0  0
 10 11  1  0  0  0  0
 10 12  1  0  0  0  0
 10 13  1  0  0  0  0
 13 14  1  0  0  0  0
 13 15  1  0  0  0  0
 13 16  1  0  0  0  0
 16 17  1  0  0  0  0
 16 18  1  0  0  0  0
 16 19  1  0  0  0  0
 19 20  1  0  0  0  0
 19 21  1  0  0  0  0
 19 22  1  0  0  0  0
 22 23  1  0  0  0  0
 22 24  1  0  0  0  0
 22 25  1  0  0  0  0
M  END
> <VM2 Rank>
187

> <Conf_Id>
853

> <Probability>
0.00

> <Sum Probability>
100.00

> <Delta G>
8.138

> <G>
0.176

> <E>
-24.953

> <-TS>
25.129

> <U+W>
-45.521

> <U>
14.627

> <W>
-60.148

> <W(PB)>
-62.511

> <W(SA)>
2.364

> <Valence>
14.135

> <Coulomb>
-0.398

> <VdW>
0.890

> <VdW6>
-11.095

> <VdW12>
11.985

> <Bond>
0.300

> <Angle>
4.125

> <Pdih>
9.709

> <Idih>
0.001

> <Tether>
0.000

$$$$
VeraChem MOL file


 25 24  0  0  0  0  0  0  0  0999 V2000     
   20.2487   19.7542   26.9856 C   0  0  0  0  0  0  0  0  0  0  0  0
   21.1075   20.6127   26.9386 O   0  5  0  0  0  0  0  0  0  0  0  0
   19.3781   19.7187   27.8328 O   0  0  0  0  0  0  0  0  0  0  0  0
   20.2527   18.6715   25.9123 C   0  0  0  0  0  0  0  0  0  0  0  0
   19.8841   17.7437   26.3657 H   0  0  0  0  0  0  0  0  0  0  0  0
   21.2933   18.4965   25.6184 H   0  0  0  0  0  0  0  0  0  0  0  0
   19.3867   19.0460   24.6809 C   0  0  0  0  0  0  0  0  0  0  0  0
   18.3664   19.2620   25.0261 H   0  0  0  0  0  0  0  0  0  0  0  0
   19.7655   19.9758   24.2398 H   0  0  0  0  0  0  0  0  0  0  0  0
   19.3207   17.9238   23.6140 C   0  0  0  0  0  0  0  0  0  0  0  0
   18.4986   18.1235   22.9141 H   0  0  0  0  0  0  0  0  0  0  0  0
   19.0536   16.9856   24.1191 H   0  0  0  0  0  0  0  0  0  0  0  0
   20.6341   17.7069   22.8179 C   0  0  0  0  0  0  0  0  0  0  0  0
   21.5091   17.9634   23.4277 H   0  0  0  0  0  0  0  0  0  0  0  0
   20.7250   16.6315   22.6134 H   0  0  0  0  0  0  0  0  0  0  0  0
   20.7147   18.4407   21.4530 C   0  0  0  0  0  0  0  0  0  0  0  0
   19.8794   18.1333   20.8091 H   0  0  0  0  0  0  0  0  0  0  0  0
   21.6227   18.0854   20.9470 H   0  0  0  0  0  0  0  0  0  0  0  0
   20.7924   19.9854   21.5290 C   0  0  0  0  0  0  0  0  0  0  0  0
   21.2837   20.2973   22.4604 H   0  0  0  0  0  0  0  0  0  0  0  0
   21.4363   20.3428   20.7137 H   0  0  0  0  0  0  0  0  0  0  0  0
   19.4173   20.6742   21.3819 C   0  0  0  0  0  0  0  0  0  0  0  0
   18.9592   20.4280   20.4152 H   0  0  0  0  0  0  0  0  0  0  0  0
   18.7220   20.3700   22.1719 H   0  0  0  0  0  0  0  0  0  0  0  0
   19.5269   21.7651   21.4337 H   0  0  0  0  0  0  0  0  0  0  0  0
  1  2  1  0  0  0  0
  1  3  2  0  0  0  0
  1  4  1  0  0  0  0
  4  5  1  0  0  0  0
  4  6  1  0  0  0  0
  4  7  1  0  0  0  0
  7  8  1  0  0  0  0
  7  9  1  0  0  0  0
  7 10  1  0  0  0  0
 10 11  1  0  0  0  0
 10 12  1  0  0  0  0
 10 13  1  0  0  0  0
 13 14  1  0  0  0  0
 13 15  1  0  0  0  0
 13 16  1  0  0  0  0
 16 17  1  0  0  0  0
 16 18  1  0  0  0  0
 16 19  1  0  0  0  0
 19 20  1  0  0  0  0
 19 21  1  0  0  0  0
 19 22  1  0  0  0  0
 22 23  1  0  0  0  0
 22 24  1  0  0  0  0
 22 25  1  0  0  0  0
M  END
> <VM2 Rank>
188

> <Conf_Id>
545

> <Probability>
0.00

> <Sum Probability>
100.00

> <Delta G>
8.272

> <G>
0.310

> <E>
-24.990

> <-TS>
25.299

> <U+W>
-45.557

> <U>
14.522

> <W>
-60.079

> <W(PB)>
-62.462

> <W(SA)>
2.384

> <Valence>
13.852

> <Coulomb>
-0.211

> <VdW>
0.881

> <VdW6>
-11.047

> <VdW12>
11.928

> <Bond>
0.293

> <Angle>
3.944

> <Pdih>
9.615

> <Idih>
0.000

> <Tether>
0.000

$$$$
VeraChem MOL file


 25 24  0  0  0  0  0  0  0  0999 V2000     
   19.6055   19.5886   26.7064 C   0  0  0  0  0  0  0  0  0  0  0  0
   20.0741   19.5369   27.8266 O   0  5  0  0  0  0  0  0  0  0  0  0
   18.7210   20.3557   26.3812 O   0  0  0  0  0  0  0  0  0  0  0  0
   20.1728   18.6523   25.6459 C   0  0  0  0  0  0  0  0  0  0  0  0
   19.3631   18.3993   24.9551 H   0  0  0  0  0  0  0  0  0  0  0  0
   20.4715   17.7206   26.1408 H   0  0  0  0  0  0  0  0  0  0  0  0
   21.3823   19.2641   24.8909 C   0  0  0  0  0  0  0  0  0  0  0  0
   21.1160   20.2416   24.4666 H   0  0  0  0  0  0  0  0  0  0  0  0
   22.1730   19.4604   25.6281 H   0  0  0  0  0  0  0  0  0  0  0  0
   21.9535   18.3383   23.7883 C   0  0  0  0  0  0  0  0  0  0  0  0
   21.8070   17.2846   24.0620 H   0  0  0  0  0  0  0  0  0  0  0  0
   23.0416   18.4865   23.7582 H   0  0  0  0  0  0  0  0  0  0  0  0
   21.4160   18.5976   22.3558 C   0  0  0  0  0  0  0  0  0  0  0  0
   21.6314   19.6318   22.0605 H   0  0  0  0  0  0  0  0  0  0  0  0
   22.0027   17.9700   21.6714 H   0  0  0  0  0  0  0  0  0  0  0  0
   19.9182   18.2608   22.1330 C   0  0  0  0  0  0  0  0  0  0  0  0
   19.6204   17.4512   22.8121 H   0  0  0  0  0  0  0  0  0  0  0  0
   19.7957   17.8523   21.1206 H   0  0  0  0  0  0  0  0  0  0  0  0
   18.9507   19.4611   22.2875 C   0  0  0  0  0  0  0  0  0  0  0  0
   17.9212   19.0790   22.3207 H   0  0  0  0  0  0  0  0  0  0  0  0
   19.1177   19.9742   23.2425 H   0  0  0  0  0  0  0  0  0  0  0  0
   19.0590   20.4786   21.1304 C   0  0  0  0  0  0  0  0  0  0  0  0
   18.8854   19.9922   20.1617 H   0  0  0  0  0  0  0  0  0  0  0  0
   18.3102   21.2727   21.2475 H   0  0  0  0  0  0  0  0  0  0  0  0
   20.0465   20.9549   21.1028 H   0  0  0  0  0  0  0  0  0  0  0  0
  1  2  1  0  0  0  0
  1  3  2  0  0  0  0
  1  4  1  0  0  0  0
  4  5  1  0  0  0  0
  4  6  1  0  0  0  0
  4  7  1  0  0  0  0
  7  8  1  0  0  0  0
  7  9  1  0  0  0  0
  7 10  1  0  0  0  0
 10 11  1  0  0  0  0
 10 12  1  0  0  0  0
 10 13  1  0  0  0  0
 13 14  1  0  0  0  0
 13 15  1  0  0  0  0
 13 16  1  0  0  0  0
 16 17  1  0  0  0  0
 16 18  1  0  0  0  0
 16 19  1  0  0  0  0
 19 20  1  0  0  0  0
 19 21  1  0  0  0  0
 19 22  1  0  0  0  0
 22 23  1  0  0  0  0
 22 24  1  0  0  0  0
 22 25  1  0  0  0  0
M  END
> <VM2 Rank>
189

> <Conf_Id>
855

> <Probability>
0.00

> <Sum Probability>
100.00

> <Delta G>
8.314

> <G>
0.352

> <E>
-25.047

> <-TS>
25.399

> <U+W>
-45.615

> <U>
14.722

> <W>
-60.336

> <W(PB)>
-62.693

> <W(SA)>
2.356

> <Valence>
13.814

> <Coulomb>
0.250

> <VdW>
0.657

> <VdW6>
-11.450

> <VdW12>
12.107

> <Bond>
0.297

> <Angle>
3.965

> <Pdih>
9.552

> <Idih>
0.001

> <Tether>
0.000

$$$$
VeraChem MOL file


 25 24  0  0  0  0  0  0  0  0999 V2000     
   20.5497   19.9041   26.0258 C   0  0  0  0  0  0  0  0  0  0  0  0
   21.5575   20.4175   25.5814 O   0  5  0  0  0  0  0  0  0  0  0  0
   19.6015   20.5435   26.4390 O   0  0  0  0  0  0  0  0  0  0  0  0
   20.5352   18.3830   26.1855 C   0  0  0  0  0  0  0  0  0  0  0  0
   20.7463   18.1883   27.2432 H   0  0  0  0  0  0  0  0  0  0  0  0
   21.3703   17.9567   25.6170 H   0  0  0  0  0  0  0  0  0  0  0  0
   19.2053   17.6741   25.8002 C   0  0  0  0  0  0  0  0  0  0  0  0
   19.1655   16.7169   26.3374 H   0  0  0  0  0  0  0  0  0  0  0  0
   18.3494   18.2568   26.1678 H   0  0  0  0  0  0  0  0  0  0  0  0
   19.0269   17.3691   24.2907 C   0  0  0  0  0  0  0  0  0  0  0  0
   18.0975   16.7943   24.1784 H   0  0  0  0  0  0  0  0  0  0  0  0
   19.8296   16.7037   23.9444 H   0  0  0  0  0  0  0  0  0  0  0  0
   18.9306   18.6173   23.3789 C   0  0  0  0  0  0  0  0  0  0  0  0
   18.1472   18.4449   22.6283 H   0  0  0  0  0  0  0  0  0  0  0  0
   18.6057   19.4897   23.9623 H   0  0  0  0  0  0  0  0  0  0  0  0
   20.2514   18.9244   22.6366 C   0  0  0  0  0  0  0  0  0  0  0  0
   20.5148   18.0739   21.9933 H   0  0  0  0  0  0  0  0  0  0  0  0
   21.0706   19.0399   23.3568 H   0  0  0  0  0  0  0  0  0  0  0  0
   20.1406   20.2027   21.7797 C   0  0  0  0  0  0  0  0  0  0  0  0
   19.3207   20.0955   21.0562 H   0  0  0  0  0  0  0  0  0  0  0  0
   19.8900   21.0563   22.4250 H   0  0  0  0  0  0  0  0  0  0  0  0
   21.4542   20.4982   21.0282 C   0  0  0  0  0  0  0  0  0  0  0  0
   22.2837   20.6419   21.7332 H   0  0  0  0  0  0  0  0  0  0  0  0
   21.7158   19.6724   20.3539 H   0  0  0  0  0  0  0  0  0  0  0  0
   21.3588   21.4111   20.4262 H   0  0  0  0  0  0  0  0  0  0  0  0
  1  2  1  0  0  0  0
  1  3  2  0  0  0  0
  1  4  1  0  0  0  0
  4  5  1  0  0  0  0
  4  6  1  0  0  0  0
  4  7  1  0  0  0  0
  7  8  1  0  0  0  0
  7  9  1  0  0  0  0
  7 10  1  0  0  0  0
 10 11  1  0  0  0  0
 10 12  1  0  0  0  0
 10 13  1  0  0  0  0
 13 14  1  0  0  0  0
 13 15  1  0  0  0  0
 13 16  1  0  0  0  0
 16 17  1  0  0  0  0
 16 18  1  0  0  0  0
 16 19  1  0  0  0  0
 19 20  1  0  0  0  0
 19 21  1  0  0  0  0
 19 22  1  0  0  0  0
 22 23  1  0  0  0  0
 22 24  1  0  0  0  0
 22 25  1  0  0  0  0
M  END
> <VM2 Rank>
190

> <Conf_Id>
127

> <Probability>
0.00

> <Sum Probability>
100.00

> <Delta G>
8.692

> <G>
0.730

> <E>
-24.800

> <-TS>
25.530

> <U+W>
-45.368

> <U>
15.897

> <W>
-61.265

> <W(PB)>
-63.633

> <W(SA)>
2.368

> <Valence>
12.566

> <Coulomb>
3.123

> <VdW>
0.208

> <VdW6>
-11.860

> <VdW12>
12.068

> <Bond>
0.250

> <Angle>
3.828

> <Pdih>
8.467

> <Idih>
0.021

> <Tether>
0.000

$$$$
VeraChem MOL file


 25 24  0  0  0  0  0  0  0  0999 V2000     
   19.4069   18.9841   26.0302 C   0  0  0  0  0  0  0  0  0  0  0  0
   18.6881   18.1075   25.5924 O   0  5  0  0  0  0  0  0  0  0  0  0
   18.9867   20.0487   26.4410 O   0  0  0  0  0  0  0  0  0  0  0  0
   20.8968   18.6740   26.1841 C   0  0  0  0  0  0  0  0  0  0  0  0
   21.1323   17.7651   25.6178 H   0  0  0  0  0  0  0  0  0  0  0  0
   21.0468   18.4301   27.2420 H   0  0  0  0  0  0  0  0  0  0  0  0
   21.8715   19.8204   25.7900 C   0  0  0  0  0  0  0  0  0  0  0  0
   21.4867   20.7824   26.1557 H   0  0  0  0  0  0  0  0  0  0  0  0
   22.8176   19.6569   26.3234 H   0  0  0  0  0  0  0  0  0  0  0  0
   22.2006   19.9240   24.2785 C   0  0  0  0  0  0  0  0  0  0  0  0
   22.6776   18.9964   23.9335 H   0  0  0  0  0  0  0  0  0  0  0  0
   22.9601   20.7087   24.1598 H   0  0  0  0  0  0  0  0  0  0  0  0
   20.9976   20.2812   23.3709 C   0  0  0  0  0  0  0  0  0  0  0  0
   20.2174   20.7872   23.9561 H   0  0  0  0  0  0  0  0  0  0  0  0
   21.3299   21.0068   22.6160 H   0  0  0  0  0  0  0  0  0  0  0  0
   20.4120   19.0536   22.6361 C   0  0  0  0  0  0  0  0  0  0  0  0
   20.1275   18.2808   23.3605 H   0  0  0  0  0  0  0  0  0  0  0  0
   21.1836   18.6122   21.9908 H   0  0  0  0  0  0  0  0  0  0  0  0
   19.1829   19.4317   21.7834 C   0  0  0  0  0  0  0  0  0  0  0  0
   18.4056   19.8614   22.4308 H   0  0  0  0  0  0  0  0  0  0  0  0
   19.4593   20.2070   21.0556 H   0  0  0  0  0  0  0  0  0  0  0  0
   18.6100   18.2087   21.0393 C   0  0  0  0  0  0  0  0  0  0  0  0
   18.2957   17.4318   21.7488 H   0  0  0  0  0  0  0  0  0  0  0  0
   17.7357   18.4947   20.4403 H   0  0  0  0  0  0  0  0  0  0  0  0
   19.3577   17.7741   20.3632 H   0  0  0  0  0  0  0  0  0  0  0  0
  1  2  1  0  0  0  0
  1  3  2  0  0  0  0
  1  4  1  0  0  0  0
  4  5  1  0  0  0  0
  4  6  1  0  0  0  0
  4  7  1  0  0  0  0
  7  8  1  0  0  0  0
  7  9  1  0  0  0  0
  7 10  1  0  0  0  0
 10 11  1  0  0  0  0
 10 12  1  0  0  0  0
 10 13  1  0  0  0  0
 13 14  1  0  0  0  0
 13 15  1  0  0  0  0
 13 16  1  0  0  0  0
 16 17  1  0  0  0  0
 16 18  1  0  0  0  0
 16 19  1  0  0  0  0
 19 20  1  0  0  0  0
 19 21  1  0  0  0  0
 19 22  1  0  0  0  0
 22 23  1  0  0  0  0
 22 24  1  0  0  0  0
 22 25  1  0  0  0  0
M  END
> <VM2 Rank>
191

> <Conf_Id>
376

> <Probability>
0.00

> <Sum Probability>
100.00

> <Delta G>
8.759

> <G>
0.796

> <E>
-24.734

> <-TS>
25.531

> <U+W>
-45.302

> <U>
15.898

> <W>
-61.200

> <W(PB)>
-63.554

> <W(SA)>
2.353

> <Valence>
12.566

> <Coulomb>
3.124

> <VdW>
0.208

> <VdW6>
-11.861

> <VdW12>
12.069

> <Bond>
0.250

> <Angle>
3.828

> <Pdih>
8.466

> <Idih>
0.022

> <Tether>
0.000

$$$$
VeraChem MOL file


 25 24  0  0  0  0  0  0  0  0999 V2000     
   19.9490   19.9569   26.0931 C   0  0  0  0  0  0  0  0  0  0  0  0
   20.9863   20.5723   26.2438 O   0  5  0  0  0  0  0  0  0  0  0  0
   18.8772   20.4898   25.8815 O   0  0  0  0  0  0  0  0  0  0  0  0
   19.9637   18.4481   26.3256 C   0  0  0  0  0  0  0  0  0  0  0  0
   19.1896   18.2453   27.0750 H   0  0  0  0  0  0  0  0  0  0  0  0
   20.9201   18.1682   26.7833 H   0  0  0  0  0  0  0  0  0  0  0  0
   19.6867   17.5745   25.0692 C   0  0  0  0  0  0  0  0  0  0  0  0
   19.3135   16.6032   25.4207 H   0  0  0  0  0  0  0  0  0  0  0  0
   18.8703   17.9999   24.4742 H   0  0  0  0  0  0  0  0  0  0  0  0
   20.9316   17.2933   24.1899 C   0  0  0  0  0  0  0  0  0  0  0  0
   20.6864   16.4926   23.4790 H   0  0  0  0  0  0  0  0  0  0  0  0
   21.7222   16.8825   24.8325 H   0  0  0  0  0  0  0  0  0  0  0  0
   21.5161   18.4925   23.3990 C   0  0  0  0  0  0  0  0  0  0  0  0
   21.7414   19.3342   24.0649 H   0  0  0  0  0  0  0  0  0  0  0  0
   22.4894   18.1692   23.0057 H   0  0  0  0  0  0  0  0  0  0  0  0
   20.6641   18.9587   22.1901 C   0  0  0  0  0  0  0  0  0  0  0  0
   20.1044   18.1120   21.7704 H   0  0  0  0  0  0  0  0  0  0  0  0
   21.3500   19.2921   21.3993 H   0  0  0  0  0  0  0  0  0  0  0  0
   19.7048   20.1273   22.5094 C   0  0  0  0  0  0  0  0  0  0  0  0
   18.9611   19.8223   23.2537 H   0  0  0  0  0  0  0  0  0  0  0  0
   20.2688   20.9597   22.9529 H   0  0  0  0  0  0  0  0  0  0  0  0
   18.9734   20.6205   21.2444 C   0  0  0  0  0  0  0  0  0  0  0  0
   18.3769   19.8147   20.7971 H   0  0  0  0  0  0  0  0  0  0  0  0
   18.2955   21.4485   21.4891 H   0  0  0  0  0  0  0  0  0  0  0  0
   19.6874   20.9783   20.4911 H   0  0  0  0  0  0  0  0  0  0  0  0
  1  2  1  0  0  0  0
  1  3  2  0  0  0  0
  1  4  1  0  0  0  0
  4  5  1  0  0  0  0
  4  6  1  0  0  0  0
  4  7  1  0  0  0  0
  7  8  1  0  0  0  0
  7  9  1  0  0  0  0
  7 10  1  0  0  0  0
 10 11  1  0  0  0  0
 10 12  1  0  0  0  0
 10 13  1  0  0  0  0
 13 14  1  0  0  0  0
 13 15  1  0  0  0  0
 13 16  1  0  0  0  0
 16 17  1  0  0  0  0
 16 18  1  0  0  0  0
 16 19  1  0  0  0  0
 19 20  1  0  0  0  0
 19 21  1  0  0  0  0
 19 22  1  0  0  0  0
 22 23  1  0  0  0  0
 22 24  1  0  0  0  0
 22 25  1  0  0  0  0
M  END
> <VM2 Rank>
192

> <Conf_Id>
260

> <Probability>
0.00

> <Sum Probability>
100.00

> <Delta G>
9.346

> <G>
1.384

> <E>
-24.139

> <-TS>
25.523

> <U+W>
-44.707

> <U>
16.565

> <W>
-61.272

> <W(PB)>
-63.578

> <W(SA)>
2.305

> <Valence>
13.506

> <Coulomb>
3.141

> <VdW>
-0.082

> <VdW6>
-12.476

> <VdW12>
12.394

> <Bond>
0.291

> <Angle>
4.745

> <Pdih>
8.441

> <Idih>
0.029

> <Tether>
0.000

$$$$
VeraChem MOL file


 25 24  0  0  0  0  0  0  0  0999 V2000     
   19.9709   19.8325   26.5371 C   0  0  0  0  0  0  0  0  0  0  0  0
   21.0748   20.2286   26.8562 O   0  5  0  0  0  0  0  0  0  0  0  0
   18.9951   20.5522   26.4550 O   0  0  0  0  0  0  0  0  0  0  0  0
   19.7891   18.3423   26.2622 C   0  0  0  0  0  0  0  0  0  0  0  0
   18.8558   18.0310   26.7460 H   0  0  0  0  0  0  0  0  0  0  0  0
   20.6007   17.7940   26.7554 H   0  0  0  0  0  0  0  0  0  0  0  0
   19.7355   17.9814   24.7550 C   0  0  0  0  0  0  0  0  0  0  0  0
   19.4538   16.9248   24.6540 H   0  0  0  0  0  0  0  0  0  0  0  0
   18.9391   18.5622   24.2744 H   0  0  0  0  0  0  0  0  0  0  0  0
   21.0890   18.2143   24.0404 C   0  0  0  0  0  0  0  0  0  0  0  0
   21.8473   17.5968   24.5408 H   0  0  0  0  0  0  0  0  0  0  0  0
   21.4213   19.2543   24.1598 H   0  0  0  0  0  0  0  0  0  0  0  0
   21.0631   17.8347   22.5388 C   0  0  0  0  0  0  0  0  0  0  0  0
   22.0434   17.4084   22.2853 H   0  0  0  0  0  0  0  0  0  0  0  0
   20.3374   17.0293   22.3617 H   0  0  0  0  0  0  0  0  0  0  0  0
   20.8061   19.0077   21.5560 C   0  0  0  0  0  0  0  0  0  0  0  0
   20.9475   18.6161   20.5394 H   0  0  0  0  0  0  0  0  0  0  0  0
   21.5759   19.7810   21.6835 H   0  0  0  0  0  0  0  0  0  0  0  0
   19.3951   19.6415   21.6247 C   0  0  0  0  0  0  0  0  0  0  0  0
   19.0953   19.9372   20.6099 H   0  0  0  0  0  0  0  0  0  0  0  0
   18.6574   18.8970   21.9523 H   0  0  0  0  0  0  0  0  0  0  0  0
   19.3344   20.8987   22.5207 C   0  0  0  0  0  0  0  0  0  0  0  0
   19.6171   20.6771   23.5563 H   0  0  0  0  0  0  0  0  0  0  0  0
   20.0103   21.6782   22.1464 H   0  0  0  0  0  0  0  0  0  0  0  0
   18.3181   21.3128   22.5340 H   0  0  0  0  0  0  0  0  0  0  0  0
  1  2  1  0  0  0  0
  1  3  2  0  0  0  0
  1  4  1  0  0  0  0
  4  5  1  0  0  0  0
  4  6  1  0  0  0  0
  4  7  1  0  0  0  0
  7  8  1  0  0  0  0
  7  9  1  0  0  0  0
  7 10  1  0  0  0  0
 10 11  1  0  0  0  0
 10 12  1  0  0  0  0
 10 13  1  0  0  0  0
 13 14  1  0  0  0  0
 13 15  1  0  0  0  0
 13 16  1  0  0  0  0
 16 17  1  0  0  0  0
 16 18  1  0  0  0  0
 16 19  1  0  0  0  0
 19 20  1  0  0  0  0
 19 21  1  0  0  0  0
 19 22  1  0  0  0  0
 22 23  1  0  0  0  0
 22 24  1  0  0  0  0
 22 25  1  0  0  0  0
M  END
> <VM2 Rank>
193

> <Conf_Id>
159

> <Probability>
0.00

> <Sum Probability>
100.00

> <Delta G>
9.363

> <G>
1.400

> <E>
-24.456

> <-TS>
25.856

> <U+W>
-45.023

> <U>
16.130

> <W>
-61.153

> <W(PB)>
-63.491

> <W(SA)>
2.338

> <Valence>
13.422

> <Coulomb>
2.540

> <VdW>
0.168

> <VdW6>
-12.055

> <VdW12>
12.224

> <Bond>
0.261

> <Angle>
3.880

> <Pdih>
9.279

> <Idih>
0.002

> <Tether>
0.000

$$$$
VeraChem MOL file


 25 24  0  0  0  0  0  0  0  0999 V2000     
   19.8594   19.9030   26.1403 C   0  0  0  0  0  0  0  0  0  0  0  0
   20.8670   20.5429   26.3725 O   0  5  0  0  0  0  0  0  0  0  0  0
   18.7867   20.4156   25.8882 O   0  0  0  0  0  0  0  0  0  0  0  0
   19.9062   18.3820   26.2946 C   0  0  0  0  0  0  0  0  0  0  0  0
   18.9685   17.9556   25.9188 H   0  0  0  0  0  0  0  0  0  0  0  0
   19.9269   18.1879   27.3730 H   0  0  0  0  0  0  0  0  0  0  0  0
   21.1225   17.6730   25.6334 C   0  0  0  0  0  0  0  0  0  0  0  0
   22.0384   18.2515   25.8175 H   0  0  0  0  0  0  0  0  0  0  0  0
   21.2707   16.7115   26.1434 H   0  0  0  0  0  0  0  0  0  0  0  0
   20.9799   17.3800   24.1175 C   0  0  0  0  0  0  0  0  0  0  0  0
   20.1186   16.7213   23.9407 H   0  0  0  0  0  0  0  0  0  0  0  0
   21.8620   16.8023   23.8092 H   0  0  0  0  0  0  0  0  0  0  0  0
   20.8914   18.6361   23.2158 C   0  0  0  0  0  0  0  0  0  0  0  0
   21.3342   19.5019   23.7268 H   0  0  0  0  0  0  0  0  0  0  0  0
   21.5035   18.4638   22.3210 H   0  0  0  0  0  0  0  0  0  0  0  0
   19.4438   18.9536   22.7686 C   0  0  0  0  0  0  0  0  0  0  0  0
   18.7848   18.9759   23.6451 H   0  0  0  0  0  0  0  0  0  0  0  0
   19.0715   18.1444   22.1260 H   0  0  0  0  0  0  0  0  0  0  0  0
   19.3145   20.3042   22.0274 C   0  0  0  0  0  0  0  0  0  0  0  0
   18.2509   20.5000   21.8344 H   0  0  0  0  0  0  0  0  0  0  0  0
   19.6649   21.1160   22.6802 H   0  0  0  0  0  0  0  0  0  0  0  0
   20.0815   20.3436   20.6877 C   0  0  0  0  0  0  0  0  0  0  0  0
   19.7672   19.5222   20.0308 H   0  0  0  0  0  0  0  0  0  0  0  0
   19.8897   21.2886   20.1632 H   0  0  0  0  0  0  0  0  0  0  0  0
   21.1645   20.2645   20.8447 H   0  0  0  0  0  0  0  0  0  0  0  0
  1  2  1  0  0  0  0
  1  3  2  0  0  0  0
  1  4  1  0  0  0  0
  4  5  1  0  0  0  0
  4  6  1  0  0  0  0
  4  7  1  0  0  0  0
  7  8  1  0  0  0  0
  7  9  1  0  0  0  0
  7 10  1  0  0  0  0
 10 11  1  0  0  0  0
 10 12  1  0  0  0  0
 10 13  1  0  0  0  0
 13 14  1  0  0  0  0
 13 15  1  0  0  0  0
 13 16  1  0  0  0  0
 16 17  1  0  0  0  0
 16 18  1  0  0  0  0
 16 19  1  0  0  0  0
 19 20  1  0  0  0  0
 19 21  1  0  0  0  0
 19 22  1  0  0  0  0
 22 23  1  0  0  0  0
 22 24  1  0  0  0  0
 22 25  1  0  0  0  0
M  END
> <VM2 Rank>
194

> <Conf_Id>
282

> <Probability>
0.00

> <Sum Probability>
100.00

> <Delta G>
9.639

> <G>
1.677

> <E>
-24.044

> <-TS>
25.721

> <U+W>
-44.611

> <U>
16.285

> <W>
-60.897

> <W(PB)>
-63.242

> <W(SA)>
2.346

> <Valence>
13.053

> <Coulomb>
2.894

> <VdW>
0.338

> <VdW6>
-12.523

> <VdW12>
12.861

> <Bond>
0.282

> <Angle>
4.009

> <Pdih>
8.740

> <Idih>
0.021

> <Tether>
0.000

$$$$
VeraChem MOL file


 25 24  0  0  0  0  0  0  0  0999 V2000     
   20.3335   19.7988   26.3598 C   0  0  0  0  0  0  0  0  0  0  0  0
   21.2367   20.5665   26.0914 O   0  5  0  0  0  0  0  0  0  0  0  0
   19.2542   20.1537   26.7919 O   0  0  0  0  0  0  0  0  0  0  0  0
   20.5938   18.3030   26.2092 C   0  0  0  0  0  0  0  0  0  0  0  0
   19.8266   17.7555   26.7696 H   0  0  0  0  0  0  0  0  0  0  0  0
   21.5492   18.0968   26.7057 H   0  0  0  0  0  0  0  0  0  0  0  0
   20.6612   17.7864   24.7448 C   0  0  0  0  0  0  0  0  0  0  0  0
   21.3815   18.3836   24.1729 H   0  0  0  0  0  0  0  0  0  0  0  0
   21.0673   16.7663   24.7704 H   0  0  0  0  0  0  0  0  0  0  0  0
   19.2882   17.7333   24.0250 C   0  0  0  0  0  0  0  0  0  0  0  0
   18.5320   17.3785   24.7384 H   0  0  0  0  0  0  0  0  0  0  0  0
   19.3246   16.9712   23.2348 H   0  0  0  0  0  0  0  0  0  0  0  0
   18.8122   19.0762   23.4092 C   0  0  0  0  0  0  0  0  0  0  0  0
   17.7213   19.1300   23.5249 H   0  0  0  0  0  0  0  0  0  0  0  0
   19.2052   19.9321   23.9695 H   0  0  0  0  0  0  0  0  0  0  0  0
   19.1250   19.2333   21.8977 C   0  0  0  0  0  0  0  0  0  0  0  0
   18.6249   20.1382   21.5268 H   0  0  0  0  0  0  0  0  0  0  0  0
   18.6700   18.3951   21.3528 H   0  0  0  0  0  0  0  0  0  0  0  0
   20.6258   19.3112   21.5295 C   0  0  0  0  0  0  0  0  0  0  0  0
   21.1470   18.4079   21.8716 H   0  0  0  0  0  0  0  0  0  0  0  0
   20.7173   19.3171   20.4348 H   0  0  0  0  0  0  0  0  0  0  0  0
   21.3224   20.5717   22.0875 C   0  0  0  0  0  0  0  0  0  0  0  0
   22.3684   20.6111   21.7577 H   0  0  0  0  0  0  0  0  0  0  0  0
   20.8223   21.4834   21.7364 H   0  0  0  0  0  0  0  0  0  0  0  0
   21.3184   20.5823   23.1849 H   0  0  0  0  0  0  0  0  0  0  0  0
  1  2  1  0  0  0  0
  1  3  2  0  0  0  0
  1  4  1  0  0  0  0
  4  5  1  0  0  0  0
  4  6  1  0  0  0  0
  4  7  1  0  0  0  0
  7  8  1  0  0  0  0
  7  9  1  0  0  0  0
  7 10  1  0  0  0  0
 10 11  1  0  0  0  0
 10 12  1  0  0  0  0
 10 13  1  0  0  0  0
 13 14  1  0  0  0  0
 13 15  1  0  0  0  0
 13 16  1  0  0  0  0
 16 17  1  0  0  0  0
 16 18  1  0  0  0  0
 16 19  1  0  0  0  0
 19 20  1  0  0  0  0
 19 21  1  0  0  0  0
 19 22  1  0  0  0  0
 22 23  1  0  0  0  0
 22 24  1  0  0  0  0
 22 25  1  0  0  0  0
M  END
> <VM2 Rank>
195

> <Conf_Id>
1111

> <Probability>
0.00

> <Sum Probability>
100.00

> <Delta G>
9.755

> <G>
1.793

> <E>
-24.235

> <-TS>
26.028

> <U+W>
-44.803

> <U>
16.612

> <W>
-61.415

> <W(PB)>
-63.728

> <W(SA)>
2.313

> <Valence>
13.358

> <Coulomb>
3.087

> <VdW>
0.167

> <VdW6>
-12.848

> <VdW12>
13.015

> <Bond>
0.326

> <Angle>
4.202

> <Pdih>
8.823

> <Idih>
0.006

> <Tether>
0.000

$$$$
