@<TRIPOS>MOLECULE
guest-8_vm2.mol2 : vm2 ligand conformer 1
          25          24           1
SMALL
USER_CHARGES
 
@<TRIPOS>ATOM
       1    C1      20.160093   19.340144   27.808437 C.2        1 MOL1         0.6168
       2    O1      21.215706   19.704989   28.287176 O.co2      1 MOL1        -0.6703
       3    O2      19.077743   19.569007   28.311191 O.co2      1 MOL1        -0.6703
       4    C2      20.194138   18.572403   26.491816 C.3        1 MOL1        -0.1963
       5    H1      19.354716   17.866745   26.487218 H          1 MOL1         0.0750
       6    H2      21.116370   17.979547   26.466963 H          1 MOL1         0.0750
       7    C3      20.120555   19.499060   25.253305 C.3        1 MOL1        -0.1860
       8    H3      19.198437   20.094955   25.300219 H          1 MOL1         0.0752
       9    H4      20.959971   20.207765   25.279946 H          1 MOL1         0.0752
      10    C4      20.156617   18.698625   23.933449 C.3        1 MOL1        -0.1858
      11    H5      19.317089   17.990213   23.910574 H          1 MOL1         0.0752
      12    H6      21.079011   18.103228   23.890161 H          1 MOL1         0.0752
      13    C5      20.082898   19.624965   22.700598 C.3        1 MOL1        -0.1858
      14    H7      19.160571   20.220414   22.743675 H          1 MOL1         0.0752
      15    H8      20.922349   20.333425   22.723226 H          1 MOL1         0.0752
      16    C6      20.118870   18.825210   21.380380 C.3        1 MOL1        -0.1858
      17    H9      19.279514   18.116654   21.357444 H          1 MOL1         0.0752
      18    H10     21.041150   18.229718   21.336953 H          1 MOL1         0.0752
      19    C7      20.045114   19.750974   20.147951 C.3        1 MOL1        -0.1834
      20    H11     19.122762   20.346989   20.186975 H          1 MOL1         0.0752
      21    H12     20.884390   20.460031   20.166460 H          1 MOL1         0.0752
      22    C8      20.081265   18.948622   18.831696 C.3        1 MOL1        -0.2849
      23    H13     19.234002   18.252907   18.772332 H          1 MOL1         0.0764
      24    H14     20.027959   19.622106   17.966442 H          1 MOL1         0.0764
      25    H15     21.008887   18.366808   18.751644 H          1 MOL1         0.0764
@<TRIPOS>BOND
    1     1     2    1
    2     1     3    2
    3     1     4    1
    4     4     5    1
    5     4     6    1
    6     4     7    1
    7     7     8    1
    8     7     9    1
    9     7    10    1
   10    10    11    1
   11    10    12    1
   12    10    13    1
   13    13    14    1
   14    13    15    1
   15    13    16    1
   16    16    17    1
   17    16    18    1
   18    16    19    1
   19    19    20    1
   20    19    21    1
   21    19    22    1
   22    22    23    1
   23    22    24    1
   24    22    25    1
@<TRIPOS>SUBSTRUCTURE
       1 MOL1            1 RESIDUE      1      MOL     
@<SCITEGIC>MOL_PROPERTY
VM2 Rank
SciTegic.value.IntegerValue
1

@<SCITEGIC>MOL_PROPERTY
Conf_Id
SciTegic.value.IntegerValue
348

@<SCITEGIC>MOL_PROPERTY
Probability
SciTegic.value.DoubleValue
25.22

@<SCITEGIC>MOL_PROPERTY
Sum Probability
SciTegic.value.DoubleValue
25.22

@<SCITEGIC>MOL_PROPERTY
Delta G
SciTegic.value.DoubleValue
0.000

@<SCITEGIC>MOL_PROPERTY
G
SciTegic.value.DoubleValue
-7.962

@<SCITEGIC>MOL_PROPERTY
E
SciTegic.value.DoubleValue
-32.361

@<SCITEGIC>MOL_PROPERTY
-TS
SciTegic.value.DoubleValue
24.399

@<SCITEGIC>MOL_PROPERTY
U+W
SciTegic.value.DoubleValue
-52.928

@<SCITEGIC>MOL_PROPERTY
U
SciTegic.value.DoubleValue
5.617

@<SCITEGIC>MOL_PROPERTY
W
SciTegic.value.DoubleValue
-58.544

@<SCITEGIC>MOL_PROPERTY
W(PB)
SciTegic.value.DoubleValue
-61.064

@<SCITEGIC>MOL_PROPERTY
W(SA)
SciTegic.value.DoubleValue
2.520

@<SCITEGIC>MOL_PROPERTY
Valence
SciTegic.value.DoubleValue
7.531

@<SCITEGIC>MOL_PROPERTY
Coulomb
SciTegic.value.DoubleValue
-2.818

@<SCITEGIC>MOL_PROPERTY
VdW
SciTegic.value.DoubleValue
0.904

@<SCITEGIC>MOL_PROPERTY
VdW6
SciTegic.value.DoubleValue
-7.640

@<SCITEGIC>MOL_PROPERTY
VdW12
SciTegic.value.DoubleValue
8.544

@<SCITEGIC>MOL_PROPERTY
Bond
SciTegic.value.DoubleValue
0.115

@<SCITEGIC>MOL_PROPERTY
Angle
SciTegic.value.DoubleValue
2.271

@<SCITEGIC>MOL_PROPERTY
Pdih
SciTegic.value.DoubleValue
5.144

@<SCITEGIC>MOL_PROPERTY
Idih
SciTegic.value.DoubleValue
0.001

@<SCITEGIC>MOL_PROPERTY
Tether
SciTegic.value.DoubleValue
0.000

@<TRIPOS>MOLECULE
guest-8_vm2.mol2 : vm2 ligand conformer 2
          25          24           1
SMALL
USER_CHARGES
 
@<TRIPOS>ATOM
       1    C1      20.131444   19.707467   27.520779 C.2        1 MOL1         0.6168
       2    O1      20.946461   19.333378   28.340859 O.co2      1 MOL1        -0.6703
       3    O2      19.029243   20.128938   27.810961 O.co2      1 MOL1        -0.6703
       4    C2      20.503391   19.620161   26.044952 C.3        1 MOL1        -0.1963
       5    H1      21.584972   19.777666   25.956953 H          1 MOL1         0.0750
       6    H2      20.010102   20.450677   25.527626 H          1 MOL1         0.0750
       7    C3      20.106142   18.264106   25.405881 C.3        1 MOL1        -0.1860
       8    H3      20.541558   17.451530   26.003877 H          1 MOL1         0.0752
       9    H4      19.015865   18.138574   25.459640 H          1 MOL1         0.0752
      10    C4      20.578756   18.109376   23.940757 C.3        1 MOL1        -0.1858
      11    H5      20.359458   17.084838   23.610265 H          1 MOL1         0.0752
      12    H6      21.670244   18.224630   23.892079 H          1 MOL1         0.0752
      13    C5      19.905586   19.106044   22.969097 C.3        1 MOL1        -0.1858
      14    H7      18.813646   19.025523   23.058918 H          1 MOL1         0.0752
      15    H8      20.175331   20.134770   23.240884 H          1 MOL1         0.0752
      16    C6      20.322614   18.845372   21.505437 C.3        1 MOL1        -0.1858
      17    H9      20.049781   17.819389   21.222645 H          1 MOL1         0.0752
      18    H10     21.414983   18.921868   21.416206 H          1 MOL1         0.0752
      19    C7      19.655381   19.841496   20.533836 C.3        1 MOL1        -0.1834
      20    H11     18.562423   19.766845   20.619563 H          1 MOL1         0.0752
      21    H12     19.927918   20.869106   20.811711 H          1 MOL1         0.0752
      22    C8      20.073984   19.577662   19.073440 C.3        1 MOL1        -0.2849
      23    H13     19.784778   18.566450   18.758482 H          1 MOL1         0.0764
      24    H14     19.590740   20.294499   18.396906 H          1 MOL1         0.0764
      25    H15     21.160661   19.676860   18.952270 H          1 MOL1         0.0764
@<TRIPOS>BOND
    1     1     2    1
    2     1     3    2
    3     1     4    1
    4     4     5    1
    5     4     6    1
    6     4     7    1
    7     7     8    1
    8     7     9    1
    9     7    10    1
   10    10    11    1
   11    10    12    1
   12    10    13    1
   13    13    14    1
   14    13    15    1
   15    13    16    1
   16    16    17    1
   17    16    18    1
   18    16    19    1
   19    19    20    1
   20    19    21    1
   21    19    22    1
   22    22    23    1
   23    22    24    1
   24    22    25    1
@<TRIPOS>SUBSTRUCTURE
       1 MOL1            1 RESIDUE      1      MOL     
@<SCITEGIC>MOL_PROPERTY
VM2 Rank
SciTegic.value.IntegerValue
2

@<SCITEGIC>MOL_PROPERTY
Conf_Id
SciTegic.value.IntegerValue
1026

@<SCITEGIC>MOL_PROPERTY
Probability
SciTegic.value.DoubleValue
5.98

@<SCITEGIC>MOL_PROPERTY
Sum Probability
SciTegic.value.DoubleValue
31.20

@<SCITEGIC>MOL_PROPERTY
Delta G
SciTegic.value.DoubleValue
0.858

@<SCITEGIC>MOL_PROPERTY
G
SciTegic.value.DoubleValue
-7.105

@<SCITEGIC>MOL_PROPERTY
E
SciTegic.value.DoubleValue
-31.612

@<SCITEGIC>MOL_PROPERTY
-TS
SciTegic.value.DoubleValue
24.508

@<SCITEGIC>MOL_PROPERTY
U+W
SciTegic.value.DoubleValue
-52.180

@<SCITEGIC>MOL_PROPERTY
U
SciTegic.value.DoubleValue
6.575

@<SCITEGIC>MOL_PROPERTY
W
SciTegic.value.DoubleValue
-58.755

@<SCITEGIC>MOL_PROPERTY
W(PB)
SciTegic.value.DoubleValue
-61.293

@<SCITEGIC>MOL_PROPERTY
W(SA)
SciTegic.value.DoubleValue
2.538

@<SCITEGIC>MOL_PROPERTY
Valence
SciTegic.value.DoubleValue
8.050

@<SCITEGIC>MOL_PROPERTY
Coulomb
SciTegic.value.DoubleValue
-2.490

@<SCITEGIC>MOL_PROPERTY
VdW
SciTegic.value.DoubleValue
1.015

@<SCITEGIC>MOL_PROPERTY
VdW6
SciTegic.value.DoubleValue
-8.339

@<SCITEGIC>MOL_PROPERTY
VdW12
SciTegic.value.DoubleValue
9.354

@<SCITEGIC>MOL_PROPERTY
Bond
SciTegic.value.DoubleValue
0.157

@<SCITEGIC>MOL_PROPERTY
Angle
SciTegic.value.DoubleValue
2.513

@<SCITEGIC>MOL_PROPERTY
Pdih
SciTegic.value.DoubleValue
5.379

@<SCITEGIC>MOL_PROPERTY
Idih
SciTegic.value.DoubleValue
0.001

@<SCITEGIC>MOL_PROPERTY
Tether
SciTegic.value.DoubleValue
0.000

@<TRIPOS>MOLECULE
guest-8_vm2.mol2 : vm2 ligand conformer 3
          25          24           1
SMALL
USER_CHARGES
 
@<TRIPOS>ATOM
       1    C1      20.130365   19.167864   27.705079 C.2        1 MOL1         0.6168
       2    O1      21.227583   19.243488   28.221827 O.co2      1 MOL1        -0.6703
       3    O2      19.227046   18.481206   28.139988 O.co2      1 MOL1        -0.6703
       4    C2      19.880595   19.960591   26.427078 C.3        1 MOL1        -0.1963
       5    H1      20.472917   20.882165   26.476619 H          1 MOL1         0.0750
       6    H2      18.824238   20.254533   26.409550 H          1 MOL1         0.0750
       7    C3      20.235539   19.164959   25.146843 C.3        1 MOL1        -0.1860
       8    H3      21.292510   18.866883   25.186078 H          1 MOL1         0.0752
       9    H4      19.643960   18.239294   25.119177 H          1 MOL1         0.0752
      10    C4      19.974061   19.988390   23.867107 C.3        1 MOL1        -0.1858
      11    H5      20.565702   20.913625   23.898973 H          1 MOL1         0.0752
      12    H6      18.916888   20.285448   23.831073 H          1 MOL1         0.0752
      13    C5      20.328775   19.192639   22.592391 C.3        1 MOL1        -0.1858
      14    H7      21.386563   18.898149   22.626226 H          1 MOL1         0.0752
      15    H8      19.738439   18.267379   22.570180 H          1 MOL1         0.0752
      16    C6      20.063086   20.017244   21.311659 C.3        1 MOL1        -0.1858
      17    H9      20.605039   20.970304   21.381448 H          1 MOL1         0.0752
      18    H10     18.995846   20.270181   21.248974 H          1 MOL1         0.0752
      19    C7      20.500937   19.297417   20.014849 C.3        1 MOL1        -0.1834
      20    H11     20.388488   19.992079   19.171022 H          1 MOL1         0.0752
      21    H12     21.569666   19.048517   20.071329 H          1 MOL1         0.0752
      22    C8      19.685013   18.020202   19.719178 C.3        1 MOL1        -0.2849
      23    H13     18.609776   18.239283   19.687668 H          1 MOL1         0.0764
      24    H14     19.972338   17.597538   18.747731 H          1 MOL1         0.0764
      25    H15     19.857493   17.249243   20.480478 H          1 MOL1         0.0764
@<TRIPOS>BOND
    1     1     2    1
    2     1     3    2
    3     1     4    1
    4     4     5    1
    5     4     6    1
    6     4     7    1
    7     7     8    1
    8     7     9    1
    9     7    10    1
   10    10    11    1
   11    10    12    1
   12    10    13    1
   13    13    14    1
   14    13    15    1
   15    13    16    1
   16    16    17    1
   17    16    18    1
   18    16    19    1
   19    19    20    1
   20    19    21    1
   21    19    22    1
   22    22    23    1
   23    22    24    1
   24    22    25    1
@<TRIPOS>SUBSTRUCTURE
       1 MOL1            1 RESIDUE      1      MOL     
@<SCITEGIC>MOL_PROPERTY
VM2 Rank
SciTegic.value.IntegerValue
3

@<SCITEGIC>MOL_PROPERTY
Conf_Id
SciTegic.value.IntegerValue
755

@<SCITEGIC>MOL_PROPERTY
Probability
SciTegic.value.DoubleValue
5.49

@<SCITEGIC>MOL_PROPERTY
Sum Probability
SciTegic.value.DoubleValue
36.70

@<SCITEGIC>MOL_PROPERTY
Delta G
SciTegic.value.DoubleValue
0.908

@<SCITEGIC>MOL_PROPERTY
G
SciTegic.value.DoubleValue
-7.054

@<SCITEGIC>MOL_PROPERTY
E
SciTegic.value.DoubleValue
-31.562

@<SCITEGIC>MOL_PROPERTY
-TS
SciTegic.value.DoubleValue
24.508

@<SCITEGIC>MOL_PROPERTY
U+W
SciTegic.value.DoubleValue
-52.129

@<SCITEGIC>MOL_PROPERTY
U
SciTegic.value.DoubleValue
6.630

@<SCITEGIC>MOL_PROPERTY
W
SciTegic.value.DoubleValue
-58.759

@<SCITEGIC>MOL_PROPERTY
W(PB)
SciTegic.value.DoubleValue
-61.280

@<SCITEGIC>MOL_PROPERTY
W(SA)
SciTegic.value.DoubleValue
2.521

@<SCITEGIC>MOL_PROPERTY
Valence
SciTegic.value.DoubleValue
8.032

@<SCITEGIC>MOL_PROPERTY
Coulomb
SciTegic.value.DoubleValue
-2.441

@<SCITEGIC>MOL_PROPERTY
VdW
SciTegic.value.DoubleValue
1.039

@<SCITEGIC>MOL_PROPERTY
VdW6
SciTegic.value.DoubleValue
-8.257

@<SCITEGIC>MOL_PROPERTY
VdW12
SciTegic.value.DoubleValue
9.295

@<SCITEGIC>MOL_PROPERTY
Bond
SciTegic.value.DoubleValue
0.146

@<SCITEGIC>MOL_PROPERTY
Angle
SciTegic.value.DoubleValue
2.498

@<SCITEGIC>MOL_PROPERTY
Pdih
SciTegic.value.DoubleValue
5.387

@<SCITEGIC>MOL_PROPERTY
Idih
SciTegic.value.DoubleValue
0.001

@<SCITEGIC>MOL_PROPERTY
Tether
SciTegic.value.DoubleValue
0.000

@<TRIPOS>MOLECULE
guest-8_vm2.mol2 : vm2 ligand conformer 4
          25          24           1
SMALL
USER_CHARGES
 
@<TRIPOS>ATOM
       1    C1      20.021647   19.170417   27.669841 C.2        1 MOL1         0.6168
       2    O1      21.060626   19.268386   28.292388 O.co2      1 MOL1        -0.6703
       3    O2      18.941096   19.517457   28.104132 O.co2      1 MOL1        -0.6703
       4    C2      20.080253   18.601114   26.256853 C.3        1 MOL1        -0.1963
       5    H1      19.142100   18.066294   26.065978 H          1 MOL1         0.0750
       6    H2      20.888603   17.860925   26.221055 H          1 MOL1         0.0750
       7    C3      20.304100   19.689839   25.178568 C.3        1 MOL1        -0.1860
       8    H3      19.493573   20.429656   25.235962 H          1 MOL1         0.0752
       9    H4      21.239977   20.224649   25.392235 H          1 MOL1         0.0752
      10    C4      20.359826   19.088592   23.757369 C.3        1 MOL1        -0.1858
      11    H5      19.423927   18.550588   23.558287 H          1 MOL1         0.0752
      12    H6      21.172580   18.351494   23.702369 H          1 MOL1         0.0752
      13    C5      20.579211   20.180136   22.684506 C.3        1 MOL1        -0.1858
      14    H7      19.740065   20.889015   22.700043 H          1 MOL1         0.0752
      15    H8      21.478033   20.757235   22.941366 H          1 MOL1         0.0752
      16    C6      20.752779   19.614417   21.254813 C.3        1 MOL1        -0.1858
      17    H9      21.594716   18.908897   21.237943 H          1 MOL1         0.0752
      18    H10     21.026850   20.440723   20.584734 H          1 MOL1         0.0752
      19    C7      19.483522   18.924120   20.706151 C.3        1 MOL1        -0.1834
      20    H11     19.236385   18.045870   21.316838 H          1 MOL1         0.0752
      21    H12     18.629345   19.611985   20.772755 H          1 MOL1         0.0752
      22    C8      19.669942   18.479520   19.241378 C.3        1 MOL1        -0.2849
      23    H13     20.501734   17.768803   19.149845 H          1 MOL1         0.0764
      24    H14     18.761988   17.988584   18.867666 H          1 MOL1         0.0764
      25    H15     19.881004   19.339935   18.592930 H          1 MOL1         0.0764
@<TRIPOS>BOND
    1     1     2    1
    2     1     3    2
    3     1     4    1
    4     4     5    1
    5     4     6    1
    6     4     7    1
    7     7     8    1
    8     7     9    1
    9     7    10    1
   10    10    11    1
   11    10    12    1
   12    10    13    1
   13    13    14    1
   14    13    15    1
   15    13    16    1
   16    16    17    1
   17    16    18    1
   18    16    19    1
   19    19    20    1
   20    19    21    1
   21    19    22    1
   22    22    23    1
   23    22    24    1
   24    22    25    1
@<TRIPOS>SUBSTRUCTURE
       1 MOL1            1 RESIDUE      1      MOL     
@<SCITEGIC>MOL_PROPERTY
VM2 Rank
SciTegic.value.IntegerValue
4

@<SCITEGIC>MOL_PROPERTY
Conf_Id
SciTegic.value.IntegerValue
887

@<SCITEGIC>MOL_PROPERTY
Probability
SciTegic.value.DoubleValue
5.41

@<SCITEGIC>MOL_PROPERTY
Sum Probability
SciTegic.value.DoubleValue
42.11

@<SCITEGIC>MOL_PROPERTY
Delta G
SciTegic.value.DoubleValue
0.918

@<SCITEGIC>MOL_PROPERTY
G
SciTegic.value.DoubleValue
-7.045

@<SCITEGIC>MOL_PROPERTY
E
SciTegic.value.DoubleValue
-31.544

@<SCITEGIC>MOL_PROPERTY
-TS
SciTegic.value.DoubleValue
24.499

@<SCITEGIC>MOL_PROPERTY
U+W
SciTegic.value.DoubleValue
-52.112

@<SCITEGIC>MOL_PROPERTY
U
SciTegic.value.DoubleValue
6.583

@<SCITEGIC>MOL_PROPERTY
W
SciTegic.value.DoubleValue
-58.695

@<SCITEGIC>MOL_PROPERTY
W(PB)
SciTegic.value.DoubleValue
-61.195

@<SCITEGIC>MOL_PROPERTY
W(SA)
SciTegic.value.DoubleValue
2.500

@<SCITEGIC>MOL_PROPERTY
Valence
SciTegic.value.DoubleValue
8.068

@<SCITEGIC>MOL_PROPERTY
Coulomb
SciTegic.value.DoubleValue
-2.516

@<SCITEGIC>MOL_PROPERTY
VdW
SciTegic.value.DoubleValue
1.031

@<SCITEGIC>MOL_PROPERTY
VdW6
SciTegic.value.DoubleValue
-8.305

@<SCITEGIC>MOL_PROPERTY
VdW12
SciTegic.value.DoubleValue
9.336

@<SCITEGIC>MOL_PROPERTY
Bond
SciTegic.value.DoubleValue
0.150

@<SCITEGIC>MOL_PROPERTY
Angle
SciTegic.value.DoubleValue
2.522

@<SCITEGIC>MOL_PROPERTY
Pdih
SciTegic.value.DoubleValue
5.396

@<SCITEGIC>MOL_PROPERTY
Idih
SciTegic.value.DoubleValue
0.001

@<SCITEGIC>MOL_PROPERTY
Tether
SciTegic.value.DoubleValue
0.000

@<TRIPOS>MOLECULE
guest-8_vm2.mol2 : vm2 ligand conformer 5
          25          24           1
SMALL
USER_CHARGES
 
@<TRIPOS>ATOM
       1    C1      20.373731   19.642765   27.443301 C.2        1 MOL1         0.6168
       2    O1      21.515262   20.032142   27.591403 O.co2      1 MOL1        -0.6703
       3    O2      19.421060   20.108303   28.036897 O.co2      1 MOL1        -0.6703
       4    C2      20.119834   18.521856   26.441655 C.3        1 MOL1        -0.1963
       5    H1      19.273691   17.926218   26.804710 H          1 MOL1         0.0750
       6    H2      20.998779   17.866118   26.434113 H          1 MOL1         0.0750
       7    C3      19.832115   19.045920   25.013084 C.3        1 MOL1        -0.1860
       8    H3      18.955411   19.707751   25.039294 H          1 MOL1         0.0752
       9    H4      20.683261   19.654725   24.680806 H          1 MOL1         0.0752
      10    C4      19.583169   17.889282   24.017376 C.3        1 MOL1        -0.1858
      11    H5      18.780359   17.248855   24.407650 H          1 MOL1         0.0752
      12    H6      20.479794   17.257913   23.950804 H          1 MOL1         0.0752
      13    C5      19.182102   18.369637   22.602395 C.3        1 MOL1        -0.1858
      14    H7      18.905372   17.491758   22.002692 H          1 MOL1         0.0752
      15    H8      18.282585   18.996904   22.668105 H          1 MOL1         0.0752
      16    C6      20.304625   19.142779   21.872088 C.3        1 MOL1        -0.1858
      17    H9      21.219227   18.534442   21.856230 H          1 MOL1         0.0752
      18    H10     20.541694   20.064759   22.418603 H          1 MOL1         0.0752
      19    C7      19.901233   19.503465   20.426775 C.3        1 MOL1        -0.1834
      20    H11     19.669566   18.586995   19.866558 H          1 MOL1         0.0752
      21    H12     18.985379   20.110538   20.438775 H          1 MOL1         0.0752
      22    C8      21.019867   20.277851   19.701027 C.3        1 MOL1        -0.2849
      23    H13     21.939739   19.680902   19.647480 H          1 MOL1         0.0764
      24    H14     20.716427   20.525603   18.675549 H          1 MOL1         0.0764
      25    H15     21.250022   21.216232   20.222429 H          1 MOL1         0.0764
@<TRIPOS>BOND
    1     1     2    1
    2     1     3    2
    3     1     4    1
    4     4     5    1
    5     4     6    1
    6     4     7    1
    7     7     8    1
    8     7     9    1
    9     7    10    1
   10    10    11    1
   11    10    12    1
   12    10    13    1
   13    13    14    1
   14    13    15    1
   15    13    16    1
   16    16    17    1
   17    16    18    1
   18    16    19    1
   19    19    20    1
   20    19    21    1
   21    19    22    1
   22    22    23    1
   23    22    24    1
   24    22    25    1
@<TRIPOS>SUBSTRUCTURE
       1 MOL1            1 RESIDUE      1      MOL     
@<SCITEGIC>MOL_PROPERTY
VM2 Rank
SciTegic.value.IntegerValue
5

@<SCITEGIC>MOL_PROPERTY
Conf_Id
SciTegic.value.IntegerValue
779

@<SCITEGIC>MOL_PROPERTY
Probability
SciTegic.value.DoubleValue
5.34

@<SCITEGIC>MOL_PROPERTY
Sum Probability
SciTegic.value.DoubleValue
47.44

@<SCITEGIC>MOL_PROPERTY
Delta G
SciTegic.value.DoubleValue
0.926

@<SCITEGIC>MOL_PROPERTY
G
SciTegic.value.DoubleValue
-7.036

@<SCITEGIC>MOL_PROPERTY
E
SciTegic.value.DoubleValue
-31.542

@<SCITEGIC>MOL_PROPERTY
-TS
SciTegic.value.DoubleValue
24.506

@<SCITEGIC>MOL_PROPERTY
U+W
SciTegic.value.DoubleValue
-52.109

@<SCITEGIC>MOL_PROPERTY
U
SciTegic.value.DoubleValue
7.044

@<SCITEGIC>MOL_PROPERTY
W
SciTegic.value.DoubleValue
-59.153

@<SCITEGIC>MOL_PROPERTY
W(PB)
SciTegic.value.DoubleValue
-61.665

@<SCITEGIC>MOL_PROPERTY
W(SA)
SciTegic.value.DoubleValue
2.511

@<SCITEGIC>MOL_PROPERTY
Valence
SciTegic.value.DoubleValue
8.064

@<SCITEGIC>MOL_PROPERTY
Coulomb
SciTegic.value.DoubleValue
-2.027

@<SCITEGIC>MOL_PROPERTY
VdW
SciTegic.value.DoubleValue
1.007

@<SCITEGIC>MOL_PROPERTY
VdW6
SciTegic.value.DoubleValue
-8.345

@<SCITEGIC>MOL_PROPERTY
VdW12
SciTegic.value.DoubleValue
9.352

@<SCITEGIC>MOL_PROPERTY
Bond
SciTegic.value.DoubleValue
0.151

@<SCITEGIC>MOL_PROPERTY
Angle
SciTegic.value.DoubleValue
2.518

@<SCITEGIC>MOL_PROPERTY
Pdih
SciTegic.value.DoubleValue
5.395

@<SCITEGIC>MOL_PROPERTY
Idih
SciTegic.value.DoubleValue
0.001

@<SCITEGIC>MOL_PROPERTY
Tether
SciTegic.value.DoubleValue
0.000

@<TRIPOS>MOLECULE
guest-8_vm2.mol2 : vm2 ligand conformer 6
          25          24           1
SMALL
USER_CHARGES
 
@<TRIPOS>ATOM
       1    C1      19.901292   19.612419   27.448808 C.2        1 MOL1         0.6168
       2    O1      20.800192   20.196240   28.021342 O.co2      1 MOL1        -0.6703
       3    O2      18.723144   19.853467   27.623450 O.co2      1 MOL1        -0.6703
       4    C2      20.272988   18.531656   26.439854 C.3        1 MOL1        -0.1963
       5    H1      19.484906   17.769170   26.451479 H          1 MOL1         0.0750
       6    H2      21.196300   18.049296   26.782454 H          1 MOL1         0.0750
       7    C3      20.458621   19.086146   25.005868 C.3        1 MOL1        -0.1860
       8    H3      19.529350   19.580899   24.694138 H          1 MOL1         0.0752
       9    H4      21.244078   19.854472   25.012975 H          1 MOL1         0.0752
      10    C4      20.830215   17.969332   24.002942 C.3        1 MOL1        -0.1858
      11    H5      20.020259   17.228542   23.956066 H          1 MOL1         0.0752
      12    H6      21.717000   17.437221   24.373663 H          1 MOL1         0.0752
      13    C5      21.133979   18.494955   22.579843 C.3        1 MOL1        -0.1858
      14    H7      21.947177   19.232188   22.625817 H          1 MOL1         0.0752
      15    H8      21.506847   17.658789   21.972644 H          1 MOL1         0.0752
      16    C6      19.905335   19.117135   21.876646 C.3        1 MOL1        -0.1858
      17    H9      19.564861   20.001982   22.429866 H          1 MOL1         0.0752
      18    H10     19.075945   18.396778   21.880816 H          1 MOL1         0.0752
      19    C7      20.226044   19.524418   20.423023 C.3        1 MOL1        -0.1834
      20    H11     21.056709   20.243723   20.414976 H          1 MOL1         0.0752
      21    H12     20.560205   18.644330   19.856267 H          1 MOL1         0.0752
      22    C8      19.001190   20.148232   19.724224 C.3        1 MOL1        -0.2849
      23    H13     18.164312   19.438375   19.690793 H          1 MOL1         0.0764
      24    H14     18.664795   21.050169   20.252183 H          1 MOL1         0.0764
      25    H15     19.246901   20.431344   18.692460 H          1 MOL1         0.0764
@<TRIPOS>BOND
    1     1     2    1
    2     1     3    2
    3     1     4    1
    4     4     5    1
    5     4     6    1
    6     4     7    1
    7     7     8    1
    8     7     9    1
    9     7    10    1
   10    10    11    1
   11    10    12    1
   12    10    13    1
   13    13    14    1
   14    13    15    1
   15    13    16    1
   16    16    17    1
   17    16    18    1
   18    16    19    1
   19    19    20    1
   20    19    21    1
   21    19    22    1
   22    22    23    1
   23    22    24    1
   24    22    25    1
@<TRIPOS>SUBSTRUCTURE
       1 MOL1            1 RESIDUE      1      MOL     
@<SCITEGIC>MOL_PROPERTY
VM2 Rank
SciTegic.value.IntegerValue
6

@<SCITEGIC>MOL_PROPERTY
Conf_Id
SciTegic.value.IntegerValue
1030

@<SCITEGIC>MOL_PROPERTY
Probability
SciTegic.value.DoubleValue
5.18

@<SCITEGIC>MOL_PROPERTY
Sum Probability
SciTegic.value.DoubleValue
52.63

@<SCITEGIC>MOL_PROPERTY
Delta G
SciTegic.value.DoubleValue
0.943

@<SCITEGIC>MOL_PROPERTY
G
SciTegic.value.DoubleValue
-7.019

@<SCITEGIC>MOL_PROPERTY
E
SciTegic.value.DoubleValue
-31.525

@<SCITEGIC>MOL_PROPERTY
-TS
SciTegic.value.DoubleValue
24.506

@<SCITEGIC>MOL_PROPERTY
U+W
SciTegic.value.DoubleValue
-52.093

@<SCITEGIC>MOL_PROPERTY
U
SciTegic.value.DoubleValue
7.044

@<SCITEGIC>MOL_PROPERTY
W
SciTegic.value.DoubleValue
-59.136

@<SCITEGIC>MOL_PROPERTY
W(PB)
SciTegic.value.DoubleValue
-61.631

@<SCITEGIC>MOL_PROPERTY
W(SA)
SciTegic.value.DoubleValue
2.494

@<SCITEGIC>MOL_PROPERTY
Valence
SciTegic.value.DoubleValue
8.064

@<SCITEGIC>MOL_PROPERTY
Coulomb
SciTegic.value.DoubleValue
-2.027

@<SCITEGIC>MOL_PROPERTY
VdW
SciTegic.value.DoubleValue
1.007

@<SCITEGIC>MOL_PROPERTY
VdW6
SciTegic.value.DoubleValue
-8.345

@<SCITEGIC>MOL_PROPERTY
VdW12
SciTegic.value.DoubleValue
9.352

@<SCITEGIC>MOL_PROPERTY
Bond
SciTegic.value.DoubleValue
0.151

@<SCITEGIC>MOL_PROPERTY
Angle
SciTegic.value.DoubleValue
2.518

@<SCITEGIC>MOL_PROPERTY
Pdih
SciTegic.value.DoubleValue
5.395

@<SCITEGIC>MOL_PROPERTY
Idih
SciTegic.value.DoubleValue
0.001

@<SCITEGIC>MOL_PROPERTY
Tether
SciTegic.value.DoubleValue
0.000

@<TRIPOS>MOLECULE
guest-8_vm2.mol2 : vm2 ligand conformer 7
          25          24           1
SMALL
USER_CHARGES
 
@<TRIPOS>ATOM
       1    C1      20.059130   19.446622   27.699967 C.2        1 MOL1         0.6168
       2    O1      21.053270   19.925369   28.209003 O.co2      1 MOL1        -0.6703
       3    O2      18.933384   19.628684   28.119703 O.co2      1 MOL1        -0.6703
       4    C2      20.231848   18.588167   26.452042 C.3        1 MOL1        -0.1963
       5    H1      19.446671   17.822601   26.453885 H          1 MOL1         0.0750
       6    H2      21.193542   18.066629   26.527798 H          1 MOL1         0.0750
       7    C3      20.172127   19.412205   25.142304 C.3        1 MOL1        -0.1860
       8    H3      19.208966   19.938503   25.088302 H          1 MOL1         0.0752
       9    H4      20.955720   20.182379   25.161987 H          1 MOL1         0.0752
      10    C4      20.349247   18.521179   23.893769 C.3        1 MOL1        -0.1858
      11    H5      19.564823   17.752050   23.877133 H          1 MOL1         0.0752
      12    H6      21.312119   17.995256   23.952042 H          1 MOL1         0.0752
      13    C5      20.289552   19.345475   22.589577 C.3        1 MOL1        -0.1858
      14    H7      19.327788   19.872491   22.540987 H          1 MOL1         0.0752
      15    H8      21.075861   20.112478   22.604057 H          1 MOL1         0.0752
      16    C6      20.463365   18.451354   21.340107 C.3        1 MOL1        -0.1858
      17    H9      19.648960   17.715387   21.295366 H          1 MOL1         0.0752
      18    H10     21.395515   17.878221   21.437694 H          1 MOL1         0.0752
      19    C7      20.513511   19.248256   20.015714 C.3        1 MOL1        -0.1834
      20    H11     21.331360   19.981028   20.054303 H          1 MOL1         0.0752
      21    H12     20.755355   18.556443   19.197087 H          1 MOL1         0.0752
      22    C8      19.187566   19.966690   19.683813 C.3        1 MOL1        -0.2849
      23    H13     19.245365   20.441897   18.696013 H          1 MOL1         0.0764
      24    H14     18.349465   19.257819   19.669265 H          1 MOL1         0.0764
      25    H15     18.962555   20.751419   20.416805 H          1 MOL1         0.0764
@<TRIPOS>BOND
    1     1     2    1
    2     1     3    2
    3     1     4    1
    4     4     5    1
    5     4     6    1
    6     4     7    1
    7     7     8    1
    8     7     9    1
    9     7    10    1
   10    10    11    1
   11    10    12    1
   12    10    13    1
   13    13    14    1
   14    13    15    1
   15    13    16    1
   16    16    17    1
   17    16    18    1
   18    16    19    1
   19    19    20    1
   20    19    21    1
   21    19    22    1
   22    22    23    1
   23    22    24    1
   24    22    25    1
@<TRIPOS>SUBSTRUCTURE
       1 MOL1            1 RESIDUE      1      MOL     
@<SCITEGIC>MOL_PROPERTY
VM2 Rank
SciTegic.value.IntegerValue
7

@<SCITEGIC>MOL_PROPERTY
Conf_Id
SciTegic.value.IntegerValue
1000

@<SCITEGIC>MOL_PROPERTY
Probability
SciTegic.value.DoubleValue
5.13

@<SCITEGIC>MOL_PROPERTY
Sum Probability
SciTegic.value.DoubleValue
57.76

@<SCITEGIC>MOL_PROPERTY
Delta G
SciTegic.value.DoubleValue
0.949

@<SCITEGIC>MOL_PROPERTY
G
SciTegic.value.DoubleValue
-7.013

@<SCITEGIC>MOL_PROPERTY
E
SciTegic.value.DoubleValue
-31.521

@<SCITEGIC>MOL_PROPERTY
-TS
SciTegic.value.DoubleValue
24.508

@<SCITEGIC>MOL_PROPERTY
U+W
SciTegic.value.DoubleValue
-52.088

@<SCITEGIC>MOL_PROPERTY
U
SciTegic.value.DoubleValue
6.630

@<SCITEGIC>MOL_PROPERTY
W
SciTegic.value.DoubleValue
-58.718

@<SCITEGIC>MOL_PROPERTY
W(PB)
SciTegic.value.DoubleValue
-61.243

@<SCITEGIC>MOL_PROPERTY
W(SA)
SciTegic.value.DoubleValue
2.525

@<SCITEGIC>MOL_PROPERTY
Valence
SciTegic.value.DoubleValue
8.032

@<SCITEGIC>MOL_PROPERTY
Coulomb
SciTegic.value.DoubleValue
-2.441

@<SCITEGIC>MOL_PROPERTY
VdW
SciTegic.value.DoubleValue
1.039

@<SCITEGIC>MOL_PROPERTY
VdW6
SciTegic.value.DoubleValue
-8.256

@<SCITEGIC>MOL_PROPERTY
VdW12
SciTegic.value.DoubleValue
9.295

@<SCITEGIC>MOL_PROPERTY
Bond
SciTegic.value.DoubleValue
0.146

@<SCITEGIC>MOL_PROPERTY
Angle
SciTegic.value.DoubleValue
2.498

@<SCITEGIC>MOL_PROPERTY
Pdih
SciTegic.value.DoubleValue
5.387

@<SCITEGIC>MOL_PROPERTY
Idih
SciTegic.value.DoubleValue
0.001

@<SCITEGIC>MOL_PROPERTY
Tether
SciTegic.value.DoubleValue
0.000

@<TRIPOS>MOLECULE
guest-8_vm2.mol2 : vm2 ligand conformer 8
          25          24           1
SMALL
USER_CHARGES
 
@<TRIPOS>ATOM
       1    C1      20.315831   19.189182   27.666438 C.2        1 MOL1         0.6168
       2    O1      21.353370   19.671073   28.076230 O.co2      1 MOL1        -0.6703
       3    O2      19.287418   19.155580   28.312874 O.co2      1 MOL1        -0.6703
       4    C2      20.297373   18.614924   26.254361 C.3        1 MOL1        -0.1963
       5    H1      19.588854   17.778108   26.236140 H          1 MOL1         0.0750
       6    H2      21.291148   18.203163   26.041140 H          1 MOL1         0.0750
       7    C3      19.912411   19.664838   25.183095 C.3        1 MOL1        -0.1860
       8    H3      18.921372   20.076826   25.418994 H          1 MOL1         0.0752
       9    H4      20.623565   20.501649   25.222924 H          1 MOL1         0.0752
      10    C4      19.900818   19.059292   23.762677 C.3        1 MOL1        -0.1858
      11    H5      19.187227   18.224846   23.725317 H          1 MOL1         0.0752
      12    H6      20.892643   18.644233   23.541324 H          1 MOL1         0.0752
      13    C5      19.519919   20.112543   22.696744 C.3        1 MOL1        -0.1858
      14    H7      18.561205   20.571142   22.975050 H          1 MOL1         0.0752
      15    H8      20.262331   20.922316   22.694015 H          1 MOL1         0.0752
      16    C6      19.386804   19.527248   21.270598 C.3        1 MOL1        -0.1858
      17    H9      18.994572   20.311023   20.608212 H          1 MOL1         0.0752
      18    H10     18.641214   18.720406   21.272081 H          1 MOL1         0.0752
      19    C7      20.720546   19.003078   20.691867 C.3        1 MOL1        -0.1834
      20    H11     21.481667   19.794032   20.739818 H          1 MOL1         0.0752
      21    H12     21.091289   18.164259   21.295417 H          1 MOL1         0.0752
      22    C8      20.558510   18.536241   19.231118 C.3        1 MOL1        -0.2849
      23    H13     20.224958   19.361904   18.588957 H          1 MOL1         0.0764
      24    H14     21.512662   18.164130   18.835912 H          1 MOL1         0.0764
      25    H15     19.821906   17.725441   19.157691 H          1 MOL1         0.0764
@<TRIPOS>BOND
    1     1     2    1
    2     1     3    2
    3     1     4    1
    4     4     5    1
    5     4     6    1
    6     4     7    1
    7     7     8    1
    8     7     9    1
    9     7    10    1
   10    10    11    1
   11    10    12    1
   12    10    13    1
   13    13    14    1
   14    13    15    1
   15    13    16    1
   16    16    17    1
   17    16    18    1
   18    16    19    1
   19    19    20    1
   20    19    21    1
   21    19    22    1
   22    22    23    1
   23    22    24    1
   24    22    25    1
@<TRIPOS>SUBSTRUCTURE
       1 MOL1            1 RESIDUE      1      MOL     
@<SCITEGIC>MOL_PROPERTY
VM2 Rank
SciTegic.value.IntegerValue
8

@<SCITEGIC>MOL_PROPERTY
Conf_Id
SciTegic.value.IntegerValue
863

@<SCITEGIC>MOL_PROPERTY
Probability
SciTegic.value.DoubleValue
5.13

@<SCITEGIC>MOL_PROPERTY
Sum Probability
SciTegic.value.DoubleValue
62.88

@<SCITEGIC>MOL_PROPERTY
Delta G
SciTegic.value.DoubleValue
0.950

@<SCITEGIC>MOL_PROPERTY
G
SciTegic.value.DoubleValue
-7.013

@<SCITEGIC>MOL_PROPERTY
E
SciTegic.value.DoubleValue
-31.512

@<SCITEGIC>MOL_PROPERTY
-TS
SciTegic.value.DoubleValue
24.499

@<SCITEGIC>MOL_PROPERTY
U+W
SciTegic.value.DoubleValue
-52.079

@<SCITEGIC>MOL_PROPERTY
U
SciTegic.value.DoubleValue
6.583

@<SCITEGIC>MOL_PROPERTY
W
SciTegic.value.DoubleValue
-58.663

@<SCITEGIC>MOL_PROPERTY
W(PB)
SciTegic.value.DoubleValue
-61.146

@<SCITEGIC>MOL_PROPERTY
W(SA)
SciTegic.value.DoubleValue
2.483

@<SCITEGIC>MOL_PROPERTY
Valence
SciTegic.value.DoubleValue
8.068

@<SCITEGIC>MOL_PROPERTY
Coulomb
SciTegic.value.DoubleValue
-2.516

@<SCITEGIC>MOL_PROPERTY
VdW
SciTegic.value.DoubleValue
1.031

@<SCITEGIC>MOL_PROPERTY
VdW6
SciTegic.value.DoubleValue
-8.305

@<SCITEGIC>MOL_PROPERTY
VdW12
SciTegic.value.DoubleValue
9.336

@<SCITEGIC>MOL_PROPERTY
Bond
SciTegic.value.DoubleValue
0.150

@<SCITEGIC>MOL_PROPERTY
Angle
SciTegic.value.DoubleValue
2.522

@<SCITEGIC>MOL_PROPERTY
Pdih
SciTegic.value.DoubleValue
5.396

@<SCITEGIC>MOL_PROPERTY
Idih
SciTegic.value.DoubleValue
0.001

@<SCITEGIC>MOL_PROPERTY
Tether
SciTegic.value.DoubleValue
0.000

@<TRIPOS>MOLECULE
guest-8_vm2.mol2 : vm2 ligand conformer 9
          25          24           1
SMALL
USER_CHARGES
 
@<TRIPOS>ATOM
       1    C1      19.939178   19.564765   27.329947 C.2        1 MOL1         0.6168
       2    O1      20.737837   20.365955   27.774146 O.co2      1 MOL1        -0.6703
       3    O2      18.736694   19.740780   27.333784 O.co2      1 MOL1        -0.6703
       4    C2      20.477169   18.259125   26.751302 C.3        1 MOL1        -0.1963
       5    H1      19.660554   17.527723   26.719094 H          1 MOL1         0.0750
       6    H2      21.223060   17.871365   27.455060 H          1 MOL1         0.0750
       7    C3      21.118088   18.408796   25.347107 C.3        1 MOL1        -0.1860
       8    H3      21.914995   19.164323   25.389447 H          1 MOL1         0.0752
       9    H4      21.596811   17.459565   25.070819 H          1 MOL1         0.0752
      10    C4      20.088073   18.794762   24.261813 C.3        1 MOL1        -0.1858
      11    H5      19.617001   19.752681   24.522399 H          1 MOL1         0.0752
      12    H6      19.286776   18.043699   24.232630 H          1 MOL1         0.0752
      13    C5      20.741512   18.907140   22.867532 C.3        1 MOL1        -0.1858
      14    H7      21.542549   19.658483   22.897691 H          1 MOL1         0.0752
      15    H8      21.210734   17.949443   22.603555 H          1 MOL1         0.0752
      16    C6      19.713044   19.293465   21.782699 C.3        1 MOL1        -0.1858
      17    H9      19.243584   20.251104   22.046633 H          1 MOL1         0.0752
      18    H10     18.911775   18.542373   21.752545 H          1 MOL1         0.0752
      19    C7      20.365846   19.406581   20.388991 C.3        1 MOL1        -0.1834
      20    H11     21.166729   20.158508   20.414984 H          1 MOL1         0.0752
      21    H12     20.834898   18.449730   20.120840 H          1 MOL1         0.0752
      22    C8      19.335558   19.792632   19.308678 C.3        1 MOL1        -0.2849
      23    H13     18.873049   20.762167   19.535583 H          1 MOL1         0.0764
      24    H14     19.816560   19.868617   18.324836 H          1 MOL1         0.0764
      25    H15     18.538730   19.040549   19.239178 H          1 MOL1         0.0764
@<TRIPOS>BOND
    1     1     2    1
    2     1     3    2
    3     1     4    1
    4     4     5    1
    5     4     6    1
    6     4     7    1
    7     7     8    1
    8     7     9    1
    9     7    10    1
   10    10    11    1
   11    10    12    1
   12    10    13    1
   13    13    14    1
   14    13    15    1
   15    13    16    1
   16    16    17    1
   17    16    18    1
   18    16    19    1
   19    19    20    1
   20    19    21    1
   21    19    22    1
   22    22    23    1
   23    22    24    1
   24    22    25    1
@<TRIPOS>SUBSTRUCTURE
       1 MOL1            1 RESIDUE      1      MOL     
@<SCITEGIC>MOL_PROPERTY
VM2 Rank
SciTegic.value.IntegerValue
9

@<SCITEGIC>MOL_PROPERTY
Conf_Id
SciTegic.value.IntegerValue
195

@<SCITEGIC>MOL_PROPERTY
Probability
SciTegic.value.DoubleValue
2.49

@<SCITEGIC>MOL_PROPERTY
Sum Probability
SciTegic.value.DoubleValue
65.37

@<SCITEGIC>MOL_PROPERTY
Delta G
SciTegic.value.DoubleValue
1.381

@<SCITEGIC>MOL_PROPERTY
G
SciTegic.value.DoubleValue
-6.581

@<SCITEGIC>MOL_PROPERTY
E
SciTegic.value.DoubleValue
-31.293

@<SCITEGIC>MOL_PROPERTY
-TS
SciTegic.value.DoubleValue
24.712

@<SCITEGIC>MOL_PROPERTY
U+W
SciTegic.value.DoubleValue
-51.860

@<SCITEGIC>MOL_PROPERTY
U
SciTegic.value.DoubleValue
7.816

@<SCITEGIC>MOL_PROPERTY
W
SciTegic.value.DoubleValue
-59.676

@<SCITEGIC>MOL_PROPERTY
W(PB)
SciTegic.value.DoubleValue
-62.181

@<SCITEGIC>MOL_PROPERTY
W(SA)
SciTegic.value.DoubleValue
2.505

@<SCITEGIC>MOL_PROPERTY
Valence
SciTegic.value.DoubleValue
7.785

@<SCITEGIC>MOL_PROPERTY
Coulomb
SciTegic.value.DoubleValue
-0.713

@<SCITEGIC>MOL_PROPERTY
VdW
SciTegic.value.DoubleValue
0.744

@<SCITEGIC>MOL_PROPERTY
VdW6
SciTegic.value.DoubleValue
-8.514

@<SCITEGIC>MOL_PROPERTY
VdW12
SciTegic.value.DoubleValue
9.259

@<SCITEGIC>MOL_PROPERTY
Bond
SciTegic.value.DoubleValue
0.136

@<SCITEGIC>MOL_PROPERTY
Angle
SciTegic.value.DoubleValue
2.432

@<SCITEGIC>MOL_PROPERTY
Pdih
SciTegic.value.DoubleValue
5.216

@<SCITEGIC>MOL_PROPERTY
Idih
SciTegic.value.DoubleValue
0.000

@<SCITEGIC>MOL_PROPERTY
Tether
SciTegic.value.DoubleValue
0.000

@<TRIPOS>MOLECULE
guest-8_vm2.mol2 : vm2 ligand conformer 10
          25          24           1
SMALL
USER_CHARGES
 
@<TRIPOS>ATOM
       1    C1      20.230279   18.954583   27.335179 C.2        1 MOL1         0.6168
       2    O1      21.352718   19.077458   27.784744 O.co2      1 MOL1        -0.6703
       3    O2      19.610580   17.909243   27.349358 O.co2      1 MOL1        -0.6703
       4    C2      19.557709   20.185996   26.734980 C.3        1 MOL1        -0.1963
       5    H1      19.720908   21.019392   27.428378 H          1 MOL1         0.0750
       6    H2      18.475670   20.010856   26.698043 H          1 MOL1         0.0750
       7    C3      20.086528   20.570624   25.328795 C.3        1 MOL1        -0.1860
       8    H3      19.651681   21.535961   25.036251 H          1 MOL1         0.0752
       9    H4      21.174849   20.715434   25.376328 H          1 MOL1         0.0752
      10    C4      19.745729   19.512223   24.255757 C.3        1 MOL1        -0.1858
      11    H5      18.658026   19.361397   24.221455 H          1 MOL1         0.0752
      12    H6      20.192222   18.547143   24.532683 H          1 MOL1         0.0752
      13    C5      20.253400   19.930160   22.858893 C.3        1 MOL1        -0.1858
      14    H7      19.805936   20.893614   22.578593 H          1 MOL1         0.0752
      15    H8      21.341152   20.080624   22.894175 H          1 MOL1         0.0752
      16    C6      19.913847   18.872742   21.786314 C.3        1 MOL1        -0.1858
      17    H9      18.826149   18.721911   21.751069 H          1 MOL1         0.0752
      18    H10     20.361152   17.909147   22.066547 H          1 MOL1         0.0752
      19    C7      20.421628   19.289758   20.390025 C.3        1 MOL1        -0.1834
      20    H11     19.974764   20.252516   20.105619 H          1 MOL1         0.0752
      21    H12     21.509771   19.439633   20.421100 H          1 MOL1         0.0752
      22    C8      20.080581   18.231214   19.321955 C.3        1 MOL1        -0.2849
      23    H13     18.995151   18.084012   19.247341 H          1 MOL1         0.0764
      24    H14     20.448734   18.543695   18.336104 H          1 MOL1         0.0764
      25    H15     20.541667   17.264983   19.565256 H          1 MOL1         0.0764
@<TRIPOS>BOND
    1     1     2    1
    2     1     3    2
    3     1     4    1
    4     4     5    1
    5     4     6    1
    6     4     7    1
    7     7     8    1
    8     7     9    1
    9     7    10    1
   10    10    11    1
   11    10    12    1
   12    10    13    1
   13    13    14    1
   14    13    15    1
   15    13    16    1
   16    16    17    1
   17    16    18    1
   18    16    19    1
   19    19    20    1
   20    19    21    1
   21    19    22    1
   22    22    23    1
   23    22    24    1
   24    22    25    1
@<TRIPOS>SUBSTRUCTURE
       1 MOL1            1 RESIDUE      1      MOL     
@<SCITEGIC>MOL_PROPERTY
VM2 Rank
SciTegic.value.IntegerValue
10

@<SCITEGIC>MOL_PROPERTY
Conf_Id
SciTegic.value.IntegerValue
54

@<SCITEGIC>MOL_PROPERTY
Probability
SciTegic.value.DoubleValue
2.46

@<SCITEGIC>MOL_PROPERTY
Sum Probability
SciTegic.value.DoubleValue
67.83

@<SCITEGIC>MOL_PROPERTY
Delta G
SciTegic.value.DoubleValue
1.388

@<SCITEGIC>MOL_PROPERTY
G
SciTegic.value.DoubleValue
-6.575

@<SCITEGIC>MOL_PROPERTY
E
SciTegic.value.DoubleValue
-31.286

@<SCITEGIC>MOL_PROPERTY
-TS
SciTegic.value.DoubleValue
24.711

@<SCITEGIC>MOL_PROPERTY
U+W
SciTegic.value.DoubleValue
-51.854

@<SCITEGIC>MOL_PROPERTY
U
SciTegic.value.DoubleValue
7.816

@<SCITEGIC>MOL_PROPERTY
W
SciTegic.value.DoubleValue
-59.670

@<SCITEGIC>MOL_PROPERTY
W(PB)
SciTegic.value.DoubleValue
-62.157

@<SCITEGIC>MOL_PROPERTY
W(SA)
SciTegic.value.DoubleValue
2.487

@<SCITEGIC>MOL_PROPERTY
Valence
SciTegic.value.DoubleValue
7.785

@<SCITEGIC>MOL_PROPERTY
Coulomb
SciTegic.value.DoubleValue
-0.713

@<SCITEGIC>MOL_PROPERTY
VdW
SciTegic.value.DoubleValue
0.744

@<SCITEGIC>MOL_PROPERTY
VdW6
SciTegic.value.DoubleValue
-8.515

@<SCITEGIC>MOL_PROPERTY
VdW12
SciTegic.value.DoubleValue
9.259

@<SCITEGIC>MOL_PROPERTY
Bond
SciTegic.value.DoubleValue
0.136

@<SCITEGIC>MOL_PROPERTY
Angle
SciTegic.value.DoubleValue
2.433

@<SCITEGIC>MOL_PROPERTY
Pdih
SciTegic.value.DoubleValue
5.215

@<SCITEGIC>MOL_PROPERTY
Idih
SciTegic.value.DoubleValue
0.000

@<SCITEGIC>MOL_PROPERTY
Tether
SciTegic.value.DoubleValue
0.000

@<TRIPOS>MOLECULE
guest-8_vm2.mol2 : vm2 ligand conformer 11
          25          24           1
SMALL
USER_CHARGES
 
@<TRIPOS>ATOM
       1    C1      20.109601   19.818926   27.332405 C.2        1 MOL1         0.6168
       2    O1      21.133709   20.435723   27.550255 O.co2      1 MOL1        -0.6703
       3    O2      19.379916   19.395402   28.207007 O.co2      1 MOL1        -0.6703
       4    C2      19.731661   19.539926   25.882117 C.3        1 MOL1        -0.1963
       5    H1      20.074926   20.388391   25.279625 H          1 MOL1         0.0750
       6    H2      18.637523   19.513796   25.814785 H          1 MOL1         0.0750
       7    C3      20.332548   18.212609   25.350707 C.3        1 MOL1        -0.1860
       8    H3      21.429506   18.269080   25.379383 H          1 MOL1         0.0752
       9    H4      20.046166   17.398713   26.031151 H          1 MOL1         0.0752
      10    C4      19.864777   17.850732   23.920890 C.3        1 MOL1        -0.1858
      11    H5      18.768333   17.785552   23.897789 H          1 MOL1         0.0752
      12    H6      20.240982   16.848258   23.675073 H          1 MOL1         0.0752
      13    C5      20.349775   18.848798   22.843934 C.3        1 MOL1        -0.1858
      14    H7      19.923459   19.839462   23.042598 H          1 MOL1         0.0752
      15    H8      21.442024   18.949560   22.902278 H          1 MOL1         0.0752
      16    C6      19.948960   18.391547   21.422151 C.3        1 MOL1        -0.1858
      17    H9      18.854433   18.335021   21.346636 H          1 MOL1         0.0752
      18    H10     20.325374   17.373231   21.254254 H          1 MOL1         0.0752
      19    C7      20.497998   19.307610   20.303580 C.3        1 MOL1        -0.1834
      20    H11     21.593235   19.362116   20.372804 H          1 MOL1         0.0752
      21    H12     20.271174   18.850197   19.330671 H          1 MOL1         0.0752
      22    C8      19.904055   20.732727   20.332954 C.3        1 MOL1        -0.2849
      23    H13     20.204209   21.273519   21.239123 H          1 MOL1         0.0764
      24    H14     20.254573   21.312398   19.469232 H          1 MOL1         0.0764
      25    H15     18.807298   20.702206   20.296845 H          1 MOL1         0.0764
@<TRIPOS>BOND
    1     1     2    1
    2     1     3    2
    3     1     4    1
    4     4     5    1
    5     4     6    1
    6     4     7    1
    7     7     8    1
    8     7     9    1
    9     7    10    1
   10    10    11    1
   11    10    12    1
   12    10    13    1
   13    13    14    1
   14    13    15    1
   15    13    16    1
   16    16    17    1
   17    16    18    1
   18    16    19    1
   19    19    20    1
   20    19    21    1
   21    19    22    1
   22    22    23    1
   23    22    24    1
   24    22    25    1
@<TRIPOS>SUBSTRUCTURE
       1 MOL1            1 RESIDUE      1      MOL     
@<SCITEGIC>MOL_PROPERTY
VM2 Rank
SciTegic.value.IntegerValue
11

@<SCITEGIC>MOL_PROPERTY
Conf_Id
SciTegic.value.IntegerValue
918

@<SCITEGIC>MOL_PROPERTY
Probability
SciTegic.value.DoubleValue
1.45

@<SCITEGIC>MOL_PROPERTY
Sum Probability
SciTegic.value.DoubleValue
69.28

@<SCITEGIC>MOL_PROPERTY
Delta G
SciTegic.value.DoubleValue
1.703

@<SCITEGIC>MOL_PROPERTY
G
SciTegic.value.DoubleValue
-6.259

@<SCITEGIC>MOL_PROPERTY
E
SciTegic.value.DoubleValue
-30.875

@<SCITEGIC>MOL_PROPERTY
-TS
SciTegic.value.DoubleValue
24.616

@<SCITEGIC>MOL_PROPERTY
U+W
SciTegic.value.DoubleValue
-51.443

@<SCITEGIC>MOL_PROPERTY
U
SciTegic.value.DoubleValue
7.701

@<SCITEGIC>MOL_PROPERTY
W
SciTegic.value.DoubleValue
-59.144

@<SCITEGIC>MOL_PROPERTY
W(PB)
SciTegic.value.DoubleValue
-61.609

@<SCITEGIC>MOL_PROPERTY
W(SA)
SciTegic.value.DoubleValue
2.466

@<SCITEGIC>MOL_PROPERTY
Valence
SciTegic.value.DoubleValue
8.550

@<SCITEGIC>MOL_PROPERTY
Coulomb
SciTegic.value.DoubleValue
-1.988

@<SCITEGIC>MOL_PROPERTY
VdW
SciTegic.value.DoubleValue
1.139

@<SCITEGIC>MOL_PROPERTY
VdW6
SciTegic.value.DoubleValue
-8.989

@<SCITEGIC>MOL_PROPERTY
VdW12
SciTegic.value.DoubleValue
10.127

@<SCITEGIC>MOL_PROPERTY
Bond
SciTegic.value.DoubleValue
0.191

@<SCITEGIC>MOL_PROPERTY
Angle
SciTegic.value.DoubleValue
2.738

@<SCITEGIC>MOL_PROPERTY
Pdih
SciTegic.value.DoubleValue
5.621

@<SCITEGIC>MOL_PROPERTY
Idih
SciTegic.value.DoubleValue
0.001

@<SCITEGIC>MOL_PROPERTY
Tether
SciTegic.value.DoubleValue
0.000

@<TRIPOS>MOLECULE
guest-8_vm2.mol2 : vm2 ligand conformer 12
          25          24           1
SMALL
USER_CHARGES
 
@<TRIPOS>ATOM
       1    C1      20.551475   19.270384   27.396141 C.2        1 MOL1         0.6168
       2    O1      21.534362   19.970450   27.539447 O.co2      1 MOL1        -0.6703
       3    O2      19.833509   18.922359   28.312738 O.co2      1 MOL1        -0.6703
       4    C2      20.185263   18.823276   25.985462 C.3        1 MOL1        -0.1963
       5    H1      19.704483   17.840186   26.054291 H          1 MOL1         0.0750
       6    H2      21.117804   18.691361   25.425357 H          1 MOL1         0.0750
       7    C3      19.250124   19.827042   25.262249 C.3        1 MOL1        -0.1860
       8    H3      18.369377   20.006852   25.894224 H          1 MOL1         0.0752
       9    H4      19.760374   20.794687   25.159052 H          1 MOL1         0.0752
      10    C4      18.772794   19.337055   23.874417 C.3        1 MOL1        -0.1858
      11    H5      18.031974   20.050701   23.488573 H          1 MOL1         0.0752
      12    H6      18.251564   18.376091   23.983100 H          1 MOL1         0.0752
      13    C5      19.917848   19.195969   22.844882 C.3        1 MOL1        -0.1858
      14    H7      20.469408   20.143319   22.788104 H          1 MOL1         0.0752
      15    H8      20.628296   18.428276   23.177345 H          1 MOL1         0.0752
      16    C6      19.380914   18.815418   21.445633 C.3        1 MOL1        -0.1858
      17    H9      18.713617   19.606469   21.077089 H          1 MOL1         0.0752
      18    H10     18.768635   17.907460   21.532992 H          1 MOL1         0.0752
      19    C7      20.497857   18.556618   20.407776 C.3        1 MOL1        -0.1834
      20    H11     21.162340   17.759459   20.768759 H          1 MOL1         0.0752
      21    H12     20.039109   18.182499   19.482136 H          1 MOL1         0.0752
      22    C8      21.328853   19.815429   20.077255 C.3        1 MOL1        -0.2849
      23    H13     20.681878   20.636583   19.742236 H          1 MOL1         0.0764
      24    H14     21.898858   20.159552   20.949271 H          1 MOL1         0.0764
      25    H15     22.046618   19.601720   19.274736 H          1 MOL1         0.0764
@<TRIPOS>BOND
    1     1     2    1
    2     1     3    2
    3     1     4    1
    4     4     5    1
    5     4     6    1
    6     4     7    1
    7     7     8    1
    8     7     9    1
    9     7    10    1
   10    10    11    1
   11    10    12    1
   12    10    13    1
   13    13    14    1
   14    13    15    1
   15    13    16    1
   16    16    17    1
   17    16    18    1
   18    16    19    1
   19    19    20    1
   20    19    21    1
   21    19    22    1
   22    22    23    1
   23    22    24    1
   24    22    25    1
@<TRIPOS>SUBSTRUCTURE
       1 MOL1            1 RESIDUE      1      MOL     
@<SCITEGIC>MOL_PROPERTY
VM2 Rank
SciTegic.value.IntegerValue
12

@<SCITEGIC>MOL_PROPERTY
Conf_Id
SciTegic.value.IntegerValue
182

@<SCITEGIC>MOL_PROPERTY
Probability
SciTegic.value.DoubleValue
1.39

@<SCITEGIC>MOL_PROPERTY
Sum Probability
SciTegic.value.DoubleValue
70.67

@<SCITEGIC>MOL_PROPERTY
Delta G
SciTegic.value.DoubleValue
1.726

@<SCITEGIC>MOL_PROPERTY
G
SciTegic.value.DoubleValue
-6.236

@<SCITEGIC>MOL_PROPERTY
E
SciTegic.value.DoubleValue
-30.856

@<SCITEGIC>MOL_PROPERTY
-TS
SciTegic.value.DoubleValue
24.620

@<SCITEGIC>MOL_PROPERTY
U+W
SciTegic.value.DoubleValue
-51.423

@<SCITEGIC>MOL_PROPERTY
U
SciTegic.value.DoubleValue
7.651

@<SCITEGIC>MOL_PROPERTY
W
SciTegic.value.DoubleValue
-59.074

@<SCITEGIC>MOL_PROPERTY
W(PB)
SciTegic.value.DoubleValue
-61.560

@<SCITEGIC>MOL_PROPERTY
W(SA)
SciTegic.value.DoubleValue
2.486

@<SCITEGIC>MOL_PROPERTY
Valence
SciTegic.value.DoubleValue
8.550

@<SCITEGIC>MOL_PROPERTY
Coulomb
SciTegic.value.DoubleValue
-2.035

@<SCITEGIC>MOL_PROPERTY
VdW
SciTegic.value.DoubleValue
1.135

@<SCITEGIC>MOL_PROPERTY
VdW6
SciTegic.value.DoubleValue
-8.973

@<SCITEGIC>MOL_PROPERTY
VdW12
SciTegic.value.DoubleValue
10.108

@<SCITEGIC>MOL_PROPERTY
Bond
SciTegic.value.DoubleValue
0.188

@<SCITEGIC>MOL_PROPERTY
Angle
SciTegic.value.DoubleValue
2.738

@<SCITEGIC>MOL_PROPERTY
Pdih
SciTegic.value.DoubleValue
5.623

@<SCITEGIC>MOL_PROPERTY
Idih
SciTegic.value.DoubleValue
0.001

@<SCITEGIC>MOL_PROPERTY
Tether
SciTegic.value.DoubleValue
0.000

@<TRIPOS>MOLECULE
guest-8_vm2.mol2 : vm2 ligand conformer 13
          25          24           1
SMALL
USER_CHARGES
 
@<TRIPOS>ATOM
       1    C1      20.559252   19.082029   27.349279 C.2        1 MOL1         0.6168
       2    O1      21.571861   19.717673   27.566702 O.co2      1 MOL1        -0.6703
       3    O2      19.831203   18.655828   28.223944 O.co2      1 MOL1        -0.6703
       4    C2      20.167858   18.825084   25.898485 C.3        1 MOL1        -0.1963
       5    H1      19.645379   17.862138   25.852615 H          1 MOL1         0.0750
       6    H2      21.091445   18.722550   25.317801 H          1 MOL1         0.0750
       7    C3      19.273710   19.947799   25.310906 C.3        1 MOL1        -0.1860
       8    H3      18.405277   20.087704   25.969463 H          1 MOL1         0.0752
       9    H4      19.825234   20.898105   25.319123 H          1 MOL1         0.0752
      10    C4      18.767166   19.649553   23.879608 C.3        1 MOL1        -0.1858
      11    H5      18.053290   20.433783   23.592773 H          1 MOL1         0.0752
      12    H6      18.207877   18.703954   23.876690 H          1 MOL1         0.0752
      13    C5      19.898301   19.588623   22.826985 C.3        1 MOL1        -0.1858
      14    H7      20.486571   20.515418   22.866393 H          1 MOL1         0.0752
      15    H8      20.579715   18.763678   23.067335 H          1 MOL1         0.0752
      16    C6      19.337480   19.393713   21.399159 C.3        1 MOL1        -0.1858
      17    H9      18.607964   20.187913   21.189648 H          1 MOL1         0.0752
      18    H10     18.787908   18.444067   21.344100 H          1 MOL1         0.0752
      19    C7      20.425900   19.425891   20.300923 C.3        1 MOL1        -0.1834
      20    H11     19.935398   19.400786   19.318068 H          1 MOL1         0.0752
      21    H12     20.974168   20.376856   20.349662 H          1 MOL1         0.0752
      22    C8      21.420269   18.247807   20.390008 C.3        1 MOL1        -0.2849
      23    H13     20.891961   17.285635   20.375092 H          1 MOL1         0.0764
      24    H14     22.113672   18.265778   19.539265 H          1 MOL1         0.0764
      25    H15     22.019749   18.297718   21.307516 H          1 MOL1         0.0764
@<TRIPOS>BOND
    1     1     2    1
    2     1     3    2
    3     1     4    1
    4     4     5    1
    5     4     6    1
    6     4     7    1
    7     7     8    1
    8     7     9    1
    9     7    10    1
   10    10    11    1
   11    10    12    1
   12    10    13    1
   13    13    14    1
   14    13    15    1
   15    13    16    1
   16    16    17    1
   17    16    18    1
   18    16    19    1
   19    19    20    1
   20    19    21    1
   21    19    22    1
   22    22    23    1
   23    22    24    1
   24    22    25    1
@<TRIPOS>SUBSTRUCTURE
       1 MOL1            1 RESIDUE      1      MOL     
@<SCITEGIC>MOL_PROPERTY
VM2 Rank
SciTegic.value.IntegerValue
13

@<SCITEGIC>MOL_PROPERTY
Conf_Id
SciTegic.value.IntegerValue
879

@<SCITEGIC>MOL_PROPERTY
Probability
SciTegic.value.DoubleValue
1.38

@<SCITEGIC>MOL_PROPERTY
Sum Probability
SciTegic.value.DoubleValue
72.05

@<SCITEGIC>MOL_PROPERTY
Delta G
SciTegic.value.DoubleValue
1.733

@<SCITEGIC>MOL_PROPERTY
G
SciTegic.value.DoubleValue
-6.229

@<SCITEGIC>MOL_PROPERTY
E
SciTegic.value.DoubleValue
-30.844

@<SCITEGIC>MOL_PROPERTY
-TS
SciTegic.value.DoubleValue
24.615

@<SCITEGIC>MOL_PROPERTY
U+W
SciTegic.value.DoubleValue
-51.412

@<SCITEGIC>MOL_PROPERTY
U
SciTegic.value.DoubleValue
7.701

@<SCITEGIC>MOL_PROPERTY
W
SciTegic.value.DoubleValue
-59.113

@<SCITEGIC>MOL_PROPERTY
W(PB)
SciTegic.value.DoubleValue
-61.599

@<SCITEGIC>MOL_PROPERTY
W(SA)
SciTegic.value.DoubleValue
2.486

@<SCITEGIC>MOL_PROPERTY
Valence
SciTegic.value.DoubleValue
8.550

@<SCITEGIC>MOL_PROPERTY
Coulomb
SciTegic.value.DoubleValue
-1.988

@<SCITEGIC>MOL_PROPERTY
VdW
SciTegic.value.DoubleValue
1.139

@<SCITEGIC>MOL_PROPERTY
VdW6
SciTegic.value.DoubleValue
-8.988

@<SCITEGIC>MOL_PROPERTY
VdW12
SciTegic.value.DoubleValue
10.127

@<SCITEGIC>MOL_PROPERTY
Bond
SciTegic.value.DoubleValue
0.191

@<SCITEGIC>MOL_PROPERTY
Angle
SciTegic.value.DoubleValue
2.738

@<SCITEGIC>MOL_PROPERTY
Pdih
SciTegic.value.DoubleValue
5.621

@<SCITEGIC>MOL_PROPERTY
Idih
SciTegic.value.DoubleValue
0.001

@<SCITEGIC>MOL_PROPERTY
Tether
SciTegic.value.DoubleValue
0.000

@<TRIPOS>MOLECULE
guest-8_vm2.mol2 : vm2 ligand conformer 14
          25          24           1
SMALL
USER_CHARGES
 
@<TRIPOS>ATOM
       1    C1      20.213055   19.037980   27.483838 C.2        1 MOL1         0.6168
       2    O1      21.260991   19.116869   28.094042 O.co2      1 MOL1        -0.6703
       3    O2      19.120354   19.097777   28.012176 O.co2      1 MOL1        -0.6703
       4    C2      20.272643   18.878538   25.968910 C.3        1 MOL1        -0.1963
       5    H1      19.410921   18.274633   25.663004 H          1 MOL1         0.0750
       6    H2      21.175189   18.306752   25.722247 H          1 MOL1         0.0750
       7    C3      20.279776   20.237926   25.222615 C.3        1 MOL1        -0.1860
       8    H3      19.351819   20.782977   25.444250 H          1 MOL1         0.0752
       9    H4      21.101594   20.852413   25.615609 H          1 MOL1         0.0752
      10    C4      20.452201   20.098965   23.691354 C.3        1 MOL1        -0.1858
      11    H5      21.392416   19.572517   23.481363 H          1 MOL1         0.0752
      12    H6      20.552730   21.103541   23.258401 H          1 MOL1         0.0752
      13    C5      19.270478   19.370009   23.006214 C.3        1 MOL1        -0.1858
      14    H7      19.231721   18.323111   23.334334 H          1 MOL1         0.0752
      15    H8      18.328595   19.833964   23.329158 H          1 MOL1         0.0752
      16    C6      19.335104   19.414632   21.460955 C.3        1 MOL1        -0.1858
      17    H9      19.358434   20.459784   21.123349 H          1 MOL1         0.0752
      18    H10     18.408934   18.979886   21.060860 H          1 MOL1         0.0752
      19    C7      20.543193   18.650420   20.873680 C.3        1 MOL1        -0.1834
      20    H11     21.481318   19.116850   21.202098 H          1 MOL1         0.0752
      21    H12     20.548371   17.618791   21.251726 H          1 MOL1         0.0752
      22    C8      20.505206   18.630884   19.332216 C.3        1 MOL1        -0.2849
      23    H13     19.595757   18.135741   18.967425 H          1 MOL1         0.0764
      24    H14     20.526919   19.650711   18.926206 H          1 MOL1         0.0764
      25    H15     21.370655   18.087778   18.930867 H          1 MOL1         0.0764
@<TRIPOS>BOND
    1     1     2    1
    2     1     3    2
    3     1     4    1
    4     4     5    1
    5     4     6    1
    6     4     7    1
    7     7     8    1
    8     7     9    1
    9     7    10    1
   10    10    11    1
   11    10    12    1
   12    10    13    1
   13    13    14    1
   14    13    15    1
   15    13    16    1
   16    16    17    1
   17    16    18    1
   18    16    19    1
   19    19    20    1
   20    19    21    1
   21    19    22    1
   22    22    23    1
   23    22    24    1
   24    22    25    1
@<TRIPOS>SUBSTRUCTURE
       1 MOL1            1 RESIDUE      1      MOL     
@<SCITEGIC>MOL_PROPERTY
VM2 Rank
SciTegic.value.IntegerValue
14

@<SCITEGIC>MOL_PROPERTY
Conf_Id
SciTegic.value.IntegerValue
183

@<SCITEGIC>MOL_PROPERTY
Probability
SciTegic.value.DoubleValue
1.33

@<SCITEGIC>MOL_PROPERTY
Sum Probability
SciTegic.value.DoubleValue
73.38

@<SCITEGIC>MOL_PROPERTY
Delta G
SciTegic.value.DoubleValue
1.754

@<SCITEGIC>MOL_PROPERTY
G
SciTegic.value.DoubleValue
-6.208

@<SCITEGIC>MOL_PROPERTY
E
SciTegic.value.DoubleValue
-30.844

@<SCITEGIC>MOL_PROPERTY
-TS
SciTegic.value.DoubleValue
24.636

@<SCITEGIC>MOL_PROPERTY
U+W
SciTegic.value.DoubleValue
-51.412

@<SCITEGIC>MOL_PROPERTY
U
SciTegic.value.DoubleValue
7.389

@<SCITEGIC>MOL_PROPERTY
W
SciTegic.value.DoubleValue
-58.801

@<SCITEGIC>MOL_PROPERTY
W(PB)
SciTegic.value.DoubleValue
-61.267

@<SCITEGIC>MOL_PROPERTY
W(SA)
SciTegic.value.DoubleValue
2.466

@<SCITEGIC>MOL_PROPERTY
Valence
SciTegic.value.DoubleValue
8.557

@<SCITEGIC>MOL_PROPERTY
Coulomb
SciTegic.value.DoubleValue
-2.278

@<SCITEGIC>MOL_PROPERTY
VdW
SciTegic.value.DoubleValue
1.110

@<SCITEGIC>MOL_PROPERTY
VdW6
SciTegic.value.DoubleValue
-9.029

@<SCITEGIC>MOL_PROPERTY
VdW12
SciTegic.value.DoubleValue
10.139

@<SCITEGIC>MOL_PROPERTY
Bond
SciTegic.value.DoubleValue
0.192

@<SCITEGIC>MOL_PROPERTY
Angle
SciTegic.value.DoubleValue
2.717

@<SCITEGIC>MOL_PROPERTY
Pdih
SciTegic.value.DoubleValue
5.648

@<SCITEGIC>MOL_PROPERTY
Idih
SciTegic.value.DoubleValue
0.001

@<SCITEGIC>MOL_PROPERTY
Tether
SciTegic.value.DoubleValue
0.000

@<TRIPOS>MOLECULE
guest-8_vm2.mol2 : vm2 ligand conformer 15
          25          24           1
SMALL
USER_CHARGES
 
@<TRIPOS>ATOM
       1    C1      20.130033   19.338273   27.829253 C.2        1 MOL1         0.6168
       2    O1      21.019369   20.166701   27.866561 O.co2      1 MOL1        -0.6703
       3    O2      19.610120   18.877206   28.825860 O.co2      1 MOL1        -0.6703
       4    C2      19.620382   18.832762   26.478656 C.3        1 MOL1        -0.1963
       5    H1      18.543305   19.033515   26.439793 H          1 MOL1         0.0750
       6    H2      19.744458   17.743530   26.469352 H          1 MOL1         0.0750
       7    C3      20.314418   19.450536   25.235642 C.3        1 MOL1        -0.1860
       8    H3      20.191720   20.542363   25.254704 H          1 MOL1         0.0752
       9    H4      21.393953   19.251169   25.284248 H          1 MOL1         0.0752
      10    C4      19.740692   18.886179   23.917694 C.3        1 MOL1        -0.1858
      11    H5      18.661424   19.086597   23.871334 H          1 MOL1         0.0752
      12    H6      19.864429   17.794600   23.900888 H          1 MOL1         0.0752
      13    C5      20.432483   19.502069   22.682546 C.3        1 MOL1        -0.1858
      14    H7      20.308881   20.593652   22.699068 H          1 MOL1         0.0752
      15    H8      21.511771   19.301770   22.728608 H          1 MOL1         0.0752
      16    C6      19.859290   18.938222   21.364426 C.3        1 MOL1        -0.1858
      17    H9      18.780006   19.138460   21.318130 H          1 MOL1         0.0752
      18    H10     19.982883   17.846646   21.347644 H          1 MOL1         0.0752
      19    C7      20.550672   19.553800   20.129754 C.3        1 MOL1        -0.1834
      20    H11     20.427510   20.645664   20.142131 H          1 MOL1         0.0752
      21    H12     21.630375   19.353859   20.171636 H          1 MOL1         0.0752
      22    C8      19.975540   18.988253   18.815607 C.3        1 MOL1        -0.2849
      23    H13     18.901823   19.201904   18.732646 H          1 MOL1         0.0764
      24    H14     20.478197   19.436520   17.948727 H          1 MOL1         0.0764
      25    H15     20.113757   17.900385   18.762360 H          1 MOL1         0.0764
@<TRIPOS>BOND
    1     1     2    1
    2     1     3    2
    3     1     4    1
    4     4     5    1
    5     4     6    1
    6     4     7    1
    7     7     8    1
    8     7     9    1
    9     7    10    1
   10    10    11    1
   11    10    12    1
   12    10    13    1
   13    13    14    1
   14    13    15    1
   15    13    16    1
   16    16    17    1
   17    16    18    1
   18    16    19    1
   19    19    20    1
   20    19    21    1
   21    19    22    1
   22    22    23    1
   23    22    24    1
   24    22    25    1
@<TRIPOS>SUBSTRUCTURE
       1 MOL1            1 RESIDUE      1      MOL     
@<SCITEGIC>MOL_PROPERTY
VM2 Rank
SciTegic.value.IntegerValue
15

@<SCITEGIC>MOL_PROPERTY
Conf_Id
SciTegic.value.IntegerValue
0

@<SCITEGIC>MOL_PROPERTY
Probability
SciTegic.value.DoubleValue
1.20

@<SCITEGIC>MOL_PROPERTY
Sum Probability
SciTegic.value.DoubleValue
74.57

@<SCITEGIC>MOL_PROPERTY
Delta G
SciTegic.value.DoubleValue
1.818

@<SCITEGIC>MOL_PROPERTY
G
SciTegic.value.DoubleValue
-6.144

@<SCITEGIC>MOL_PROPERTY
E
SciTegic.value.DoubleValue
-31.062

@<SCITEGIC>MOL_PROPERTY
-TS
SciTegic.value.DoubleValue
24.917

@<SCITEGIC>MOL_PROPERTY
U+W
SciTegic.value.DoubleValue
-51.629

@<SCITEGIC>MOL_PROPERTY
U
SciTegic.value.DoubleValue
6.586

@<SCITEGIC>MOL_PROPERTY
W
SciTegic.value.DoubleValue
-58.216

@<SCITEGIC>MOL_PROPERTY
W(PB)
SciTegic.value.DoubleValue
-60.757

@<SCITEGIC>MOL_PROPERTY
W(SA)
SciTegic.value.DoubleValue
2.541

@<SCITEGIC>MOL_PROPERTY
Valence
SciTegic.value.DoubleValue
8.027

@<SCITEGIC>MOL_PROPERTY
Coulomb
SciTegic.value.DoubleValue
-2.892

@<SCITEGIC>MOL_PROPERTY
VdW
SciTegic.value.DoubleValue
1.451

@<SCITEGIC>MOL_PROPERTY
VdW6
SciTegic.value.DoubleValue
-7.931

@<SCITEGIC>MOL_PROPERTY
VdW12
SciTegic.value.DoubleValue
9.383

@<SCITEGIC>MOL_PROPERTY
Bond
SciTegic.value.DoubleValue
0.149

@<SCITEGIC>MOL_PROPERTY
Angle
SciTegic.value.DoubleValue
2.726

@<SCITEGIC>MOL_PROPERTY
Pdih
SciTegic.value.DoubleValue
5.152

@<SCITEGIC>MOL_PROPERTY
Idih
SciTegic.value.DoubleValue
0.000

@<SCITEGIC>MOL_PROPERTY
Tether
SciTegic.value.DoubleValue
0.000

@<TRIPOS>MOLECULE
guest-8_vm2.mol2 : vm2 ligand conformer 16
          25          24           1
SMALL
USER_CHARGES
 
@<TRIPOS>ATOM
       1    C1      20.152262   19.650820   27.426029 C.2        1 MOL1         0.6168
       2    O1      21.197863   20.201450   27.709193 O.co2      1 MOL1        -0.6703
       3    O2      19.077429   19.962080   27.899871 O.co2      1 MOL1        -0.6703
       4    C2      20.188016   18.519916   26.404276 C.3        1 MOL1        -0.1963
       5    H1      19.401115   17.801626   26.663874 H          1 MOL1         0.0750
       6    H2      21.148219   17.999891   26.505089 H          1 MOL1         0.0750
       7    C3      20.000217   19.017558   24.949880 C.3        1 MOL1        -0.1860
       8    H3      19.039247   19.543972   24.867714 H          1 MOL1         0.0752
       9    H4      20.786470   19.748913   24.720622 H          1 MOL1         0.0752
      10    C4      20.044915   17.852161   23.934533 C.3        1 MOL1        -0.1858
      11    H5      19.301616   17.096796   24.224101 H          1 MOL1         0.0752
      12    H6      21.024842   17.357639   23.980685 H          1 MOL1         0.0752
      13    C5      19.755053   18.292888   22.480039 C.3        1 MOL1        -0.1858
      14    H7      19.694392   17.395660   21.849261 H          1 MOL1         0.0752
      15    H8      18.767814   18.771354   22.438082 H          1 MOL1         0.0752
      16    C6      20.830409   19.244347   21.900481 C.3        1 MOL1        -0.1858
      17    H9      21.823524   18.804030   22.063214 H          1 MOL1         0.0752
      18    H10     20.819168   20.199613   22.441320 H          1 MOL1         0.0752
      19    C7      20.654542   19.516865   20.388423 C.3        1 MOL1        -0.1834
      20    H11     21.510396   20.108009   20.034486 H          1 MOL1         0.0752
      21    H12     20.682441   18.568403   19.834428 H          1 MOL1         0.0752
      22    C8      19.352295   20.275915   20.053276 C.3        1 MOL1        -0.2849
      23    H13     19.289755   21.216238   20.616310 H          1 MOL1         0.0764
      24    H14     19.313918   20.519110   18.983574 H          1 MOL1         0.0764
      25    H15     18.466041   19.673655   20.289187 H          1 MOL1         0.0764
@<TRIPOS>BOND
    1     1     2    1
    2     1     3    2
    3     1     4    1
    4     4     5    1
    5     4     6    1
    6     4     7    1
    7     7     8    1
    8     7     9    1
    9     7    10    1
   10    10    11    1
   11    10    12    1
   12    10    13    1
   13    13    14    1
   14    13    15    1
   15    13    16    1
   16    16    17    1
   17    16    18    1
   18    16    19    1
   19    19    20    1
   20    19    21    1
   21    19    22    1
   22    22    23    1
   23    22    24    1
   24    22    25    1
@<TRIPOS>SUBSTRUCTURE
       1 MOL1            1 RESIDUE      1      MOL     
@<SCITEGIC>MOL_PROPERTY
VM2 Rank
SciTegic.value.IntegerValue
16

@<SCITEGIC>MOL_PROPERTY
Conf_Id
SciTegic.value.IntegerValue
781

@<SCITEGIC>MOL_PROPERTY
Probability
SciTegic.value.DoubleValue
1.19

@<SCITEGIC>MOL_PROPERTY
Sum Probability
SciTegic.value.DoubleValue
75.76

@<SCITEGIC>MOL_PROPERTY
Delta G
SciTegic.value.DoubleValue
1.821

@<SCITEGIC>MOL_PROPERTY
G
SciTegic.value.DoubleValue
-6.141

@<SCITEGIC>MOL_PROPERTY
E
SciTegic.value.DoubleValue
-30.782

@<SCITEGIC>MOL_PROPERTY
-TS
SciTegic.value.DoubleValue
24.641

@<SCITEGIC>MOL_PROPERTY
U+W
SciTegic.value.DoubleValue
-51.350

@<SCITEGIC>MOL_PROPERTY
U
SciTegic.value.DoubleValue
7.838

@<SCITEGIC>MOL_PROPERTY
W
SciTegic.value.DoubleValue
-59.188

@<SCITEGIC>MOL_PROPERTY
W(PB)
SciTegic.value.DoubleValue
-61.681

@<SCITEGIC>MOL_PROPERTY
W(SA)
SciTegic.value.DoubleValue
2.492

@<SCITEGIC>MOL_PROPERTY
Valence
SciTegic.value.DoubleValue
8.536

@<SCITEGIC>MOL_PROPERTY
Coulomb
SciTegic.value.DoubleValue
-1.810

@<SCITEGIC>MOL_PROPERTY
VdW
SciTegic.value.DoubleValue
1.112

@<SCITEGIC>MOL_PROPERTY
VdW6
SciTegic.value.DoubleValue
-8.987

@<SCITEGIC>MOL_PROPERTY
VdW12
SciTegic.value.DoubleValue
10.099

@<SCITEGIC>MOL_PROPERTY
Bond
SciTegic.value.DoubleValue
0.183

@<SCITEGIC>MOL_PROPERTY
Angle
SciTegic.value.DoubleValue
2.700

@<SCITEGIC>MOL_PROPERTY
Pdih
SciTegic.value.DoubleValue
5.652

@<SCITEGIC>MOL_PROPERTY
Idih
SciTegic.value.DoubleValue
0.001

@<SCITEGIC>MOL_PROPERTY
Tether
SciTegic.value.DoubleValue
0.000

@<TRIPOS>MOLECULE
guest-8_vm2.mol2 : vm2 ligand conformer 17
          25          24           1
SMALL
USER_CHARGES
 
@<TRIPOS>ATOM
       1    C1      20.152180   19.475455   27.576004 C.2        1 MOL1         0.6168
       2    O1      21.235981   19.874371   27.954099 O.co2      1 MOL1        -0.6703
       3    O2      19.355006   18.907935   28.296546 O.co2      1 MOL1        -0.6703
       4    C2      19.781822   19.676679   26.110912 C.3        1 MOL1        -0.1963
       5    H1      20.238250   20.615716   25.778844 H          1 MOL1         0.0750
       6    H2      18.694344   19.803147   26.049602 H          1 MOL1         0.0750
       7    C3      20.235209   18.497621   25.210985 C.3        1 MOL1        -0.1860
       8    H3      21.330163   18.411367   25.241907 H          1 MOL1         0.0752
       9    H4      19.839066   17.562894   25.631506 H          1 MOL1         0.0752
      10    C4      19.761034   18.618633   23.742885 C.3        1 MOL1        -0.1858
      11    H5      18.666986   18.713877   23.716304 H          1 MOL1         0.0752
      12    H6      20.004373   17.679507   23.230130 H          1 MOL1         0.0752
      13    C5      20.407607   19.803291   22.983297 C.3        1 MOL1        -0.1858
      14    H7      20.165359   20.742083   23.497081 H          1 MOL1         0.0752
      15    H8      21.501625   19.707575   23.008708 H          1 MOL1         0.0752
      16    C6      19.932646   19.927567   21.515657 C.3        1 MOL1        -0.1858
      17    H9      20.322568   20.868425   21.103759 H          1 MOL1         0.0752
      18    H10     18.837328   20.007762   21.488663 H          1 MOL1         0.0752
      19    C7      20.392974   18.759572   20.614024 C.3        1 MOL1        -0.1834
      20    H11     21.483227   18.643634   20.685472 H          1 MOL1         0.0752
      21    H12     19.947059   17.816926   20.956922 H          1 MOL1         0.0752
      22    C8      19.998542   18.992875   19.141592 C.3        1 MOL1        -0.2849
      23    H13     18.909572   19.085549   19.037040 H          1 MOL1         0.0764
      24    H14     20.459850   19.909467   18.751206 H          1 MOL1         0.0764
      25    H15     20.329037   18.154216   18.515109 H          1 MOL1         0.0764
@<TRIPOS>BOND
    1     1     2    1
    2     1     3    2
    3     1     4    1
    4     4     5    1
    5     4     6    1
    6     4     7    1
    7     7     8    1
    8     7     9    1
    9     7    10    1
   10    10    11    1
   11    10    12    1
   12    10    13    1
   13    13    14    1
   14    13    15    1
   15    13    16    1
   16    16    17    1
   17    16    18    1
   18    16    19    1
   19    19    20    1
   20    19    21    1
   21    19    22    1
   22    22    23    1
   23    22    24    1
   24    22    25    1
@<TRIPOS>SUBSTRUCTURE
       1 MOL1            1 RESIDUE      1      MOL     
@<SCITEGIC>MOL_PROPERTY
VM2 Rank
SciTegic.value.IntegerValue
17

@<SCITEGIC>MOL_PROPERTY
Conf_Id
SciTegic.value.IntegerValue
576

@<SCITEGIC>MOL_PROPERTY
Probability
SciTegic.value.DoubleValue
1.19

@<SCITEGIC>MOL_PROPERTY
Sum Probability
SciTegic.value.DoubleValue
76.95

@<SCITEGIC>MOL_PROPERTY
Delta G
SciTegic.value.DoubleValue
1.823

@<SCITEGIC>MOL_PROPERTY
G
SciTegic.value.DoubleValue
-6.140

@<SCITEGIC>MOL_PROPERTY
E
SciTegic.value.DoubleValue
-30.689

@<SCITEGIC>MOL_PROPERTY
-TS
SciTegic.value.DoubleValue
24.549

@<SCITEGIC>MOL_PROPERTY
U+W
SciTegic.value.DoubleValue
-51.256

@<SCITEGIC>MOL_PROPERTY
U
SciTegic.value.DoubleValue
7.507

@<SCITEGIC>MOL_PROPERTY
W
SciTegic.value.DoubleValue
-58.763

@<SCITEGIC>MOL_PROPERTY
W(PB)
SciTegic.value.DoubleValue
-61.243

@<SCITEGIC>MOL_PROPERTY
W(SA)
SciTegic.value.DoubleValue
2.480

@<SCITEGIC>MOL_PROPERTY
Valence
SciTegic.value.DoubleValue
8.668

@<SCITEGIC>MOL_PROPERTY
Coulomb
SciTegic.value.DoubleValue
-2.355

@<SCITEGIC>MOL_PROPERTY
VdW
SciTegic.value.DoubleValue
1.194

@<SCITEGIC>MOL_PROPERTY
VdW6
SciTegic.value.DoubleValue
-8.929

@<SCITEGIC>MOL_PROPERTY
VdW12
SciTegic.value.DoubleValue
10.122

@<SCITEGIC>MOL_PROPERTY
Bond
SciTegic.value.DoubleValue
0.201

@<SCITEGIC>MOL_PROPERTY
Angle
SciTegic.value.DoubleValue
2.816

@<SCITEGIC>MOL_PROPERTY
Pdih
SciTegic.value.DoubleValue
5.651

@<SCITEGIC>MOL_PROPERTY
Idih
SciTegic.value.DoubleValue
0.001

@<SCITEGIC>MOL_PROPERTY
Tether
SciTegic.value.DoubleValue
0.000

@<TRIPOS>MOLECULE
guest-8_vm2.mol2 : vm2 ligand conformer 18
          25          24           1
SMALL
USER_CHARGES
 
@<TRIPOS>ATOM
       1    C1      19.615277   19.434396   27.050689 C.2        1 MOL1         0.6168
       2    O1      20.148828   19.281213   28.131753 O.co2      1 MOL1        -0.6703
       3    O2      18.644637   20.143765   26.873651 O.co2      1 MOL1        -0.6703
       4    C2      20.210557   18.714251   25.846193 C.3        1 MOL1        -0.1963
       5    H1      19.387506   18.465924   25.166456 H          1 MOL1         0.0750
       6    H2      20.643667   17.768805   26.193713 H          1 MOL1         0.0750
       7    C3      21.285399   19.558462   25.113758 C.3        1 MOL1        -0.1860
       8    H3      20.831491   20.485394   24.738841 H          1 MOL1         0.0752
       9    H4      22.047723   19.867775   25.842076 H          1 MOL1         0.0752
      10    C4      21.986630   18.801238   23.957877 C.3        1 MOL1        -0.1858
      11    H5      22.533555   17.944594   24.374771 H          1 MOL1         0.0752
      12    H6      22.746796   19.459304   23.515297 H          1 MOL1         0.0752
      13    C5      21.048826   18.292295   22.834253 C.3        1 MOL1        -0.1858
      14    H7      21.659315   17.767609   22.086762 H          1 MOL1         0.0752
      15    H8      20.352785   17.544459   23.236132 H          1 MOL1         0.0752
      16    C6      20.256306   19.419746   22.133294 C.3        1 MOL1        -0.1858
      17    H9      20.952742   20.189361   21.773618 H          1 MOL1         0.0752
      18    H10     19.583492   19.905545   22.852230 H          1 MOL1         0.0752
      19    C7      19.425295   18.881903   20.949363 C.3        1 MOL1        -0.1834
      20    H11     20.089364   18.399643   20.218733 H          1 MOL1         0.0752
      21    H12     18.729169   18.110324   21.306450 H          1 MOL1         0.0752
      22    C8      18.631245   20.006731   20.255169 C.3        1 MOL1        -0.2849
      23    H13     19.305871   20.777988   19.860967 H          1 MOL1         0.0764
      24    H14     18.046564   19.606902   19.416528 H          1 MOL1         0.0764
      25    H15     17.934973   20.485909   20.955882 H          1 MOL1         0.0764
@<TRIPOS>BOND
    1     1     2    1
    2     1     3    2
    3     1     4    1
    4     4     5    1
    5     4     6    1
    6     4     7    1
    7     7     8    1
    8     7     9    1
    9     7    10    1
   10    10    11    1
   11    10    12    1
   12    10    13    1
   13    13    14    1
   14    13    15    1
   15    13    16    1
   16    16    17    1
   17    16    18    1
   18    16    19    1
   19    19    20    1
   20    19    21    1
   21    19    22    1
   22    22    23    1
   23    22    24    1
   24    22    25    1
@<TRIPOS>SUBSTRUCTURE
       1 MOL1            1 RESIDUE      1      MOL     
@<SCITEGIC>MOL_PROPERTY
VM2 Rank
SciTegic.value.IntegerValue
18

@<SCITEGIC>MOL_PROPERTY
Conf_Id
SciTegic.value.IntegerValue
1048

@<SCITEGIC>MOL_PROPERTY
Probability
SciTegic.value.DoubleValue
1.18

@<SCITEGIC>MOL_PROPERTY
Sum Probability
SciTegic.value.DoubleValue
78.13

@<SCITEGIC>MOL_PROPERTY
Delta G
SciTegic.value.DoubleValue
1.826

@<SCITEGIC>MOL_PROPERTY
G
SciTegic.value.DoubleValue
-6.136

@<SCITEGIC>MOL_PROPERTY
E
SciTegic.value.DoubleValue
-30.979

@<SCITEGIC>MOL_PROPERTY
-TS
SciTegic.value.DoubleValue
24.844

@<SCITEGIC>MOL_PROPERTY
U+W
SciTegic.value.DoubleValue
-51.547

@<SCITEGIC>MOL_PROPERTY
U
SciTegic.value.DoubleValue
8.114

@<SCITEGIC>MOL_PROPERTY
W
SciTegic.value.DoubleValue
-59.661

@<SCITEGIC>MOL_PROPERTY
W(PB)
SciTegic.value.DoubleValue
-62.134

@<SCITEGIC>MOL_PROPERTY
W(SA)
SciTegic.value.DoubleValue
2.473

@<SCITEGIC>MOL_PROPERTY
Valence
SciTegic.value.DoubleValue
8.487

@<SCITEGIC>MOL_PROPERTY
Coulomb
SciTegic.value.DoubleValue
-1.260

@<SCITEGIC>MOL_PROPERTY
VdW
SciTegic.value.DoubleValue
0.887

@<SCITEGIC>MOL_PROPERTY
VdW6
SciTegic.value.DoubleValue
-9.447

@<SCITEGIC>MOL_PROPERTY
VdW12
SciTegic.value.DoubleValue
10.334

@<SCITEGIC>MOL_PROPERTY
Bond
SciTegic.value.DoubleValue
0.199

@<SCITEGIC>MOL_PROPERTY
Angle
SciTegic.value.DoubleValue
2.915

@<SCITEGIC>MOL_PROPERTY
Pdih
SciTegic.value.DoubleValue
5.373

@<SCITEGIC>MOL_PROPERTY
Idih
SciTegic.value.DoubleValue
0.001

@<SCITEGIC>MOL_PROPERTY
Tether
SciTegic.value.DoubleValue
0.000

@<TRIPOS>MOLECULE
guest-8_vm2.mol2 : vm2 ligand conformer 19
          25          24           1
SMALL
USER_CHARGES
 
@<TRIPOS>ATOM
       1    C1      20.273598   18.984748   27.436469 C.2        1 MOL1         0.6168
       2    O1      21.444688   18.846471   27.729870 O.co2      1 MOL1        -0.6703
       3    O2      19.374927   18.329035   27.925454 O.co2      1 MOL1        -0.6703
       4    C2      19.913928   20.024341   26.380967 C.3        1 MOL1        -0.1963
       5    H1      20.628576   20.852280   26.460803 H          1 MOL1         0.0750
       6    H2      18.922915   20.426557   26.623165 H          1 MOL1         0.0750
       7    C3      19.921568   19.448920   24.943254 C.3        1 MOL1        -0.1860
       8    H3      20.916413   19.035164   24.731778 H          1 MOL1         0.0752
       9    H4      19.208342   18.615306   24.882243 H          1 MOL1         0.0752
      10    C4      19.558105   20.524147   23.893085 C.3        1 MOL1        -0.1858
      11    H5      20.300487   21.333551   23.919014 H          1 MOL1         0.0752
      12    H6      18.594635   20.977288   24.163839 H          1 MOL1         0.0752
      13    C5      19.450285   19.966032   22.454094 C.3        1 MOL1        -0.1858
      14    H7      18.695259   19.169305   22.431853 H          1 MOL1         0.0752
      15    H8      19.080836   20.764926   21.796937 H          1 MOL1         0.0752
      16    C6      20.795170   19.437623   21.897660 C.3        1 MOL1        -0.1858
      17    H9      21.118121   18.556225   22.466880 H          1 MOL1         0.0752
      18    H10     21.568550   20.204234   22.041984 H          1 MOL1         0.0752
      19    C7      20.735168   19.075663   20.395360 C.3        1 MOL1        -0.1834
      20    H11     20.430443   19.956225   19.813104 H          1 MOL1         0.0752
      21    H12     21.746374   18.813509   20.054851 H          1 MOL1         0.0752
      22    C8      19.785563   17.897020   20.089787 C.3        1 MOL1        -0.2849
      23    H13     19.841360   17.624149   19.028040 H          1 MOL1         0.0764
      24    H14     20.054965   17.012123   20.680977 H          1 MOL1         0.0764
      25    H15     18.742670   18.155346   20.312183 H          1 MOL1         0.0764
@<TRIPOS>BOND
    1     1     2    1
    2     1     3    2
    3     1     4    1
    4     4     5    1
    5     4     6    1
    6     4     7    1
    7     7     8    1
    8     7     9    1
    9     7    10    1
   10    10    11    1
   11    10    12    1
   12    10    13    1
   13    13    14    1
   14    13    15    1
   15    13    16    1
   16    16    17    1
   17    16    18    1
   18    16    19    1
   19    19    20    1
   20    19    21    1
   21    19    22    1
   22    22    23    1
   23    22    24    1
   24    22    25    1
@<TRIPOS>SUBSTRUCTURE
       1 MOL1            1 RESIDUE      1      MOL     
@<SCITEGIC>MOL_PROPERTY
VM2 Rank
SciTegic.value.IntegerValue
19

@<SCITEGIC>MOL_PROPERTY
Conf_Id
SciTegic.value.IntegerValue
268

@<SCITEGIC>MOL_PROPERTY
Probability
SciTegic.value.DoubleValue
1.16

@<SCITEGIC>MOL_PROPERTY
Sum Probability
SciTegic.value.DoubleValue
79.28

@<SCITEGIC>MOL_PROPERTY
Delta G
SciTegic.value.DoubleValue
1.838

@<SCITEGIC>MOL_PROPERTY
G
SciTegic.value.DoubleValue
-6.124

@<SCITEGIC>MOL_PROPERTY
E
SciTegic.value.DoubleValue
-30.766

@<SCITEGIC>MOL_PROPERTY
-TS
SciTegic.value.DoubleValue
24.642

@<SCITEGIC>MOL_PROPERTY
U+W
SciTegic.value.DoubleValue
-51.333

@<SCITEGIC>MOL_PROPERTY
U
SciTegic.value.DoubleValue
7.838

@<SCITEGIC>MOL_PROPERTY
W
SciTegic.value.DoubleValue
-59.172

@<SCITEGIC>MOL_PROPERTY
W(PB)
SciTegic.value.DoubleValue
-61.674

@<SCITEGIC>MOL_PROPERTY
W(SA)
SciTegic.value.DoubleValue
2.503

@<SCITEGIC>MOL_PROPERTY
Valence
SciTegic.value.DoubleValue
8.536

@<SCITEGIC>MOL_PROPERTY
Coulomb
SciTegic.value.DoubleValue
-1.810

@<SCITEGIC>MOL_PROPERTY
VdW
SciTegic.value.DoubleValue
1.112

@<SCITEGIC>MOL_PROPERTY
VdW6
SciTegic.value.DoubleValue
-8.988

@<SCITEGIC>MOL_PROPERTY
VdW12
SciTegic.value.DoubleValue
10.100

@<SCITEGIC>MOL_PROPERTY
Bond
SciTegic.value.DoubleValue
0.183

@<SCITEGIC>MOL_PROPERTY
Angle
SciTegic.value.DoubleValue
2.701

@<SCITEGIC>MOL_PROPERTY
Pdih
SciTegic.value.DoubleValue
5.652

@<SCITEGIC>MOL_PROPERTY
Idih
SciTegic.value.DoubleValue
0.001

@<SCITEGIC>MOL_PROPERTY
Tether
SciTegic.value.DoubleValue
0.000

@<TRIPOS>MOLECULE
guest-8_vm2.mol2 : vm2 ligand conformer 20
          25          24           1
SMALL
USER_CHARGES
 
@<TRIPOS>ATOM
       1    C1      20.671116   19.501662   27.038311 C.2        1 MOL1         0.6168
       2    O1      21.539255   20.328468   26.839781 O.co2      1 MOL1        -0.6703
       3    O2      20.186768   19.283389   28.131291 O.co2      1 MOL1        -0.6703
       4    C2      20.144310   18.709964   25.846899 C.3        1 MOL1        -0.1963
       5    H1      19.842795   17.717743   26.203001 H          1 MOL1         0.0750
       6    H2      20.976282   18.567021   25.147964 H          1 MOL1         0.0750
       7    C3      18.954406   19.409872   25.140714 C.3        1 MOL1        -0.1860
       8    H3      18.175981   19.620951   25.886876 H          1 MOL1         0.0752
       9    H4      19.278223   20.386393   24.756855 H          1 MOL1         0.0752
      10    C4      18.328508   18.568147   24.000133 C.3        1 MOL1        -0.1858
      11    H5      17.481013   19.123820   23.576151 H          1 MOL1         0.0752
      12    H6      17.904429   17.649627   24.428201 H          1 MOL1         0.0752
      13    C5      19.297198   18.180707   22.854460 C.3        1 MOL1        -0.1858
      14    H7      20.091477   17.527686   23.239070 H          1 MOL1         0.0752
      15    H8      18.741144   17.581855   22.120353 H          1 MOL1         0.0752
      16    C6      19.924084   19.398594   22.137283 C.3        1 MOL1        -0.1858
      17    H9      20.546219   19.966725   22.841360 H          1 MOL1         0.0752
      18    H10     19.127629   20.073233   21.794911 H          1 MOL1         0.0752
      19    C7      20.789168   18.968859   20.933742 C.3        1 MOL1        -0.1834
      20    H11     21.585441   18.292151   21.273524 H          1 MOL1         0.0752
      21    H12     20.174968   18.405415   20.217730 H          1 MOL1         0.0752
      22    C8      21.418186   20.184339   20.223386 C.3        1 MOL1        -0.2849
      23    H13     22.064039   20.748751   20.908748 H          1 MOL1         0.0764
      24    H14     22.029413   19.860735   19.370908 H          1 MOL1         0.0764
      25    H15     20.642426   20.863416   19.846021 H          1 MOL1         0.0764
@<TRIPOS>BOND
    1     1     2    1
    2     1     3    2
    3     1     4    1
    4     4     5    1
    5     4     6    1
    6     4     7    1
    7     7     8    1
    8     7     9    1
    9     7    10    1
   10    10    11    1
   11    10    12    1
   12    10    13    1
   13    13    14    1
   14    13    15    1
   15    13    16    1
   16    16    17    1
   17    16    18    1
   18    16    19    1
   19    19    20    1
   20    19    21    1
   21    19    22    1
   22    22    23    1
   23    22    24    1
   24    22    25    1
@<TRIPOS>SUBSTRUCTURE
       1 MOL1            1 RESIDUE      1      MOL     
@<SCITEGIC>MOL_PROPERTY
VM2 Rank
SciTegic.value.IntegerValue
20

@<SCITEGIC>MOL_PROPERTY
Conf_Id
SciTegic.value.IntegerValue
1034

@<SCITEGIC>MOL_PROPERTY
Probability
SciTegic.value.DoubleValue
1.15

@<SCITEGIC>MOL_PROPERTY
Sum Probability
SciTegic.value.DoubleValue
80.44

@<SCITEGIC>MOL_PROPERTY
Delta G
SciTegic.value.DoubleValue
1.839

@<SCITEGIC>MOL_PROPERTY
G
SciTegic.value.DoubleValue
-6.123

@<SCITEGIC>MOL_PROPERTY
E
SciTegic.value.DoubleValue
-30.968

@<SCITEGIC>MOL_PROPERTY
-TS
SciTegic.value.DoubleValue
24.844

@<SCITEGIC>MOL_PROPERTY
U+W
SciTegic.value.DoubleValue
-51.535

@<SCITEGIC>MOL_PROPERTY
U
SciTegic.value.DoubleValue
8.115

@<SCITEGIC>MOL_PROPERTY
W
SciTegic.value.DoubleValue
-59.650

@<SCITEGIC>MOL_PROPERTY
W(PB)
SciTegic.value.DoubleValue
-62.101

@<SCITEGIC>MOL_PROPERTY
W(SA)
SciTegic.value.DoubleValue
2.451

@<SCITEGIC>MOL_PROPERTY
Valence
SciTegic.value.DoubleValue
8.487

@<SCITEGIC>MOL_PROPERTY
Coulomb
SciTegic.value.DoubleValue
-1.259

@<SCITEGIC>MOL_PROPERTY
VdW
SciTegic.value.DoubleValue
0.887

@<SCITEGIC>MOL_PROPERTY
VdW6
SciTegic.value.DoubleValue
-9.448

@<SCITEGIC>MOL_PROPERTY
VdW12
SciTegic.value.DoubleValue
10.335

@<SCITEGIC>MOL_PROPERTY
Bond
SciTegic.value.DoubleValue
0.199

@<SCITEGIC>MOL_PROPERTY
Angle
SciTegic.value.DoubleValue
2.915

@<SCITEGIC>MOL_PROPERTY
Pdih
SciTegic.value.DoubleValue
5.372

@<SCITEGIC>MOL_PROPERTY
Idih
SciTegic.value.DoubleValue
0.001

@<SCITEGIC>MOL_PROPERTY
Tether
SciTegic.value.DoubleValue
0.000

@<TRIPOS>MOLECULE
guest-8_vm2.mol2 : vm2 ligand conformer 21
          25          24           1
SMALL
USER_CHARGES
 
@<TRIPOS>ATOM
       1    C1      20.088333   19.110666   27.539498 C.2        1 MOL1         0.6168
       2    O1      21.157200   18.945878   28.093610 O.co2      1 MOL1        -0.6703
       3    O2      19.070613   18.524594   27.851615 O.co2      1 MOL1        -0.6703
       4    C2      20.025513   20.091478   26.374047 C.3        1 MOL1        -0.1963
       5    H1      20.746925   20.894759   26.566027 H          1 MOL1         0.0750
       6    H2      19.027830   20.546606   26.365188 H          1 MOL1         0.0750
       7    C3      20.319534   19.422512   25.008630 C.3        1 MOL1        -0.1860
       8    H3      21.317709   18.964103   25.037048 H          1 MOL1         0.0752
       9    H4      19.598303   18.610189   24.850187 H          1 MOL1         0.0752
      10    C4      20.244770   20.438335   23.844899 C.3        1 MOL1        -0.1858
      11    H5      20.913640   21.281458   24.065609 H          1 MOL1         0.0752
      12    H6      19.230447   20.855407   23.780369 H          1 MOL1         0.0752
      13    C5      20.647525   19.841732   22.475033 C.3        1 MOL1        -0.1858
      14    H7      20.708172   20.664858   21.751845 H          1 MOL1         0.0752
      15    H8      21.656168   19.412084   22.543090 H          1 MOL1         0.0752
      16    C6      19.657404   18.771487   21.952627 C.3        1 MOL1        -0.1858
      17    H9      18.648257   19.200455   21.887547 H          1 MOL1         0.0752
      18    H10     19.599080   17.945153   22.672218 H          1 MOL1         0.0752
      19    C7      20.058142   18.181832   20.579983 C.3        1 MOL1        -0.1834
      20    H11     21.071840   17.761897   20.638036 H          1 MOL1         0.0752
      21    H12     19.387868   17.342347   20.349230 H          1 MOL1         0.0752
      22    C8      19.983966   19.205485   19.426059 C.3        1 MOL1        -0.2849
      23    H13     18.988166   19.664256   19.371074 H          1 MOL1         0.0764
      24    H14     20.725419   20.004515   19.549371 H          1 MOL1         0.0764
      25    H15     20.183011   18.714489   18.464699 H          1 MOL1         0.0764
@<TRIPOS>BOND
    1     1     2    1
    2     1     3    2
    3     1     4    1
    4     4     5    1
    5     4     6    1
    6     4     7    1
    7     7     8    1
    8     7     9    1
    9     7    10    1
   10    10    11    1
   11    10    12    1
   12    10    13    1
   13    13    14    1
   14    13    15    1
   15    13    16    1
   16    16    17    1
   17    16    18    1
   18    16    19    1
   19    19    20    1
   20    19    21    1
   21    19    22    1
   22    22    23    1
   23    22    24    1
   24    22    25    1
@<TRIPOS>SUBSTRUCTURE
       1 MOL1            1 RESIDUE      1      MOL     
@<SCITEGIC>MOL_PROPERTY
VM2 Rank
SciTegic.value.IntegerValue
21

@<SCITEGIC>MOL_PROPERTY
Conf_Id
SciTegic.value.IntegerValue
503

@<SCITEGIC>MOL_PROPERTY
Probability
SciTegic.value.DoubleValue
1.14

@<SCITEGIC>MOL_PROPERTY
Sum Probability
SciTegic.value.DoubleValue
81.57

@<SCITEGIC>MOL_PROPERTY
Delta G
SciTegic.value.DoubleValue
1.848

@<SCITEGIC>MOL_PROPERTY
G
SciTegic.value.DoubleValue
-6.114

@<SCITEGIC>MOL_PROPERTY
E
SciTegic.value.DoubleValue
-30.673

@<SCITEGIC>MOL_PROPERTY
-TS
SciTegic.value.DoubleValue
24.559

@<SCITEGIC>MOL_PROPERTY
U+W
SciTegic.value.DoubleValue
-51.241

@<SCITEGIC>MOL_PROPERTY
U
SciTegic.value.DoubleValue
7.805

@<SCITEGIC>MOL_PROPERTY
W
SciTegic.value.DoubleValue
-59.047

@<SCITEGIC>MOL_PROPERTY
W(PB)
SciTegic.value.DoubleValue
-61.531

@<SCITEGIC>MOL_PROPERTY
W(SA)
SciTegic.value.DoubleValue
2.484

@<SCITEGIC>MOL_PROPERTY
Valence
SciTegic.value.DoubleValue
8.642

@<SCITEGIC>MOL_PROPERTY
Coulomb
SciTegic.value.DoubleValue
-2.028

@<SCITEGIC>MOL_PROPERTY
VdW
SciTegic.value.DoubleValue
1.191

@<SCITEGIC>MOL_PROPERTY
VdW6
SciTegic.value.DoubleValue
-8.891

@<SCITEGIC>MOL_PROPERTY
VdW12
SciTegic.value.DoubleValue
10.082

@<SCITEGIC>MOL_PROPERTY
Bond
SciTegic.value.DoubleValue
0.190

@<SCITEGIC>MOL_PROPERTY
Angle
SciTegic.value.DoubleValue
2.795

@<SCITEGIC>MOL_PROPERTY
Pdih
SciTegic.value.DoubleValue
5.656

@<SCITEGIC>MOL_PROPERTY
Idih
SciTegic.value.DoubleValue
0.001

@<SCITEGIC>MOL_PROPERTY
Tether
SciTegic.value.DoubleValue
0.000

@<TRIPOS>MOLECULE
guest-8_vm2.mol2 : vm2 ligand conformer 22
          25          24           1
SMALL
USER_CHARGES
 
@<TRIPOS>ATOM
       1    C1      20.252977   19.120530   27.537585 C.2        1 MOL1         0.6168
       2    O1      21.340655   18.661522   27.825543 O.co2      1 MOL1        -0.6703
       3    O2      19.224622   18.829113   28.115714 O.co2      1 MOL1        -0.6703
       4    C2      20.170756   20.100230   26.372406 C.3        1 MOL1        -0.1963
       5    H1      21.106034   20.671966   26.341371 H          1 MOL1         0.0750
       6    H2      19.362605   20.811226   26.581998 H          1 MOL1         0.0750
       7    C3      19.928093   19.398950   25.013119 C.3        1 MOL1        -0.1860
       8    H3      20.737873   18.678932   24.837094 H          1 MOL1         0.0752
       9    H4      18.993117   18.824001   25.063691 H          1 MOL1         0.0752
      10    C4      19.853713   20.414823   23.849405 C.3        1 MOL1        -0.1858
      11    H5      20.808936   20.950464   23.762204 H          1 MOL1         0.0752
      12    H6      19.093783   21.171929   24.086584 H          1 MOL1         0.0752
      13    C5      19.494110   19.772370   22.488291 C.3        1 MOL1        -0.1858
      14    H7      18.545935   19.225224   22.578769 H          1 MOL1         0.0752
      15    H8      19.318936   20.581299   21.767762 H          1 MOL1         0.0752
      16    C6      20.592974   18.827506   21.942032 C.3        1 MOL1        -0.1858
      17    H9      20.765814   18.014895   22.658855 H          1 MOL1         0.0752
      18    H10     21.541920   19.373887   21.854885 H          1 MOL1         0.0752
      19    C7      20.234672   18.192598   20.577865 C.3        1 MOL1        -0.1834
      20    H11     20.994872   17.438698   20.330923 H          1 MOL1         0.0752
      21    H12     19.279808   17.654911   20.658025 H          1 MOL1         0.0752
      22    C8      20.160428   19.216359   19.424039 C.3        1 MOL1        -0.2849
      23    H13     21.093042   19.790337   19.347284 H          1 MOL1         0.0764
      24    H14     19.999629   18.703950   18.466705 H          1 MOL1         0.0764
      25    H15     19.332104   19.921603   19.565162 H          1 MOL1         0.0764
@<TRIPOS>BOND
    1     1     2    1
    2     1     3    2
    3     1     4    1
    4     4     5    1
    5     4     6    1
    6     4     7    1
    7     7     8    1
    8     7     9    1
    9     7    10    1
   10    10    11    1
   11    10    12    1
   12    10    13    1
   13    13    14    1
   14    13    15    1
   15    13    16    1
   16    16    17    1
   17    16    18    1
   18    16    19    1
   19    19    20    1
   20    19    21    1
   21    19    22    1
   22    22    23    1
   23    22    24    1
   24    22    25    1
@<TRIPOS>SUBSTRUCTURE
       1 MOL1            1 RESIDUE      1      MOL     
@<SCITEGIC>MOL_PROPERTY
VM2 Rank
SciTegic.value.IntegerValue
22

@<SCITEGIC>MOL_PROPERTY
Conf_Id
SciTegic.value.IntegerValue
557

@<SCITEGIC>MOL_PROPERTY
Probability
SciTegic.value.DoubleValue
1.13

@<SCITEGIC>MOL_PROPERTY
Sum Probability
SciTegic.value.DoubleValue
82.70

@<SCITEGIC>MOL_PROPERTY
Delta G
SciTegic.value.DoubleValue
1.851

@<SCITEGIC>MOL_PROPERTY
G
SciTegic.value.DoubleValue
-6.111

@<SCITEGIC>MOL_PROPERTY
E
SciTegic.value.DoubleValue
-30.669

@<SCITEGIC>MOL_PROPERTY
-TS
SciTegic.value.DoubleValue
24.559

@<SCITEGIC>MOL_PROPERTY
U+W
SciTegic.value.DoubleValue
-51.237

@<SCITEGIC>MOL_PROPERTY
U
SciTegic.value.DoubleValue
7.805

@<SCITEGIC>MOL_PROPERTY
W
SciTegic.value.DoubleValue
-59.042

@<SCITEGIC>MOL_PROPERTY
W(PB)
SciTegic.value.DoubleValue
-61.534

@<SCITEGIC>MOL_PROPERTY
W(SA)
SciTegic.value.DoubleValue
2.491

@<SCITEGIC>MOL_PROPERTY
Valence
SciTegic.value.DoubleValue
8.642

@<SCITEGIC>MOL_PROPERTY
Coulomb
SciTegic.value.DoubleValue
-2.028

@<SCITEGIC>MOL_PROPERTY
VdW
SciTegic.value.DoubleValue
1.191

@<SCITEGIC>MOL_PROPERTY
VdW6
SciTegic.value.DoubleValue
-8.891

@<SCITEGIC>MOL_PROPERTY
VdW12
SciTegic.value.DoubleValue
10.082

@<SCITEGIC>MOL_PROPERTY
Bond
SciTegic.value.DoubleValue
0.190

@<SCITEGIC>MOL_PROPERTY
Angle
SciTegic.value.DoubleValue
2.795

@<SCITEGIC>MOL_PROPERTY
Pdih
SciTegic.value.DoubleValue
5.656

@<SCITEGIC>MOL_PROPERTY
Idih
SciTegic.value.DoubleValue
0.001

@<SCITEGIC>MOL_PROPERTY
Tether
SciTegic.value.DoubleValue
0.000

@<TRIPOS>MOLECULE
guest-8_vm2.mol2 : vm2 ligand conformer 23
          25          24           1
SMALL
USER_CHARGES
 
@<TRIPOS>ATOM
       1    C1      19.703862   19.229131   27.220909 C.2        1 MOL1         0.6168
       2    O1      20.410115   18.634073   28.010744 O.co2      1 MOL1        -0.6703
       3    O2      18.489412   19.194797   27.245038 O.co2      1 MOL1        -0.6703
       4    C2      20.379352   20.048929   26.127365 C.3        1 MOL1        -0.1963
       5    H1      21.313568   20.454436   26.533924 H          1 MOL1         0.0750
       6    H2      19.731197   20.901306   25.890869 H          1 MOL1         0.0750
       7    C3      20.665285   19.224729   24.847932 C.3        1 MOL1        -0.1860
       8    H3      21.307842   18.370403   25.101769 H          1 MOL1         0.0752
       9    H4      19.718867   18.813892   24.471858 H          1 MOL1         0.0752
      10    C4      21.343478   20.080853   23.753524 C.3        1 MOL1        -0.1858
      11    H5      22.246577   20.545424   24.172283 H          1 MOL1         0.0752
      12    H6      20.681813   20.908553   23.466420 H          1 MOL1         0.0752
      13    C5      21.751351   19.269139   22.498226 C.3        1 MOL1        -0.1858
      14    H7      22.257736   19.942157   21.793031 H          1 MOL1         0.0752
      15    H8      22.498392   18.518012   22.788778 H          1 MOL1         0.0752
      16    C6      20.589791   18.555047   21.761742 C.3        1 MOL1        -0.1858
      17    H9      20.140575   17.796064   22.415493 H          1 MOL1         0.0752
      18    H10     21.008410   18.008314   20.905851 H          1 MOL1         0.0752
      19    C7      19.495101   19.519910   21.253167 C.3        1 MOL1        -0.1834
      20    H11     19.008581   20.018142   22.102195 H          1 MOL1         0.0752
      21    H12     19.951613   20.306816   20.637173 H          1 MOL1         0.0752
      22    C8      18.425252   18.777393   20.427354 C.3        1 MOL1        -0.2849
      23    H13     17.933243   18.002335   21.029489 H          1 MOL1         0.0764
      24    H14     17.653699   19.475342   20.077249 H          1 MOL1         0.0764
      25    H15     18.871546   18.296354   19.547177 H          1 MOL1         0.0764
@<TRIPOS>BOND
    1     1     2    1
    2     1     3    2
    3     1     4    1
    4     4     5    1
    5     4     6    1
    6     4     7    1
    7     7     8    1
    8     7     9    1
    9     7    10    1
   10    10    11    1
   11    10    12    1
   12    10    13    1
   13    13    14    1
   14    13    15    1
   15    13    16    1
   16    16    17    1
   17    16    18    1
   18    16    19    1
   19    19    20    1
   20    19    21    1
   21    19    22    1
   22    22    23    1
   23    22    24    1
   24    22    25    1
@<TRIPOS>SUBSTRUCTURE
       1 MOL1            1 RESIDUE      1      MOL     
@<SCITEGIC>MOL_PROPERTY
VM2 Rank
SciTegic.value.IntegerValue
23

@<SCITEGIC>MOL_PROPERTY
Conf_Id
SciTegic.value.IntegerValue
1064

@<SCITEGIC>MOL_PROPERTY
Probability
SciTegic.value.DoubleValue
1.12

@<SCITEGIC>MOL_PROPERTY
Sum Probability
SciTegic.value.DoubleValue
83.82

@<SCITEGIC>MOL_PROPERTY
Delta G
SciTegic.value.DoubleValue
1.859

@<SCITEGIC>MOL_PROPERTY
G
SciTegic.value.DoubleValue
-6.103

@<SCITEGIC>MOL_PROPERTY
E
SciTegic.value.DoubleValue
-30.934

@<SCITEGIC>MOL_PROPERTY
-TS
SciTegic.value.DoubleValue
24.831

@<SCITEGIC>MOL_PROPERTY
U+W
SciTegic.value.DoubleValue
-51.502

@<SCITEGIC>MOL_PROPERTY
U
SciTegic.value.DoubleValue
8.128

@<SCITEGIC>MOL_PROPERTY
W
SciTegic.value.DoubleValue
-59.630

@<SCITEGIC>MOL_PROPERTY
W(PB)
SciTegic.value.DoubleValue
-62.104

@<SCITEGIC>MOL_PROPERTY
W(SA)
SciTegic.value.DoubleValue
2.474

@<SCITEGIC>MOL_PROPERTY
Valence
SciTegic.value.DoubleValue
8.508

@<SCITEGIC>MOL_PROPERTY
Coulomb
SciTegic.value.DoubleValue
-1.299

@<SCITEGIC>MOL_PROPERTY
VdW
SciTegic.value.DoubleValue
0.920

@<SCITEGIC>MOL_PROPERTY
VdW6
SciTegic.value.DoubleValue
-9.370

@<SCITEGIC>MOL_PROPERTY
VdW12
SciTegic.value.DoubleValue
10.290

@<SCITEGIC>MOL_PROPERTY
Bond
SciTegic.value.DoubleValue
0.192

@<SCITEGIC>MOL_PROPERTY
Angle
SciTegic.value.DoubleValue
2.932

@<SCITEGIC>MOL_PROPERTY
Pdih
SciTegic.value.DoubleValue
5.383

@<SCITEGIC>MOL_PROPERTY
Idih
SciTegic.value.DoubleValue
0.000

@<SCITEGIC>MOL_PROPERTY
Tether
SciTegic.value.DoubleValue
0.000

@<TRIPOS>MOLECULE
guest-8_vm2.mol2 : vm2 ligand conformer 24
          25          24           1
SMALL
USER_CHARGES
 
@<TRIPOS>ATOM
       1    C1      20.238521   19.260694   27.581668 C.2        1 MOL1         0.6168
       2    O1      21.289785   19.740494   27.957633 O.co2      1 MOL1        -0.6703
       3    O2      19.257469   19.150234   28.290246 O.co2      1 MOL1        -0.6703
       4    C2      20.137322   18.792762   26.134274 C.3        1 MOL1        -0.1963
       5    H1      19.441017   17.946446   26.098646 H          1 MOL1         0.0750
       6    H2      21.122560   18.416785   25.837066 H          1 MOL1         0.0750
       7    C3      19.665359   19.915101   25.173432 C.3        1 MOL1        -0.1860
       8    H3      18.725042   20.333783   25.558131 H          1 MOL1         0.0752
       9    H4      20.395499   20.736179   25.180329 H          1 MOL1         0.0752
      10    C4      19.433680   19.432988   23.721294 C.3        1 MOL1        -0.1858
      11    H5      18.969165   20.254800   23.161879 H          1 MOL1         0.0752
      12    H6      18.710206   18.606369   23.719109 H          1 MOL1         0.0752
      13    C5      20.733840   18.991768   23.004806 C.3        1 MOL1        -0.1858
      14    H7      21.456969   19.818668   23.005735 H          1 MOL1         0.0752
      15    H8      21.198921   18.171037   23.565242 H          1 MOL1         0.0752
      16    C6      20.503804   18.506667   21.553338 C.3        1 MOL1        -0.1858
      17    H9      19.768940   17.690061   21.550155 H          1 MOL1         0.0752
      18    H10     21.443624   18.079380   21.177732 H          1 MOL1         0.0752
      19    C7      20.044852   19.625760   20.591025 C.3        1 MOL1        -0.1834
      20    H11     19.064650   20.012473   20.898692 H          1 MOL1         0.0752
      21    H12     20.750535   20.466648   20.637036 H          1 MOL1         0.0752
      22    C8      19.948368   19.117532   19.138284 C.3        1 MOL1        -0.2849
      23    H13     19.228147   18.292771   19.058143 H          1 MOL1         0.0764
      24    H14     19.618373   19.921996   18.468211 H          1 MOL1         0.0764
      25    H15     20.922534   18.758102   18.781694 H          1 MOL1         0.0764
@<TRIPOS>BOND
    1     1     2    1
    2     1     3    2
    3     1     4    1
    4     4     5    1
    5     4     6    1
    6     4     7    1
    7     7     8    1
    8     7     9    1
    9     7    10    1
   10    10    11    1
   11    10    12    1
   12    10    13    1
   13    13    14    1
   14    13    15    1
   15    13    16    1
   16    16    17    1
   17    16    18    1
   18    16    19    1
   19    19    20    1
   20    19    21    1
   21    19    22    1
   22    22    23    1
   23    22    24    1
   24    22    25    1
@<TRIPOS>SUBSTRUCTURE
       1 MOL1            1 RESIDUE      1      MOL     
@<SCITEGIC>MOL_PROPERTY
VM2 Rank
SciTegic.value.IntegerValue
24

@<SCITEGIC>MOL_PROPERTY
Conf_Id
SciTegic.value.IntegerValue
975

@<SCITEGIC>MOL_PROPERTY
Probability
SciTegic.value.DoubleValue
1.10

@<SCITEGIC>MOL_PROPERTY
Sum Probability
SciTegic.value.DoubleValue
84.92

@<SCITEGIC>MOL_PROPERTY
Delta G
SciTegic.value.DoubleValue
1.866

@<SCITEGIC>MOL_PROPERTY
G
SciTegic.value.DoubleValue
-6.097

@<SCITEGIC>MOL_PROPERTY
E
SciTegic.value.DoubleValue
-30.645

@<SCITEGIC>MOL_PROPERTY
-TS
SciTegic.value.DoubleValue
24.549

@<SCITEGIC>MOL_PROPERTY
U+W
SciTegic.value.DoubleValue
-51.213

@<SCITEGIC>MOL_PROPERTY
U
SciTegic.value.DoubleValue
7.506

@<SCITEGIC>MOL_PROPERTY
W
SciTegic.value.DoubleValue
-58.719

@<SCITEGIC>MOL_PROPERTY
W(PB)
SciTegic.value.DoubleValue
-61.242

@<SCITEGIC>MOL_PROPERTY
W(SA)
SciTegic.value.DoubleValue
2.522

@<SCITEGIC>MOL_PROPERTY
Valence
SciTegic.value.DoubleValue
8.668

@<SCITEGIC>MOL_PROPERTY
Coulomb
SciTegic.value.DoubleValue
-2.355

@<SCITEGIC>MOL_PROPERTY
VdW
SciTegic.value.DoubleValue
1.194

@<SCITEGIC>MOL_PROPERTY
VdW6
SciTegic.value.DoubleValue
-8.929

@<SCITEGIC>MOL_PROPERTY
VdW12
SciTegic.value.DoubleValue
10.123

@<SCITEGIC>MOL_PROPERTY
Bond
SciTegic.value.DoubleValue
0.201

@<SCITEGIC>MOL_PROPERTY
Angle
SciTegic.value.DoubleValue
2.816

@<SCITEGIC>MOL_PROPERTY
Pdih
SciTegic.value.DoubleValue
5.651

@<SCITEGIC>MOL_PROPERTY
Idih
SciTegic.value.DoubleValue
0.001

@<SCITEGIC>MOL_PROPERTY
Tether
SciTegic.value.DoubleValue
0.000

@<TRIPOS>MOLECULE
guest-8_vm2.mol2 : vm2 ligand conformer 25
          25          24           1
SMALL
USER_CHARGES
 
@<TRIPOS>ATOM
       1    C1      19.773474   19.590836   27.210837 C.2        1 MOL1         0.6168
       2    O1      20.658063   19.923450   27.974772 O.co2      1 MOL1        -0.6703
       3    O2      18.658579   20.074123   27.220335 O.co2      1 MOL1        -0.6703
       4    C2      20.085502   18.520801   26.170713 C.3        1 MOL1        -0.1963
       5    H1      19.165180   17.957755   25.974319 H          1 MOL1         0.0750
       6    H2      20.807190   17.820789   26.608476 H          1 MOL1         0.0750
       7    C3      20.642965   19.109323   24.851286 C.3        1 MOL1        -0.1860
       8    H3      19.912172   19.820326   24.443437 H          1 MOL1         0.0752
       9    H4      21.558894   19.677339   25.064869 H          1 MOL1         0.0752
      10    C4      20.944303   18.004541   23.812409 C.3        1 MOL1        -0.1858
      11    H5      20.020160   17.466443   23.563967 H          1 MOL1         0.0752
      12    H6      21.615425   17.262113   24.265365 H          1 MOL1         0.0752
      13    C5      21.610667   18.537647   22.519053 C.3        1 MOL1        -0.1858
      14    H7      22.585672   18.973529   22.776066 H          1 MOL1         0.0752
      15    H8      21.824580   17.687507   21.857100 H          1 MOL1         0.0752
      16    C6      20.788424   19.589582   21.732346 C.3        1 MOL1        -0.1858
      17    H9      21.370887   19.894946   20.852461 H          1 MOL1         0.0752
      18    H10     20.658737   20.495407   22.338897 H          1 MOL1         0.0752
      19    C7      19.409223   19.072151   21.265415 C.3        1 MOL1        -0.1834
      20    H11     19.535744   18.139752   20.698234 H          1 MOL1         0.0752
      21    H12     18.781543   18.836591   22.135079 H          1 MOL1         0.0752
      22    C8      18.681801   20.111545   20.388834 C.3        1 MOL1        -0.2849
      23    H13     19.265409   20.344316   19.488551 H          1 MOL1         0.0764
      24    H14     17.703170   19.730702   20.069083 H          1 MOL1         0.0764
      25    H15     18.517798   21.045352   20.942423 H          1 MOL1         0.0764
@<TRIPOS>BOND
    1     1     2    1
    2     1     3    2
    3     1     4    1
    4     4     5    1
    5     4     6    1
    6     4     7    1
    7     7     8    1
    8     7     9    1
    9     7    10    1
   10    10    11    1
   11    10    12    1
   12    10    13    1
   13    13    14    1
   14    13    15    1
   15    13    16    1
   16    16    17    1
   17    16    18    1
   18    16    19    1
   19    19    20    1
   20    19    21    1
   21    19    22    1
   22    22    23    1
   23    22    24    1
   24    22    25    1
@<TRIPOS>SUBSTRUCTURE
       1 MOL1            1 RESIDUE      1      MOL     
@<SCITEGIC>MOL_PROPERTY
VM2 Rank
SciTegic.value.IntegerValue
25

@<SCITEGIC>MOL_PROPERTY
Conf_Id
SciTegic.value.IntegerValue
401

@<SCITEGIC>MOL_PROPERTY
Probability
SciTegic.value.DoubleValue
1.03

@<SCITEGIC>MOL_PROPERTY
Sum Probability
SciTegic.value.DoubleValue
85.95

@<SCITEGIC>MOL_PROPERTY
Delta G
SciTegic.value.DoubleValue
1.909

@<SCITEGIC>MOL_PROPERTY
G
SciTegic.value.DoubleValue
-6.053

@<SCITEGIC>MOL_PROPERTY
E
SciTegic.value.DoubleValue
-30.883

@<SCITEGIC>MOL_PROPERTY
-TS
SciTegic.value.DoubleValue
24.830

@<SCITEGIC>MOL_PROPERTY
U+W
SciTegic.value.DoubleValue
-51.451

@<SCITEGIC>MOL_PROPERTY
U
SciTegic.value.DoubleValue
8.128

@<SCITEGIC>MOL_PROPERTY
W
SciTegic.value.DoubleValue
-59.579

@<SCITEGIC>MOL_PROPERTY
W(PB)
SciTegic.value.DoubleValue
-62.033

@<SCITEGIC>MOL_PROPERTY
W(SA)
SciTegic.value.DoubleValue
2.454

@<SCITEGIC>MOL_PROPERTY
Valence
SciTegic.value.DoubleValue
8.508

@<SCITEGIC>MOL_PROPERTY
Coulomb
SciTegic.value.DoubleValue
-1.300

@<SCITEGIC>MOL_PROPERTY
VdW
SciTegic.value.DoubleValue
0.920

@<SCITEGIC>MOL_PROPERTY
VdW6
SciTegic.value.DoubleValue
-9.369

@<SCITEGIC>MOL_PROPERTY
VdW12
SciTegic.value.DoubleValue
10.289

@<SCITEGIC>MOL_PROPERTY
Bond
SciTegic.value.DoubleValue
0.192

@<SCITEGIC>MOL_PROPERTY
Angle
SciTegic.value.DoubleValue
2.932

@<SCITEGIC>MOL_PROPERTY
Pdih
SciTegic.value.DoubleValue
5.383

@<SCITEGIC>MOL_PROPERTY
Idih
SciTegic.value.DoubleValue
0.001

@<SCITEGIC>MOL_PROPERTY
Tether
SciTegic.value.DoubleValue
0.000

@<TRIPOS>MOLECULE
guest-8_vm2.mol2 : vm2 ligand conformer 26
          25          24           1
SMALL
USER_CHARGES
 
@<TRIPOS>ATOM
       1    C1      20.411056   19.256566   27.522447 C.2        1 MOL1         0.6168
       2    O1      21.511370   19.671318   27.828951 O.co2      1 MOL1        -0.6703
       3    O2      19.433452   19.348177   28.238386 O.co2      1 MOL1        -0.6703
       4    C2      20.243009   18.604232   26.154858 C.3        1 MOL1        -0.1963
       5    H1      19.470103   17.830847   26.238892 H          1 MOL1         0.0750
       6    H2      21.182157   18.098002   25.901231 H          1 MOL1         0.0750
       7    C3      19.866238   19.618362   25.046865 C.3        1 MOL1        -0.1860
       8    H3      18.931409   20.125972   25.322392 H          1 MOL1         0.0752
       9    H4      20.643397   20.392718   24.983994 H          1 MOL1         0.0752
      10    C4      19.702396   18.933715   23.672567 C.3        1 MOL1        -0.1858
      11    H5      18.923143   18.162077   23.736594 H          1 MOL1         0.0752
      12    H6      20.639175   18.424489   23.410928 H          1 MOL1         0.0752
      13    C5      19.332751   19.950793   22.568492 C.3        1 MOL1        -0.1858
      14    H7      18.437137   20.505394   22.879884 H          1 MOL1         0.0752
      15    H8      20.132233   20.696483   22.468082 H          1 MOL1         0.0752
      16    C6      19.045608   19.294857   21.194226 C.3        1 MOL1        -0.1858
      17    H9      18.742011   20.078583   20.486931 H          1 MOL1         0.0752
      18    H10     18.180434   18.625341   21.293820 H          1 MOL1         0.0752
      19    C7      20.223910   18.498160   20.581170 C.3        1 MOL1        -0.1834
      20    H11     20.477181   17.642958   21.221544 H          1 MOL1         0.0752
      21    H12     19.896543   18.072338   19.622760 H          1 MOL1         0.0752
      22    C8      21.483211   19.357820   20.338038 C.3        1 MOL1        -0.2849
      23    H13     21.248106   20.232798   19.718267 H          1 MOL1         0.0764
      24    H14     21.913650   19.710418   21.283804 H          1 MOL1         0.0764
      25    H15     22.253755   18.772689   19.819719 H          1 MOL1         0.0764
@<TRIPOS>BOND
    1     1     2    1
    2     1     3    2
    3     1     4    1
    4     4     5    1
    5     4     6    1
    6     4     7    1
    7     7     8    1
    8     7     9    1
    9     7    10    1
   10    10    11    1
   11    10    12    1
   12    10    13    1
   13    13    14    1
   14    13    15    1
   15    13    16    1
   16    16    17    1
   17    16    18    1
   18    16    19    1
   19    19    20    1
   20    19    21    1
   21    19    22    1
   22    22    23    1
   23    22    24    1
   24    22    25    1
@<TRIPOS>SUBSTRUCTURE
       1 MOL1            1 RESIDUE      1      MOL     
@<SCITEGIC>MOL_PROPERTY
VM2 Rank
SciTegic.value.IntegerValue
26

@<SCITEGIC>MOL_PROPERTY
Conf_Id
SciTegic.value.IntegerValue
153

@<SCITEGIC>MOL_PROPERTY
Probability
SciTegic.value.DoubleValue
0.97

@<SCITEGIC>MOL_PROPERTY
Sum Probability
SciTegic.value.DoubleValue
86.91

@<SCITEGIC>MOL_PROPERTY
Delta G
SciTegic.value.DoubleValue
1.945

@<SCITEGIC>MOL_PROPERTY
G
SciTegic.value.DoubleValue
-6.017

@<SCITEGIC>MOL_PROPERTY
E
SciTegic.value.DoubleValue
-30.819

@<SCITEGIC>MOL_PROPERTY
-TS
SciTegic.value.DoubleValue
24.801

@<SCITEGIC>MOL_PROPERTY
U+W
SciTegic.value.DoubleValue
-51.386

@<SCITEGIC>MOL_PROPERTY
U
SciTegic.value.DoubleValue
7.567

@<SCITEGIC>MOL_PROPERTY
W
SciTegic.value.DoubleValue
-58.953

@<SCITEGIC>MOL_PROPERTY
W(PB)
SciTegic.value.DoubleValue
-61.393

@<SCITEGIC>MOL_PROPERTY
W(SA)
SciTegic.value.DoubleValue
2.440

@<SCITEGIC>MOL_PROPERTY
Valence
SciTegic.value.DoubleValue
8.483

@<SCITEGIC>MOL_PROPERTY
Coulomb
SciTegic.value.DoubleValue
-1.912

@<SCITEGIC>MOL_PROPERTY
VdW
SciTegic.value.DoubleValue
0.996

@<SCITEGIC>MOL_PROPERTY
VdW6
SciTegic.value.DoubleValue
-9.207

@<SCITEGIC>MOL_PROPERTY
VdW12
SciTegic.value.DoubleValue
10.203

@<SCITEGIC>MOL_PROPERTY
Bond
SciTegic.value.DoubleValue
0.188

@<SCITEGIC>MOL_PROPERTY
Angle
SciTegic.value.DoubleValue
2.901

@<SCITEGIC>MOL_PROPERTY
Pdih
SciTegic.value.DoubleValue
5.393

@<SCITEGIC>MOL_PROPERTY
Idih
SciTegic.value.DoubleValue
0.001

@<SCITEGIC>MOL_PROPERTY
Tether
SciTegic.value.DoubleValue
0.000

@<TRIPOS>MOLECULE
guest-8_vm2.mol2 : vm2 ligand conformer 27
          25          24           1
SMALL
USER_CHARGES
 
@<TRIPOS>ATOM
       1    C1      19.915201   19.225186   27.528164 C.2        1 MOL1         0.6168
       2    O1      20.889559   19.441211   28.221439 O.co2      1 MOL1        -0.6703
       3    O2      18.778544   19.497553   27.860552 O.co2      1 MOL1        -0.6703
       4    C2      20.133013   18.597211   26.156200 C.3        1 MOL1        -0.1963
       5    H1      19.259872   17.975870   25.923488 H          1 MOL1         0.0750
       6    H2      20.999252   17.927927   26.221443 H          1 MOL1         0.0750
       7    C3      20.352999   19.649134   25.041245 C.3        1 MOL1        -0.1860
       8    H3      19.482953   20.318944   24.997339 H          1 MOL1         0.0752
       9    H4      21.222246   20.271260   25.295914 H          1 MOL1         0.0752
      10    C4      20.570431   18.988618   23.662578 C.3        1 MOL1        -0.1858
      11    H5      19.699727   18.364746   23.421789 H          1 MOL1         0.0752
      12    H6      21.442184   18.321700   23.707590 H          1 MOL1         0.0752
      13    C5      20.783190   20.042624   22.551780 C.3        1 MOL1        -0.1858
      14    H7      19.893877   20.681289   22.470923 H          1 MOL1         0.0752
      15    H8      21.608567   20.706289   22.843282 H          1 MOL1         0.0752
      16    C6      21.119106   19.426211   21.170294 C.3        1 MOL1        -0.1858
      17    H9      22.063909   18.871360   21.248951 H          1 MOL1         0.0752
      18    H10     21.305028   20.240979   20.457378 H          1 MOL1         0.0752
      19    C7      20.036951   18.486342   20.583313 C.3        1 MOL1        -0.1834
      20    H11     20.393307   18.103836   19.617008 H          1 MOL1         0.0752
      21    H12     19.908379   17.606949   21.228086 H          1 MOL1         0.0752
      22    C8      18.674007   19.179912   20.370436 C.3        1 MOL1        -0.2849
      23    H13     18.782534   20.076626   19.746654 H          1 MOL1         0.0764
      24    H14     17.971714   18.501477   19.869156 H          1 MOL1         0.0764
      25    H15     18.224395   19.476814   21.326350 H          1 MOL1         0.0764
@<TRIPOS>BOND
    1     1     2    1
    2     1     3    2
    3     1     4    1
    4     4     5    1
    5     4     6    1
    6     4     7    1
    7     7     8    1
    8     7     9    1
    9     7    10    1
   10    10    11    1
   11    10    12    1
   12    10    13    1
   13    13    14    1
   14    13    15    1
   15    13    16    1
   16    16    17    1
   17    16    18    1
   18    16    19    1
   19    19    20    1
   20    19    21    1
   21    19    22    1
   22    22    23    1
   23    22    24    1
   24    22    25    1
@<TRIPOS>SUBSTRUCTURE
       1 MOL1            1 RESIDUE      1      MOL     
@<SCITEGIC>MOL_PROPERTY
VM2 Rank
SciTegic.value.IntegerValue
27

@<SCITEGIC>MOL_PROPERTY
Conf_Id
SciTegic.value.IntegerValue
955

@<SCITEGIC>MOL_PROPERTY
Probability
SciTegic.value.DoubleValue
0.94

@<SCITEGIC>MOL_PROPERTY
Sum Probability
SciTegic.value.DoubleValue
87.85

@<SCITEGIC>MOL_PROPERTY
Delta G
SciTegic.value.DoubleValue
1.963

@<SCITEGIC>MOL_PROPERTY
G
SciTegic.value.DoubleValue
-5.999

@<SCITEGIC>MOL_PROPERTY
E
SciTegic.value.DoubleValue
-30.800

@<SCITEGIC>MOL_PROPERTY
-TS
SciTegic.value.DoubleValue
24.801

@<SCITEGIC>MOL_PROPERTY
U+W
SciTegic.value.DoubleValue
-51.368

@<SCITEGIC>MOL_PROPERTY
U
SciTegic.value.DoubleValue
7.567

@<SCITEGIC>MOL_PROPERTY
W
SciTegic.value.DoubleValue
-58.935

@<SCITEGIC>MOL_PROPERTY
W(PB)
SciTegic.value.DoubleValue
-61.398

@<SCITEGIC>MOL_PROPERTY
W(SA)
SciTegic.value.DoubleValue
2.463

@<SCITEGIC>MOL_PROPERTY
Valence
SciTegic.value.DoubleValue
8.483

@<SCITEGIC>MOL_PROPERTY
Coulomb
SciTegic.value.DoubleValue
-1.912

@<SCITEGIC>MOL_PROPERTY
VdW
SciTegic.value.DoubleValue
0.996

@<SCITEGIC>MOL_PROPERTY
VdW6
SciTegic.value.DoubleValue
-9.207

@<SCITEGIC>MOL_PROPERTY
VdW12
SciTegic.value.DoubleValue
10.202

@<SCITEGIC>MOL_PROPERTY
Bond
SciTegic.value.DoubleValue
0.188

@<SCITEGIC>MOL_PROPERTY
Angle
SciTegic.value.DoubleValue
2.901

@<SCITEGIC>MOL_PROPERTY
Pdih
SciTegic.value.DoubleValue
5.392

@<SCITEGIC>MOL_PROPERTY
Idih
SciTegic.value.DoubleValue
0.001

@<SCITEGIC>MOL_PROPERTY
Tether
SciTegic.value.DoubleValue
0.000

@<TRIPOS>MOLECULE
guest-8_vm2.mol2 : vm2 ligand conformer 28
          25          24           1
SMALL
USER_CHARGES
 
@<TRIPOS>ATOM
       1    C1      19.908735   19.596458   27.147233 C.2        1 MOL1         0.6168
       2    O1      20.883852   20.197241   27.553763 O.co2      1 MOL1        -0.6703
       3    O2      18.778053   20.039808   27.192765 O.co2      1 MOL1        -0.6703
       4    C2      20.110319   18.200087   26.565472 C.3        1 MOL1        -0.1963
       5    H1      19.334173   17.552367   26.989785 H          1 MOL1         0.0750
       6    H2      21.074318   17.811127   26.915032 H          1 MOL1         0.0750
       7    C3      20.039833   18.147446   25.017195 C.3        1 MOL1        -0.1860
       8    H3      20.063264   17.097907   24.694417 H          1 MOL1         0.0752
       9    H4      19.075436   18.558930   24.691175 H          1 MOL1         0.0752
      10    C4      21.203652   18.914802   24.345297 C.3        1 MOL1        -0.1858
      11    H5      22.155565   18.547292   24.752292 H          1 MOL1         0.0752
      12    H6      21.147313   19.980816   24.605602 H          1 MOL1         0.0752
      13    C5      21.235478   18.761309   22.806092 C.3        1 MOL1        -0.1858
      14    H7      22.154013   19.231256   22.428862 H          1 MOL1         0.0752
      15    H8      21.300849   17.696589   22.543516 H          1 MOL1         0.0752
      16    C6      20.017744   19.399320   22.098211 C.3        1 MOL1        -0.1858
      17    H9      19.923138   20.449674   22.405945 H          1 MOL1         0.0752
      18    H10     19.095565   18.890293   22.407089 H          1 MOL1         0.0752
      19    C7      20.146053   19.322154   20.562199 C.3        1 MOL1        -0.1834
      20    H11     21.062195   19.836364   20.240178 H          1 MOL1         0.0752
      21    H12     20.242753   18.272675   20.251231 H          1 MOL1         0.0752
      22    C8      18.929282   19.955375   19.857772 C.3        1 MOL1        -0.2849
      23    H13     18.826802   21.014700   20.127420 H          1 MOL1         0.0764
      24    H14     19.037379   19.892147   18.767188 H          1 MOL1         0.0764
      25    H15     18.001316   19.439274   20.136883 H          1 MOL1         0.0764
@<TRIPOS>BOND
    1     1     2    1
    2     1     3    2
    3     1     4    1
    4     4     5    1
    5     4     6    1
    6     4     7    1
    7     7     8    1
    8     7     9    1
    9     7    10    1
   10    10    11    1
   11    10    12    1
   12    10    13    1
   13    13    14    1
   14    13    15    1
   15    13    16    1
   16    16    17    1
   17    16    18    1
   18    16    19    1
   19    19    20    1
   20    19    21    1
   21    19    22    1
   22    22    23    1
   23    22    24    1
   24    22    25    1
@<TRIPOS>SUBSTRUCTURE
       1 MOL1            1 RESIDUE      1      MOL     
@<SCITEGIC>MOL_PROPERTY
VM2 Rank
SciTegic.value.IntegerValue
28

@<SCITEGIC>MOL_PROPERTY
Conf_Id
SciTegic.value.IntegerValue
714

@<SCITEGIC>MOL_PROPERTY
Probability
SciTegic.value.DoubleValue
0.58

@<SCITEGIC>MOL_PROPERTY
Sum Probability
SciTegic.value.DoubleValue
88.43

@<SCITEGIC>MOL_PROPERTY
Delta G
SciTegic.value.DoubleValue
2.246

@<SCITEGIC>MOL_PROPERTY
G
SciTegic.value.DoubleValue
-5.716

@<SCITEGIC>MOL_PROPERTY
E
SciTegic.value.DoubleValue
-30.531

@<SCITEGIC>MOL_PROPERTY
-TS
SciTegic.value.DoubleValue
24.814

@<SCITEGIC>MOL_PROPERTY
U+W
SciTegic.value.DoubleValue
-51.098

@<SCITEGIC>MOL_PROPERTY
U
SciTegic.value.DoubleValue
8.902

@<SCITEGIC>MOL_PROPERTY
W
SciTegic.value.DoubleValue
-60.001

@<SCITEGIC>MOL_PROPERTY
W(PB)
SciTegic.value.DoubleValue
-62.477

@<SCITEGIC>MOL_PROPERTY
W(SA)
SciTegic.value.DoubleValue
2.477

@<SCITEGIC>MOL_PROPERTY
Valence
SciTegic.value.DoubleValue
8.306

@<SCITEGIC>MOL_PROPERTY
Coulomb
SciTegic.value.DoubleValue
-0.225

@<SCITEGIC>MOL_PROPERTY
VdW
SciTegic.value.DoubleValue
0.821

@<SCITEGIC>MOL_PROPERTY
VdW6
SciTegic.value.DoubleValue
-9.236

@<SCITEGIC>MOL_PROPERTY
VdW12
SciTegic.value.DoubleValue
10.057

@<SCITEGIC>MOL_PROPERTY
Bond
SciTegic.value.DoubleValue
0.173

@<SCITEGIC>MOL_PROPERTY
Angle
SciTegic.value.DoubleValue
2.663

@<SCITEGIC>MOL_PROPERTY
Pdih
SciTegic.value.DoubleValue
5.469

@<SCITEGIC>MOL_PROPERTY
Idih
SciTegic.value.DoubleValue
0.001

@<SCITEGIC>MOL_PROPERTY
Tether
SciTegic.value.DoubleValue
0.000

@<TRIPOS>MOLECULE
guest-8_vm2.mol2 : vm2 ligand conformer 29
          25          24           1
SMALL
USER_CHARGES
 
@<TRIPOS>ATOM
       1    C1      20.133288   19.608566   27.263838 C.2        1 MOL1         0.6168
       2    O1      21.098936   20.270332   27.590449 O.co2      1 MOL1        -0.6703
       3    O2      18.984827   19.982982   27.397371 O.co2      1 MOL1        -0.6703
       4    C2      20.378296   18.224133   26.670288 C.3        1 MOL1        -0.1963
       5    H1      19.454351   17.639096   26.753318 H          1 MOL1         0.0750
       6    H2      21.126820   17.726189   27.297775 H          1 MOL1         0.0750
       7    C3      20.867749   18.246735   25.198941 C.3        1 MOL1        -0.1860
       8    H3      21.777360   18.859228   25.127361 H          1 MOL1         0.0752
       9    H4      21.148743   17.227514   24.901012 H          1 MOL1         0.0752
      10    C4      19.796244   18.785102   24.224313 C.3        1 MOL1        -0.1858
      11    H5      19.522622   19.811630   24.504984 H          1 MOL1         0.0752
      12    H6      18.884625   18.177989   24.309881 H          1 MOL1         0.0752
      13    C5      20.293051   18.768928   22.762453 C.3        1 MOL1        -0.1858
      14    H7      21.206635   19.372868   22.686939 H          1 MOL1         0.0752
      15    H8      20.561553   17.742645   22.477202 H          1 MOL1         0.0752
      16    C6      19.221397   19.311753   21.788951 C.3        1 MOL1        -0.1858
      17    H9      18.987603   20.355299   22.040511 H          1 MOL1         0.0752
      18    H10     18.291896   18.742779   21.927486 H          1 MOL1         0.0752
      19    C7      19.637173   19.218701   20.302323 C.3        1 MOL1        -0.1834
      20    H11     19.865603   18.175057   20.045536 H          1 MOL1         0.0752
      21    H12     18.781684   19.511550   19.678133 H          1 MOL1         0.0752
      22    C8      20.842038   20.116770   19.947072 C.3        1 MOL1        -0.2849
      23    H13     21.752927   19.787639   20.462493 H          1 MOL1         0.0764
      24    H14     21.040702   20.083327   18.868037 H          1 MOL1         0.0764
      25    H15     20.648197   21.161534   20.222787 H          1 MOL1         0.0764
@<TRIPOS>BOND
    1     1     2    1
    2     1     3    2
    3     1     4    1
    4     4     5    1
    5     4     6    1
    6     4     7    1
    7     7     8    1
    8     7     9    1
    9     7    10    1
   10    10    11    1
   11    10    12    1
   12    10    13    1
   13    13    14    1
   14    13    15    1
   15    13    16    1
   16    16    17    1
   17    16    18    1
   18    16    19    1
   19    19    20    1
   20    19    21    1
   21    19    22    1
   22    22    23    1
   23    22    24    1
   24    22    25    1
@<TRIPOS>SUBSTRUCTURE
       1 MOL1            1 RESIDUE      1      MOL     
@<SCITEGIC>MOL_PROPERTY
VM2 Rank
SciTegic.value.IntegerValue
29

@<SCITEGIC>MOL_PROPERTY
Conf_Id
SciTegic.value.IntegerValue
458

@<SCITEGIC>MOL_PROPERTY
Probability
SciTegic.value.DoubleValue
0.57

@<SCITEGIC>MOL_PROPERTY
Sum Probability
SciTegic.value.DoubleValue
89.00

@<SCITEGIC>MOL_PROPERTY
Delta G
SciTegic.value.DoubleValue
2.258

@<SCITEGIC>MOL_PROPERTY
G
SciTegic.value.DoubleValue
-5.704

@<SCITEGIC>MOL_PROPERTY
E
SciTegic.value.DoubleValue
-30.526

@<SCITEGIC>MOL_PROPERTY
-TS
SciTegic.value.DoubleValue
24.821

@<SCITEGIC>MOL_PROPERTY
U+W
SciTegic.value.DoubleValue
-51.093

@<SCITEGIC>MOL_PROPERTY
U
SciTegic.value.DoubleValue
8.782

@<SCITEGIC>MOL_PROPERTY
W
SciTegic.value.DoubleValue
-59.875

@<SCITEGIC>MOL_PROPERTY
W(PB)
SciTegic.value.DoubleValue
-62.360

@<SCITEGIC>MOL_PROPERTY
W(SA)
SciTegic.value.DoubleValue
2.484

@<SCITEGIC>MOL_PROPERTY
Valence
SciTegic.value.DoubleValue
8.287

@<SCITEGIC>MOL_PROPERTY
Coulomb
SciTegic.value.DoubleValue
-0.382

@<SCITEGIC>MOL_PROPERTY
VdW
SciTegic.value.DoubleValue
0.877

@<SCITEGIC>MOL_PROPERTY
VdW6
SciTegic.value.DoubleValue
-9.130

@<SCITEGIC>MOL_PROPERTY
VdW12
SciTegic.value.DoubleValue
10.007

@<SCITEGIC>MOL_PROPERTY
Bond
SciTegic.value.DoubleValue
0.167

@<SCITEGIC>MOL_PROPERTY
Angle
SciTegic.value.DoubleValue
2.660

@<SCITEGIC>MOL_PROPERTY
Pdih
SciTegic.value.DoubleValue
5.459

@<SCITEGIC>MOL_PROPERTY
Idih
SciTegic.value.DoubleValue
0.000

@<SCITEGIC>MOL_PROPERTY
Tether
SciTegic.value.DoubleValue
0.000

@<TRIPOS>MOLECULE
guest-8_vm2.mol2 : vm2 ligand conformer 30
          25          24           1
SMALL
USER_CHARGES
 
@<TRIPOS>ATOM
       1    C1      20.115458   19.290268   27.403035 C.2        1 MOL1         0.6168
       2    O1      21.213726   19.655958   27.773334 O.co2      1 MOL1        -0.6703
       3    O2      19.074343   19.750675   27.828713 O.co2      1 MOL1        -0.6703
       4    C2      20.036805   18.179752   26.359150 C.3        1 MOL1        -0.1963
       5    H1      19.286234   17.459093   26.704499 H          1 MOL1         0.0750
       6    H2      20.997532   17.651246   26.336496 H          1 MOL1         0.0750
       7    C3      19.663867   18.674052   24.937132 C.3        1 MOL1        -0.1860
       8    H3      19.481211   17.798123   24.301865 H          1 MOL1         0.0752
       9    H4      18.720452   19.235557   24.982919 H          1 MOL1         0.0752
      10    C4      20.768809   19.554920   24.305798 C.3        1 MOL1        -0.1858
      11    H5      21.699757   18.977857   24.221263 H          1 MOL1         0.0752
      12    H6      20.986918   20.396367   24.977655 H          1 MOL1         0.0752
      13    C5      20.385325   20.126465   22.920047 C.3        1 MOL1        -0.1858
      14    H7      19.454722   20.704044   23.005377 H          1 MOL1         0.0752
      15    H8      21.164069   20.836623   22.610040 H          1 MOL1         0.0752
      16    C6      20.229507   19.044331   21.826421 C.3        1 MOL1        -0.1858
      17    H9      19.401690   18.370031   22.081010 H          1 MOL1         0.0752
      18    H10     21.140820   18.432436   21.782778 H          1 MOL1         0.0752
      19    C7      19.962084   19.668824   20.440682 C.3        1 MOL1        -0.1834
      20    H11     19.052052   20.283374   20.481175 H          1 MOL1         0.0752
      21    H12     20.788981   20.340123   20.170441 H          1 MOL1         0.0752
      22    C8      19.803077   18.588755   19.351689 C.3        1 MOL1        -0.2849
      23    H13     19.614096   19.050215   18.373730 H          1 MOL1         0.0764
      24    H14     20.711737   17.978188   19.268489 H          1 MOL1         0.0764
      25    H15     18.961501   17.921654   19.579961 H          1 MOL1         0.0764
@<TRIPOS>BOND
    1     1     2    1
    2     1     3    2
    3     1     4    1
    4     4     5    1
    5     4     6    1
    6     4     7    1
    7     7     8    1
    8     7     9    1
    9     7    10    1
   10    10    11    1
   11    10    12    1
   12    10    13    1
   13    13    14    1
   14    13    15    1
   15    13    16    1
   16    16    17    1
   17    16    18    1
   18    16    19    1
   19    19    20    1
   20    19    21    1
   21    19    22    1
   22    22    23    1
   23    22    24    1
   24    22    25    1
@<TRIPOS>SUBSTRUCTURE
       1 MOL1            1 RESIDUE      1      MOL     
@<SCITEGIC>MOL_PROPERTY
VM2 Rank
SciTegic.value.IntegerValue
30

@<SCITEGIC>MOL_PROPERTY
Conf_Id
SciTegic.value.IntegerValue
943

@<SCITEGIC>MOL_PROPERTY
Probability
SciTegic.value.DoubleValue
0.57

@<SCITEGIC>MOL_PROPERTY
Sum Probability
SciTegic.value.DoubleValue
89.57

@<SCITEGIC>MOL_PROPERTY
Delta G
SciTegic.value.DoubleValue
2.260

@<SCITEGIC>MOL_PROPERTY
G
SciTegic.value.DoubleValue
-5.702

@<SCITEGIC>MOL_PROPERTY
E
SciTegic.value.DoubleValue
-30.523

@<SCITEGIC>MOL_PROPERTY
-TS
SciTegic.value.DoubleValue
24.821

@<SCITEGIC>MOL_PROPERTY
U+W
SciTegic.value.DoubleValue
-51.091

@<SCITEGIC>MOL_PROPERTY
U
SciTegic.value.DoubleValue
8.377

@<SCITEGIC>MOL_PROPERTY
W
SciTegic.value.DoubleValue
-59.468

@<SCITEGIC>MOL_PROPERTY
W(PB)
SciTegic.value.DoubleValue
-61.944

@<SCITEGIC>MOL_PROPERTY
W(SA)
SciTegic.value.DoubleValue
2.476

@<SCITEGIC>MOL_PROPERTY
Valence
SciTegic.value.DoubleValue
8.357

@<SCITEGIC>MOL_PROPERTY
Coulomb
SciTegic.value.DoubleValue
-0.892

@<SCITEGIC>MOL_PROPERTY
VdW
SciTegic.value.DoubleValue
0.912

@<SCITEGIC>MOL_PROPERTY
VdW6
SciTegic.value.DoubleValue
-9.161

@<SCITEGIC>MOL_PROPERTY
VdW12
SciTegic.value.DoubleValue
10.073

@<SCITEGIC>MOL_PROPERTY
Bond
SciTegic.value.DoubleValue
0.177

@<SCITEGIC>MOL_PROPERTY
Angle
SciTegic.value.DoubleValue
2.702

@<SCITEGIC>MOL_PROPERTY
Pdih
SciTegic.value.DoubleValue
5.478

@<SCITEGIC>MOL_PROPERTY
Idih
SciTegic.value.DoubleValue
0.000

@<SCITEGIC>MOL_PROPERTY
Tether
SciTegic.value.DoubleValue
0.000

@<TRIPOS>MOLECULE
guest-8_vm2.mol2 : vm2 ligand conformer 31
          25          24           1
SMALL
USER_CHARGES
 
@<TRIPOS>ATOM
       1    C1      19.959383   18.945959   27.154722 C.2        1 MOL1         0.6168
       2    O1      21.015062   18.512731   27.572953 O.co2      1 MOL1        -0.6703
       3    O2      18.910932   18.333971   27.212139 O.co2      1 MOL1        -0.6703
       4    C2      19.943417   20.343032   26.540827 C.3        1 MOL1        -0.1963
       5    H1      20.834965   20.884416   26.879676 H          1 MOL1         0.0750
       6    H2      19.075614   20.872328   26.951615 H          1 MOL1         0.0750
       7    C3      19.868365   20.348716   24.991880 C.3        1 MOL1        -0.1860
       8    H3      18.979942   19.785441   24.677087 H          1 MOL1         0.0752
       9    H4      19.729472   21.381555   24.645154 H          1 MOL1         0.0752
      10    C4      21.138205   19.755791   24.335603 C.3        1 MOL1        -0.1858
      11    H5      21.247318   18.700183   24.620397 H          1 MOL1         0.0752
      12    H6      22.020953   20.275636   24.732295 H          1 MOL1         0.0752
      13    C5      21.148498   19.877003   22.793225 C.3        1 MOL1        -0.1858
      14    H7      21.048415   20.932671   22.506177 H          1 MOL1         0.0752
      15    H8      22.129446   19.546651   22.425166 H          1 MOL1         0.0752
      16    C6      20.045655   19.041790   22.102435 C.3        1 MOL1        -0.1858
      17    H9      19.055163   19.408585   22.401290 H          1 MOL1         0.0752
      18    H10     20.114571   17.996813   22.434348 H          1 MOL1         0.0752
      19    C7      20.163050   19.102657   20.564819 C.3        1 MOL1        -0.1834
      20    H11     20.096306   20.147016   20.229679 H          1 MOL1         0.0752
      21    H12     21.148412   18.729531   20.252950 H          1 MOL1         0.0752
      22    C8      19.060433   18.272351   19.877397 C.3        1 MOL1        -0.2849
      23    H13     18.063166   18.644504   20.146363 H          1 MOL1         0.0764
      24    H14     19.159247   18.326551   18.785447 H          1 MOL1         0.0764
      25    H15     19.123082   17.216419   20.171448 H          1 MOL1         0.0764
@<TRIPOS>BOND
    1     1     2    1
    2     1     3    2
    3     1     4    1
    4     4     5    1
    5     4     6    1
    6     4     7    1
    7     7     8    1
    8     7     9    1
    9     7    10    1
   10    10    11    1
   11    10    12    1
   12    10    13    1
   13    13    14    1
   14    13    15    1
   15    13    16    1
   16    16    17    1
   17    16    18    1
   18    16    19    1
   19    19    20    1
   20    19    21    1
   21    19    22    1
   22    22    23    1
   23    22    24    1
   24    22    25    1
@<TRIPOS>SUBSTRUCTURE
       1 MOL1            1 RESIDUE      1      MOL     
@<SCITEGIC>MOL_PROPERTY
VM2 Rank
SciTegic.value.IntegerValue
31

@<SCITEGIC>MOL_PROPERTY
Conf_Id
SciTegic.value.IntegerValue
1110

@<SCITEGIC>MOL_PROPERTY
Probability
SciTegic.value.DoubleValue
0.53

@<SCITEGIC>MOL_PROPERTY
Sum Probability
SciTegic.value.DoubleValue
90.10

@<SCITEGIC>MOL_PROPERTY
Delta G
SciTegic.value.DoubleValue
2.308

@<SCITEGIC>MOL_PROPERTY
G
SciTegic.value.DoubleValue
-5.655

@<SCITEGIC>MOL_PROPERTY
E
SciTegic.value.DoubleValue
-30.469

@<SCITEGIC>MOL_PROPERTY
-TS
SciTegic.value.DoubleValue
24.815

@<SCITEGIC>MOL_PROPERTY
U+W
SciTegic.value.DoubleValue
-51.037

@<SCITEGIC>MOL_PROPERTY
U
SciTegic.value.DoubleValue
8.903

@<SCITEGIC>MOL_PROPERTY
W
SciTegic.value.DoubleValue
-59.940

@<SCITEGIC>MOL_PROPERTY
W(PB)
SciTegic.value.DoubleValue
-62.418

@<SCITEGIC>MOL_PROPERTY
W(SA)
SciTegic.value.DoubleValue
2.478

@<SCITEGIC>MOL_PROPERTY
Valence
SciTegic.value.DoubleValue
8.306

@<SCITEGIC>MOL_PROPERTY
Coulomb
SciTegic.value.DoubleValue
-0.224

@<SCITEGIC>MOL_PROPERTY
VdW
SciTegic.value.DoubleValue
0.821

@<SCITEGIC>MOL_PROPERTY
VdW6
SciTegic.value.DoubleValue
-9.236

@<SCITEGIC>MOL_PROPERTY
VdW12
SciTegic.value.DoubleValue
10.057

@<SCITEGIC>MOL_PROPERTY
Bond
SciTegic.value.DoubleValue
0.173

@<SCITEGIC>MOL_PROPERTY
Angle
SciTegic.value.DoubleValue
2.663

@<SCITEGIC>MOL_PROPERTY
Pdih
SciTegic.value.DoubleValue
5.469

@<SCITEGIC>MOL_PROPERTY
Idih
SciTegic.value.DoubleValue
0.001

@<SCITEGIC>MOL_PROPERTY
Tether
SciTegic.value.DoubleValue
0.000

@<TRIPOS>MOLECULE
guest-8_vm2.mol2 : vm2 ligand conformer 32
          25          24           1
SMALL
USER_CHARGES
 
@<TRIPOS>ATOM
       1    C1      19.821655   19.570749   27.137753 C.2        1 MOL1         0.6168
       2    O1      20.687190   20.125239   27.786220 O.co2      1 MOL1        -0.6703
       3    O2      18.718381   20.042862   26.945788 O.co2      1 MOL1        -0.6703
       4    C2      20.133212   18.197641   26.549098 C.3        1 MOL1        -0.1963
       5    H1      19.187569   17.699159   26.303908 H          1 MOL1         0.0750
       6    H2      20.610178   17.603514   27.337433 H          1 MOL1         0.0750
       7    C3      21.055138   18.240392   25.302796 C.3        1 MOL1        -0.1860
       8    H3      21.986569   18.765033   25.557373 H          1 MOL1         0.0752
       9    H4      21.334745   17.213569   25.030781 H          1 MOL1         0.0752
      10    C4      20.383681   18.923254   24.089980 C.3        1 MOL1        -0.1858
      11    H5      20.121093   19.958716   24.346970 H          1 MOL1         0.0752
      12    H6      19.444822   18.403264   23.859776 H          1 MOL1         0.0752
      13    C5      21.307628   18.919802   22.850176 C.3        1 MOL1        -0.1858
      14    H7      22.269524   19.375968   23.121386 H          1 MOL1         0.0752
      15    H8      21.527007   17.884897   22.554040 H          1 MOL1         0.0752
      16    C6      20.723255   19.691010   21.642737 C.3        1 MOL1        -0.1858
      17    H9      21.491238   19.743858   20.858974 H          1 MOL1         0.0752
      18    H10     20.508457   20.727347   21.937348 H          1 MOL1         0.0752
      19    C7      19.449946   19.042304   21.054197 C.3        1 MOL1        -0.1834
      20    H11     19.649214   17.989794   20.809851 H          1 MOL1         0.0752
      21    H12     18.642402   19.051576   21.797981 H          1 MOL1         0.0752
      22    C8      18.972914   19.780747   19.787255 C.3        1 MOL1        -0.2849
      23    H13     18.740016   20.830446   20.009213 H          1 MOL1         0.0764
      24    H14     19.743193   19.758214   19.005270 H          1 MOL1         0.0764
      25    H15     18.066788   19.310560   19.383633 H          1 MOL1         0.0764
@<TRIPOS>BOND
    1     1     2    1
    2     1     3    2
    3     1     4    1
    4     4     5    1
    5     4     6    1
    6     4     7    1
    7     7     8    1
    8     7     9    1
    9     7    10    1
   10    10    11    1
   11    10    12    1
   12    10    13    1
   13    13    14    1
   14    13    15    1
   15    13    16    1
   16    16    17    1
   17    16    18    1
   18    16    19    1
   19    19    20    1
   20    19    21    1
   21    19    22    1
   22    22    23    1
   23    22    24    1
   24    22    25    1
@<TRIPOS>SUBSTRUCTURE
       1 MOL1            1 RESIDUE      1      MOL     
@<SCITEGIC>MOL_PROPERTY
VM2 Rank
SciTegic.value.IntegerValue
32

@<SCITEGIC>MOL_PROPERTY
Conf_Id
SciTegic.value.IntegerValue
208

@<SCITEGIC>MOL_PROPERTY
Probability
SciTegic.value.DoubleValue
0.53

@<SCITEGIC>MOL_PROPERTY
Sum Probability
SciTegic.value.DoubleValue
90.62

@<SCITEGIC>MOL_PROPERTY
Delta G
SciTegic.value.DoubleValue
2.308

@<SCITEGIC>MOL_PROPERTY
G
SciTegic.value.DoubleValue
-5.654

@<SCITEGIC>MOL_PROPERTY
E
SciTegic.value.DoubleValue
-30.463

@<SCITEGIC>MOL_PROPERTY
-TS
SciTegic.value.DoubleValue
24.809

@<SCITEGIC>MOL_PROPERTY
U+W
SciTegic.value.DoubleValue
-51.030

@<SCITEGIC>MOL_PROPERTY
U
SciTegic.value.DoubleValue
8.998

@<SCITEGIC>MOL_PROPERTY
W
SciTegic.value.DoubleValue
-60.028

@<SCITEGIC>MOL_PROPERTY
W(PB)
SciTegic.value.DoubleValue
-62.528

@<SCITEGIC>MOL_PROPERTY
W(SA)
SciTegic.value.DoubleValue
2.499

@<SCITEGIC>MOL_PROPERTY
Valence
SciTegic.value.DoubleValue
8.322

@<SCITEGIC>MOL_PROPERTY
Coulomb
SciTegic.value.DoubleValue
-0.176

@<SCITEGIC>MOL_PROPERTY
VdW
SciTegic.value.DoubleValue
0.852

@<SCITEGIC>MOL_PROPERTY
VdW6
SciTegic.value.DoubleValue
-9.197

@<SCITEGIC>MOL_PROPERTY
VdW12
SciTegic.value.DoubleValue
10.048

@<SCITEGIC>MOL_PROPERTY
Bond
SciTegic.value.DoubleValue
0.171

@<SCITEGIC>MOL_PROPERTY
Angle
SciTegic.value.DoubleValue
2.683

@<SCITEGIC>MOL_PROPERTY
Pdih
SciTegic.value.DoubleValue
5.468

@<SCITEGIC>MOL_PROPERTY
Idih
SciTegic.value.DoubleValue
0.000

@<SCITEGIC>MOL_PROPERTY
Tether
SciTegic.value.DoubleValue
0.000

@<TRIPOS>MOLECULE
guest-8_vm2.mol2 : vm2 ligand conformer 33
          25          24           1
SMALL
USER_CHARGES
 
@<TRIPOS>ATOM
       1    C1      20.140089   19.608988   27.263811 C.2        1 MOL1         0.6168
       2    O1      21.234349   20.126746   27.371073 O.co2      1 MOL1        -0.6703
       3    O2      19.105954   20.142891   27.613955 O.co2      1 MOL1        -0.6703
       4    C2      20.059505   18.203804   26.673939 C.3        1 MOL1        -0.1963
       5    H1      19.395030   17.615600   27.317731 H          1 MOL1         0.0750
       6    H2      21.052007   17.741119   26.734769 H          1 MOL1         0.0750
       7    C3      19.537378   18.161914   25.214294 C.3        1 MOL1        -0.1860
       8    H3      19.381335   17.114824   24.921401 H          1 MOL1         0.0752
       9    H4      18.555929   18.653803   25.164592 H          1 MOL1         0.0752
      10    C4      20.509081   18.830601   24.216040 C.3        1 MOL1        -0.1858
      11    H5      21.492148   18.344297   24.279659 H          1 MOL1         0.0752
      12    H6      20.656521   19.883970   24.491869 H          1 MOL1         0.0752
      13    C5      19.984781   18.749359   22.765998 C.3        1 MOL1        -0.1858
      14    H7      19.842219   17.696880   22.485495 H          1 MOL1         0.0752
      15    H8      19.000429   19.232340   22.712460 H          1 MOL1         0.0752
      16    C6      20.956132   19.422404   21.768854 C.3        1 MOL1        -0.1858
      17    H9      21.953298   18.976267   21.885124 H          1 MOL1         0.0752
      18    H10     21.061260   20.487564   22.016470 H          1 MOL1         0.0752
      19    C7      20.521418   19.275090   20.292061 C.3        1 MOL1        -0.1834
      20    H11     21.318144   19.673385   19.648768 H          1 MOL1         0.0752
      21    H12     20.421637   18.210503   20.039059 H          1 MOL1         0.0752
      22    C8      19.204314   20.012204   19.965975 C.3        1 MOL1        -0.2849
      23    H13     19.270085   21.073541   20.238671 H          1 MOL1         0.0764
      24    H14     18.986707   19.952177   18.891755 H          1 MOL1         0.0764
      25    H15     18.354766   19.570725   20.501764 H          1 MOL1         0.0764
@<TRIPOS>BOND
    1     1     2    1
    2     1     3    2
    3     1     4    1
    4     4     5    1
    5     4     6    1
    6     4     7    1
    7     7     8    1
    8     7     9    1
    9     7    10    1
   10    10    11    1
   11    10    12    1
   12    10    13    1
   13    13    14    1
   14    13    15    1
   15    13    16    1
   16    16    17    1
   17    16    18    1
   18    16    19    1
   19    19    20    1
   20    19    21    1
   21    19    22    1
   22    22    23    1
   23    22    24    1
   24    22    25    1
@<TRIPOS>SUBSTRUCTURE
       1 MOL1            1 RESIDUE      1      MOL     
@<SCITEGIC>MOL_PROPERTY
VM2 Rank
SciTegic.value.IntegerValue
33

@<SCITEGIC>MOL_PROPERTY
Conf_Id
SciTegic.value.IntegerValue
523

@<SCITEGIC>MOL_PROPERTY
Probability
SciTegic.value.DoubleValue
0.52

@<SCITEGIC>MOL_PROPERTY
Sum Probability
SciTegic.value.DoubleValue
91.14

@<SCITEGIC>MOL_PROPERTY
Delta G
SciTegic.value.DoubleValue
2.312

@<SCITEGIC>MOL_PROPERTY
G
SciTegic.value.DoubleValue
-5.650

@<SCITEGIC>MOL_PROPERTY
E
SciTegic.value.DoubleValue
-30.472

@<SCITEGIC>MOL_PROPERTY
-TS
SciTegic.value.DoubleValue
24.822

@<SCITEGIC>MOL_PROPERTY
U+W
SciTegic.value.DoubleValue
-51.040

@<SCITEGIC>MOL_PROPERTY
U
SciTegic.value.DoubleValue
8.782

@<SCITEGIC>MOL_PROPERTY
W
SciTegic.value.DoubleValue
-59.822

@<SCITEGIC>MOL_PROPERTY
W(PB)
SciTegic.value.DoubleValue
-62.300

@<SCITEGIC>MOL_PROPERTY
W(SA)
SciTegic.value.DoubleValue
2.478

@<SCITEGIC>MOL_PROPERTY
Valence
SciTegic.value.DoubleValue
8.287

@<SCITEGIC>MOL_PROPERTY
Coulomb
SciTegic.value.DoubleValue
-0.382

@<SCITEGIC>MOL_PROPERTY
VdW
SciTegic.value.DoubleValue
0.877

@<SCITEGIC>MOL_PROPERTY
VdW6
SciTegic.value.DoubleValue
-9.130

@<SCITEGIC>MOL_PROPERTY
VdW12
SciTegic.value.DoubleValue
10.007

@<SCITEGIC>MOL_PROPERTY
Bond
SciTegic.value.DoubleValue
0.167

@<SCITEGIC>MOL_PROPERTY
Angle
SciTegic.value.DoubleValue
2.660

@<SCITEGIC>MOL_PROPERTY
Pdih
SciTegic.value.DoubleValue
5.459

@<SCITEGIC>MOL_PROPERTY
Idih
SciTegic.value.DoubleValue
0.000

@<SCITEGIC>MOL_PROPERTY
Tether
SciTegic.value.DoubleValue
0.000

@<TRIPOS>MOLECULE
guest-8_vm2.mol2 : vm2 ligand conformer 34
          25          24           1
SMALL
USER_CHARGES
 
@<TRIPOS>ATOM
       1    C1      19.866983   19.746833   27.004744 C.2        1 MOL1         0.6168
       2    O1      20.727182   20.478735   27.453619 O.co2      1 MOL1        -0.6703
       3    O2      18.718138   20.095465   26.816157 O.co2      1 MOL1        -0.6703
       4    C2      20.248248   18.305516   26.678569 C.3        1 MOL1        -0.1963
       5    H1      19.331993   17.705549   26.620669 H          1 MOL1         0.0750
       6    H2      20.827260   17.919899   27.525921 H          1 MOL1         0.0750
       7    C3      21.072947   18.151095   25.374300 C.3        1 MOL1        -0.1860
       8    H3      21.971941   18.780169   25.435409 H          1 MOL1         0.0752
       9    H4      21.419133   17.111854   25.292928 H          1 MOL1         0.0752
      10    C4      20.262039   18.519202   24.111347 C.3        1 MOL1        -0.1858
      11    H5      19.924561   19.560965   24.188907 H          1 MOL1         0.0752
      12    H6      19.360314   17.893963   24.059259 H          1 MOL1         0.0752
      13    C5      21.096519   18.332205   22.823125 C.3        1 MOL1        -0.1858
      14    H7      21.970700   18.997078   22.848633 H          1 MOL1         0.0752
      15    H8      21.487400   17.305881   22.796694 H          1 MOL1         0.0752
      16    C6      20.292678   18.583293   21.525034 C.3        1 MOL1        -0.1858
      17    H9      19.420818   17.915481   21.497238 H          1 MOL1         0.0752
      18    H10     20.921908   18.308207   20.667552 H          1 MOL1         0.0752
      19    C7      19.831560   20.049012   21.358740 C.3        1 MOL1        -0.1834
      20    H11     19.136563   20.320709   22.164159 H          1 MOL1         0.0752
      21    H12     20.696652   20.721328   21.441192 H          1 MOL1         0.0752
      22    C8      19.136705   20.272645   20.000365 C.3        1 MOL1        -0.2849
      23    H13     18.250861   19.631495   19.902525 H          1 MOL1         0.0764
      24    H14     18.812436   21.316503   19.899073 H          1 MOL1         0.0764
      25    H15     19.816962   20.047129   19.168664 H          1 MOL1         0.0764
@<TRIPOS>BOND
    1     1     2    1
    2     1     3    2
    3     1     4    1
    4     4     5    1
    5     4     6    1
    6     4     7    1
    7     7     8    1
    8     7     9    1
    9     7    10    1
   10    10    11    1
   11    10    12    1
   12    10    13    1
   13    13    14    1
   14    13    15    1
   15    13    16    1
   16    16    17    1
   17    16    18    1
   18    16    19    1
   19    19    20    1
   20    19    21    1
   21    19    22    1
   22    22    23    1
   23    22    24    1
   24    22    25    1
@<TRIPOS>SUBSTRUCTURE
       1 MOL1            1 RESIDUE      1      MOL     
@<SCITEGIC>MOL_PROPERTY
VM2 Rank
SciTegic.value.IntegerValue
34

@<SCITEGIC>MOL_PROPERTY
Conf_Id
SciTegic.value.IntegerValue
693

@<SCITEGIC>MOL_PROPERTY
Probability
SciTegic.value.DoubleValue
0.51

@<SCITEGIC>MOL_PROPERTY
Sum Probability
SciTegic.value.DoubleValue
91.66

@<SCITEGIC>MOL_PROPERTY
Delta G
SciTegic.value.DoubleValue
2.323

@<SCITEGIC>MOL_PROPERTY
G
SciTegic.value.DoubleValue
-5.639

@<SCITEGIC>MOL_PROPERTY
E
SciTegic.value.DoubleValue
-30.458

@<SCITEGIC>MOL_PROPERTY
-TS
SciTegic.value.DoubleValue
24.819

@<SCITEGIC>MOL_PROPERTY
U+W
SciTegic.value.DoubleValue
-51.026

@<SCITEGIC>MOL_PROPERTY
U
SciTegic.value.DoubleValue
9.231

@<SCITEGIC>MOL_PROPERTY
W
SciTegic.value.DoubleValue
-60.257

@<SCITEGIC>MOL_PROPERTY
W(PB)
SciTegic.value.DoubleValue
-62.740

@<SCITEGIC>MOL_PROPERTY
W(SA)
SciTegic.value.DoubleValue
2.483

@<SCITEGIC>MOL_PROPERTY
Valence
SciTegic.value.DoubleValue
8.319

@<SCITEGIC>MOL_PROPERTY
Coulomb
SciTegic.value.DoubleValue
0.075

@<SCITEGIC>MOL_PROPERTY
VdW
SciTegic.value.DoubleValue
0.838

@<SCITEGIC>MOL_PROPERTY
VdW6
SciTegic.value.DoubleValue
-9.234

@<SCITEGIC>MOL_PROPERTY
VdW12
SciTegic.value.DoubleValue
10.072

@<SCITEGIC>MOL_PROPERTY
Bond
SciTegic.value.DoubleValue
0.172

@<SCITEGIC>MOL_PROPERTY
Angle
SciTegic.value.DoubleValue
2.679

@<SCITEGIC>MOL_PROPERTY
Pdih
SciTegic.value.DoubleValue
5.467

@<SCITEGIC>MOL_PROPERTY
Idih
SciTegic.value.DoubleValue
0.000

@<SCITEGIC>MOL_PROPERTY
Tether
SciTegic.value.DoubleValue
0.000

@<TRIPOS>MOLECULE
guest-8_vm2.mol2 : vm2 ligand conformer 35
          25          24           1
SMALL
USER_CHARGES
 
@<TRIPOS>ATOM
       1    C1      20.380391   19.779786   26.998775 C.2        1 MOL1         0.6168
       2    O1      21.470865   20.271733   26.784746 O.co2      1 MOL1        -0.6703
       3    O2      19.444231   20.396787   27.467841 O.co2      1 MOL1        -0.6703
       4    C2      20.178751   18.301096   26.679453 C.3        1 MOL1        -0.1963
       5    H1      19.673272   17.846088   27.539348 H          1 MOL1         0.0750
       6    H2      21.162493   17.822840   26.599705 H          1 MOL1         0.0750
       7    C3      19.350783   18.040672   25.394252 C.3        1 MOL1        -0.1860
       8    H3      19.138363   16.965609   25.319356 H          1 MOL1         0.0752
       9    H4      18.380459   18.549887   25.476914 H          1 MOL1         0.0752
      10    C4      20.078803   18.507436   24.113528 C.3        1 MOL1        -0.1858
      11    H5      21.051573   18.002426   24.039841 H          1 MOL1         0.0752
      12    H6      20.282133   19.583891   24.184809 H          1 MOL1         0.0752
      13    C5      19.245674   18.213424   22.844550 C.3        1 MOL1        -0.1858
      14    H7      18.988645   17.145526   22.825618 H          1 MOL1         0.0752
      15    H8      18.294516   18.761172   22.891114 H          1 MOL1         0.0752
      16    C6      19.980789   18.563236   21.528689 C.3        1 MOL1        -0.1858
      17    H9      19.372396   18.208597   20.685500 H          1 MOL1         0.0752
      18    H10     20.930030   18.012374   21.479947 H          1 MOL1         0.0752
      19    C7      20.246701   20.075637   21.353885 C.3        1 MOL1        -0.1834
      20    H11     19.304820   20.631890   21.457010 H          1 MOL1         0.0752
      21    H12     20.919448   20.435280   22.143574 H          1 MOL1         0.0752
      22    C8      20.876012   20.384192   19.980282 C.3        1 MOL1        -0.2849
      23    H13     20.211362   20.072216   19.164043 H          1 MOL1         0.0764
      24    H14     21.061688   21.460797   19.873040 H          1 MOL1         0.0764
      25    H15     21.834126   19.861476   19.861329 H          1 MOL1         0.0764
@<TRIPOS>BOND
    1     1     2    1
    2     1     3    2
    3     1     4    1
    4     4     5    1
    5     4     6    1
    6     4     7    1
    7     7     8    1
    8     7     9    1
    9     7    10    1
   10    10    11    1
   11    10    12    1
   12    10    13    1
   13    13    14    1
   14    13    15    1
   15    13    16    1
   16    16    17    1
   17    16    18    1
   18    16    19    1
   19    19    20    1
   20    19    21    1
   21    19    22    1
   22    22    23    1
   23    22    24    1
   24    22    25    1
@<TRIPOS>SUBSTRUCTURE
       1 MOL1            1 RESIDUE      1      MOL     
@<SCITEGIC>MOL_PROPERTY
VM2 Rank
SciTegic.value.IntegerValue
35

@<SCITEGIC>MOL_PROPERTY
Conf_Id
SciTegic.value.IntegerValue
491

@<SCITEGIC>MOL_PROPERTY
Probability
SciTegic.value.DoubleValue
0.51

@<SCITEGIC>MOL_PROPERTY
Sum Probability
SciTegic.value.DoubleValue
92.17

@<SCITEGIC>MOL_PROPERTY
Delta G
SciTegic.value.DoubleValue
2.324

@<SCITEGIC>MOL_PROPERTY
G
SciTegic.value.DoubleValue
-5.638

@<SCITEGIC>MOL_PROPERTY
E
SciTegic.value.DoubleValue
-30.458

@<SCITEGIC>MOL_PROPERTY
-TS
SciTegic.value.DoubleValue
24.820

@<SCITEGIC>MOL_PROPERTY
U+W
SciTegic.value.DoubleValue
-51.026

@<SCITEGIC>MOL_PROPERTY
U
SciTegic.value.DoubleValue
9.231

@<SCITEGIC>MOL_PROPERTY
W
SciTegic.value.DoubleValue
-60.257

@<SCITEGIC>MOL_PROPERTY
W(PB)
SciTegic.value.DoubleValue
-62.751

@<SCITEGIC>MOL_PROPERTY
W(SA)
SciTegic.value.DoubleValue
2.494

@<SCITEGIC>MOL_PROPERTY
Valence
SciTegic.value.DoubleValue
8.319

@<SCITEGIC>MOL_PROPERTY
Coulomb
SciTegic.value.DoubleValue
0.075

@<SCITEGIC>MOL_PROPERTY
VdW
SciTegic.value.DoubleValue
0.838

@<SCITEGIC>MOL_PROPERTY
VdW6
SciTegic.value.DoubleValue
-9.234

@<SCITEGIC>MOL_PROPERTY
VdW12
SciTegic.value.DoubleValue
10.072

@<SCITEGIC>MOL_PROPERTY
Bond
SciTegic.value.DoubleValue
0.172

@<SCITEGIC>MOL_PROPERTY
Angle
SciTegic.value.DoubleValue
2.679

@<SCITEGIC>MOL_PROPERTY
Pdih
SciTegic.value.DoubleValue
5.467

@<SCITEGIC>MOL_PROPERTY
Idih
SciTegic.value.DoubleValue
0.000

@<SCITEGIC>MOL_PROPERTY
Tether
SciTegic.value.DoubleValue
0.000

@<TRIPOS>MOLECULE
guest-8_vm2.mol2 : vm2 ligand conformer 36
          25          24           1
SMALL
USER_CHARGES
 
@<TRIPOS>ATOM
       1    C1      20.201510   19.295801   27.402026 C.2        1 MOL1         0.6168
       2    O1      21.185240   19.885403   27.804198 O.co2      1 MOL1        -0.6703
       3    O2      19.074530   19.519527   27.798138 O.co2      1 MOL1        -0.6703
       4    C2      20.396504   18.202691   26.355023 C.3        1 MOL1        -0.1963
       5    H1      19.510447   17.556371   26.353801 H          1 MOL1         0.0750
       6    H2      21.240324   17.583761   26.681927 H          1 MOL1         0.0750
       7    C3      20.670698   18.738206   24.925480 C.3        1 MOL1        -0.1860
       8    H3      21.535907   19.415118   24.950288 H          1 MOL1         0.0752
       9    H4      20.948493   17.891627   24.284924 H          1 MOL1         0.0752
      10    C4      19.448507   19.470541   24.321044 C.3        1 MOL1        -0.1858
      11    H5      19.140695   20.278392   24.999000 H          1 MOL1         0.0752
      12    H6      18.596786   18.779679   24.257069 H          1 MOL1         0.0752
      13    C5      19.724244   20.084219   22.927702 C.3        1 MOL1        -0.1858
      14    H7      18.854581   20.689105   22.636718 H          1 MOL1         0.0752
      15    H8      20.575533   20.775603   22.992500 H          1 MOL1         0.0752
      16    C6      19.991294   19.029124   21.829173 C.3        1 MOL1        -0.1858
      17    H9      19.164484   18.306186   21.805576 H          1 MOL1         0.0752
      18    H10     20.903810   18.466003   22.063668 H          1 MOL1         0.0752
      19    C7      20.145158   19.680558   20.438583 C.3        1 MOL1        -0.1834
      20    H11     19.233548   20.240739   20.188390 H          1 MOL1         0.0752
      21    H12     20.970245   20.406012   20.459079 H          1 MOL1         0.0752
      22    C8      20.415316   18.627930   19.344633 C.3        1 MOL1        -0.2849
      23    H13     19.590090   17.906555   19.281394 H          1 MOL1         0.0764
      24    H14     20.521544   19.108269   18.363280 H          1 MOL1         0.0764
      25    H15     21.339970   18.073703   19.552553 H          1 MOL1         0.0764
@<TRIPOS>BOND
    1     1     2    1
    2     1     3    2
    3     1     4    1
    4     4     5    1
    5     4     6    1
    6     4     7    1
    7     7     8    1
    8     7     9    1
    9     7    10    1
   10    10    11    1
   11    10    12    1
   12    10    13    1
   13    13    14    1
   14    13    15    1
   15    13    16    1
   16    16    17    1
   17    16    18    1
   18    16    19    1
   19    19    20    1
   20    19    21    1
   21    19    22    1
   22    22    23    1
   23    22    24    1
   24    22    25    1
@<TRIPOS>SUBSTRUCTURE
       1 MOL1            1 RESIDUE      1      MOL     
@<SCITEGIC>MOL_PROPERTY
VM2 Rank
SciTegic.value.IntegerValue
36

@<SCITEGIC>MOL_PROPERTY
Conf_Id
SciTegic.value.IntegerValue
987

@<SCITEGIC>MOL_PROPERTY
Probability
SciTegic.value.DoubleValue
0.51

@<SCITEGIC>MOL_PROPERTY
Sum Probability
SciTegic.value.DoubleValue
92.68

@<SCITEGIC>MOL_PROPERTY
Delta G
SciTegic.value.DoubleValue
2.324

@<SCITEGIC>MOL_PROPERTY
G
SciTegic.value.DoubleValue
-5.638

@<SCITEGIC>MOL_PROPERTY
E
SciTegic.value.DoubleValue
-30.459

@<SCITEGIC>MOL_PROPERTY
-TS
SciTegic.value.DoubleValue
24.821

@<SCITEGIC>MOL_PROPERTY
U+W
SciTegic.value.DoubleValue
-51.027

@<SCITEGIC>MOL_PROPERTY
U
SciTegic.value.DoubleValue
8.377

@<SCITEGIC>MOL_PROPERTY
W
SciTegic.value.DoubleValue
-59.403

@<SCITEGIC>MOL_PROPERTY
W(PB)
SciTegic.value.DoubleValue
-61.869

@<SCITEGIC>MOL_PROPERTY
W(SA)
SciTegic.value.DoubleValue
2.466

@<SCITEGIC>MOL_PROPERTY
Valence
SciTegic.value.DoubleValue
8.357

@<SCITEGIC>MOL_PROPERTY
Coulomb
SciTegic.value.DoubleValue
-0.892

@<SCITEGIC>MOL_PROPERTY
VdW
SciTegic.value.DoubleValue
0.912

@<SCITEGIC>MOL_PROPERTY
VdW6
SciTegic.value.DoubleValue
-9.161

@<SCITEGIC>MOL_PROPERTY
VdW12
SciTegic.value.DoubleValue
10.073

@<SCITEGIC>MOL_PROPERTY
Bond
SciTegic.value.DoubleValue
0.177

@<SCITEGIC>MOL_PROPERTY
Angle
SciTegic.value.DoubleValue
2.702

@<SCITEGIC>MOL_PROPERTY
Pdih
SciTegic.value.DoubleValue
5.478

@<SCITEGIC>MOL_PROPERTY
Idih
SciTegic.value.DoubleValue
0.000

@<SCITEGIC>MOL_PROPERTY
Tether
SciTegic.value.DoubleValue
0.000

@<TRIPOS>MOLECULE
guest-8_vm2.mol2 : vm2 ligand conformer 37
          25          24           1
SMALL
USER_CHARGES
 
@<TRIPOS>ATOM
       1    C1      19.830589   19.042698   27.148659 C.2        1 MOL1         0.6168
       2    O1      20.714081   18.545040   27.818659 O.co2      1 MOL1        -0.6703
       3    O2      18.744222   18.525736   26.976865 O.co2      1 MOL1        -0.6703
       4    C2      20.095738   20.400154   26.503665 C.3        1 MOL1        -0.1963
       5    H1      20.551671   21.042151   27.266501 H          1 MOL1         0.0750
       6    H2      19.133877   20.855677   26.238773 H          1 MOL1         0.0750
       7    C3      21.019472   20.337397   25.259549 C.3        1 MOL1        -0.1860
       8    H3      21.264192   21.361035   24.945199 H          1 MOL1         0.0752
       9    H4      21.968025   19.855684   25.534908 H          1 MOL1         0.0752
      10    C4      20.372471   19.582631   24.076420 C.3        1 MOL1        -0.1858
      11    H5      19.416669   20.060501   23.825576 H          1 MOL1         0.0752
      12    H6      20.144998   18.550350   24.376132 H          1 MOL1         0.0752
      13    C5      21.296659   19.566228   22.836901 C.3        1 MOL1        -0.1858
      14    H7      21.481020   20.594869   22.498132 H          1 MOL1         0.0752
      15    H8      22.273279   19.154537   23.126055 H          1 MOL1         0.0752
      16    C6      20.739629   18.726445   21.662742 C.3        1 MOL1        -0.1858
      17    H9      20.559882   17.696468   22.000045 H          1 MOL1         0.0752
      18    H10     21.509518   18.667348   20.881297 H          1 MOL1         0.0752
      19    C7      19.445470   19.306752   21.048808 C.3        1 MOL1        -0.1834
      20    H11     18.638171   19.300779   21.792891 H          1 MOL1         0.0752
      21    H12     19.609095   20.354441   20.761115 H          1 MOL1         0.0752
      22    C8      18.994668   18.500920   19.813733 C.3        1 MOL1        -0.2849
      23    H13     18.797356   17.453973   20.078958 H          1 MOL1         0.0764
      24    H14     18.073400   18.923048   19.391685 H          1 MOL1         0.0764
      25    H15     19.764295   18.517299   19.030954 H          1 MOL1         0.0764
@<TRIPOS>BOND
    1     1     2    1
    2     1     3    2
    3     1     4    1
    4     4     5    1
    5     4     6    1
    6     4     7    1
    7     7     8    1
    8     7     9    1
    9     7    10    1
   10    10    11    1
   11    10    12    1
   12    10    13    1
   13    13    14    1
   14    13    15    1
   15    13    16    1
   16    16    17    1
   17    16    18    1
   18    16    19    1
   19    19    20    1
   20    19    21    1
   21    19    22    1
   22    22    23    1
   23    22    24    1
   24    22    25    1
@<TRIPOS>SUBSTRUCTURE
       1 MOL1            1 RESIDUE      1      MOL     
@<SCITEGIC>MOL_PROPERTY
VM2 Rank
SciTegic.value.IntegerValue
37

@<SCITEGIC>MOL_PROPERTY
Conf_Id
SciTegic.value.IntegerValue
931

@<SCITEGIC>MOL_PROPERTY
Probability
SciTegic.value.DoubleValue
0.50

@<SCITEGIC>MOL_PROPERTY
Sum Probability
SciTegic.value.DoubleValue
93.18

@<SCITEGIC>MOL_PROPERTY
Delta G
SciTegic.value.DoubleValue
2.333

@<SCITEGIC>MOL_PROPERTY
G
SciTegic.value.DoubleValue
-5.629

@<SCITEGIC>MOL_PROPERTY
E
SciTegic.value.DoubleValue
-30.439

@<SCITEGIC>MOL_PROPERTY
-TS
SciTegic.value.DoubleValue
24.809

@<SCITEGIC>MOL_PROPERTY
U+W
SciTegic.value.DoubleValue
-51.006

@<SCITEGIC>MOL_PROPERTY
U
SciTegic.value.DoubleValue
8.999

@<SCITEGIC>MOL_PROPERTY
W
SciTegic.value.DoubleValue
-60.005

@<SCITEGIC>MOL_PROPERTY
W(PB)
SciTegic.value.DoubleValue
-62.484

@<SCITEGIC>MOL_PROPERTY
W(SA)
SciTegic.value.DoubleValue
2.479

@<SCITEGIC>MOL_PROPERTY
Valence
SciTegic.value.DoubleValue
8.322

@<SCITEGIC>MOL_PROPERTY
Coulomb
SciTegic.value.DoubleValue
-0.175

@<SCITEGIC>MOL_PROPERTY
VdW
SciTegic.value.DoubleValue
0.852

@<SCITEGIC>MOL_PROPERTY
VdW6
SciTegic.value.DoubleValue
-9.197

@<SCITEGIC>MOL_PROPERTY
VdW12
SciTegic.value.DoubleValue
10.049

@<SCITEGIC>MOL_PROPERTY
Bond
SciTegic.value.DoubleValue
0.171

@<SCITEGIC>MOL_PROPERTY
Angle
SciTegic.value.DoubleValue
2.683

@<SCITEGIC>MOL_PROPERTY
Pdih
SciTegic.value.DoubleValue
5.467

@<SCITEGIC>MOL_PROPERTY
Idih
SciTegic.value.DoubleValue
0.001

@<SCITEGIC>MOL_PROPERTY
Tether
SciTegic.value.DoubleValue
0.000

@<TRIPOS>MOLECULE
guest-8_vm2.mol2 : vm2 ligand conformer 38
          25          24           1
SMALL
USER_CHARGES
 
@<TRIPOS>ATOM
       1    C1      20.226799   19.471059   27.328565 C.2        1 MOL1         0.6168
       2    O1      21.363791   19.888603   27.427992 O.co2      1 MOL1        -0.6703
       3    O2      19.257675   20.042419   27.788390 O.co2      1 MOL1        -0.6703
       4    C2      20.003211   18.147669   26.602185 C.3        1 MOL1        -0.1963
       5    H1      19.323649   17.546588   27.217713 H          1 MOL1         0.0750
       6    H2      20.956048   17.606244   26.559772 H          1 MOL1         0.0750
       7    C3      19.411292   18.302847   25.177225 C.3        1 MOL1        -0.1860
       8    H3      19.155964   17.308280   24.787119 H          1 MOL1         0.0752
       9    H4      18.472428   18.871252   25.232948 H          1 MOL1         0.0752
      10    C4      20.386696   18.997987   24.200883 C.3        1 MOL1        -0.1858
      11    H5      21.328113   18.433260   24.158262 H          1 MOL1         0.0752
      12    H6      20.633685   20.000725   24.576205 H          1 MOL1         0.0752
      13    C5      19.789821   19.113432   22.781532 C.3        1 MOL1        -0.1858
      14    H7      19.542191   18.109701   22.412440 H          1 MOL1         0.0752
      15    H8      18.850340   19.681168   22.824195 H          1 MOL1         0.0752
      16    C6      20.768125   19.806539   21.805138 C.3        1 MOL1        -0.1858
      17    H9      21.689405   19.213976   21.721466 H          1 MOL1         0.0752
      18    H10     21.060978   20.779260   22.223459 H          1 MOL1         0.0752
      19    C7      20.171703   20.037105   20.397053 C.3        1 MOL1        -0.1834
      20    H11     19.253391   20.635199   20.476453 H          1 MOL1         0.0752
      21    H12     20.880815   20.634415   19.807461 H          1 MOL1         0.0752
      22    C8      19.873886   18.726338   19.637037 C.3        1 MOL1        -0.2849
      23    H13     19.083202   18.147674   20.130665 H          1 MOL1         0.0764
      24    H14     19.537582   18.943283   18.614912 H          1 MOL1         0.0764
      25    H15     20.771410   18.097658   19.571214 H          1 MOL1         0.0764
@<TRIPOS>BOND
    1     1     2    1
    2     1     3    2
    3     1     4    1
    4     4     5    1
    5     4     6    1
    6     4     7    1
    7     7     8    1
    8     7     9    1
    9     7    10    1
   10    10    11    1
   11    10    12    1
   12    10    13    1
   13    13    14    1
   14    13    15    1
   15    13    16    1
   16    16    17    1
   17    16    18    1
   18    16    19    1
   19    19    20    1
   20    19    21    1
   21    19    22    1
   22    22    23    1
   23    22    24    1
   24    22    25    1
@<TRIPOS>SUBSTRUCTURE
       1 MOL1            1 RESIDUE      1      MOL     
@<SCITEGIC>MOL_PROPERTY
VM2 Rank
SciTegic.value.IntegerValue
38

@<SCITEGIC>MOL_PROPERTY
Conf_Id
SciTegic.value.IntegerValue
204

@<SCITEGIC>MOL_PROPERTY
Probability
SciTegic.value.DoubleValue
0.48

@<SCITEGIC>MOL_PROPERTY
Sum Probability
SciTegic.value.DoubleValue
93.67

@<SCITEGIC>MOL_PROPERTY
Delta G
SciTegic.value.DoubleValue
2.356

@<SCITEGIC>MOL_PROPERTY
G
SciTegic.value.DoubleValue
-5.606

@<SCITEGIC>MOL_PROPERTY
E
SciTegic.value.DoubleValue
-30.427

@<SCITEGIC>MOL_PROPERTY
-TS
SciTegic.value.DoubleValue
24.821

@<SCITEGIC>MOL_PROPERTY
U+W
SciTegic.value.DoubleValue
-50.995

@<SCITEGIC>MOL_PROPERTY
U
SciTegic.value.DoubleValue
8.634

@<SCITEGIC>MOL_PROPERTY
W
SciTegic.value.DoubleValue
-59.629

@<SCITEGIC>MOL_PROPERTY
W(PB)
SciTegic.value.DoubleValue
-62.118

@<SCITEGIC>MOL_PROPERTY
W(SA)
SciTegic.value.DoubleValue
2.489

@<SCITEGIC>MOL_PROPERTY
Valence
SciTegic.value.DoubleValue
8.287

@<SCITEGIC>MOL_PROPERTY
Coulomb
SciTegic.value.DoubleValue
-0.534

@<SCITEGIC>MOL_PROPERTY
VdW
SciTegic.value.DoubleValue
0.881

@<SCITEGIC>MOL_PROPERTY
VdW6
SciTegic.value.DoubleValue
-9.127

@<SCITEGIC>MOL_PROPERTY
VdW12
SciTegic.value.DoubleValue
10.008

@<SCITEGIC>MOL_PROPERTY
Bond
SciTegic.value.DoubleValue
0.168

@<SCITEGIC>MOL_PROPERTY
Angle
SciTegic.value.DoubleValue
2.660

@<SCITEGIC>MOL_PROPERTY
Pdih
SciTegic.value.DoubleValue
5.459

@<SCITEGIC>MOL_PROPERTY
Idih
SciTegic.value.DoubleValue
0.000

@<SCITEGIC>MOL_PROPERTY
Tether
SciTegic.value.DoubleValue
0.000

@<TRIPOS>MOLECULE
guest-8_vm2.mol2 : vm2 ligand conformer 39
          25          24           1
SMALL
USER_CHARGES
 
@<TRIPOS>ATOM
       1    C1      19.878253   19.706432   26.924576 C.2        1 MOL1         0.6168
       2    O1      20.671685   19.937460   27.815956 O.co2      1 MOL1        -0.6703
       3    O2      19.129643   20.542035   26.457446 O.co2      1 MOL1        -0.6703
       4    C2      19.801102   18.281929   26.382524 C.3        1 MOL1        -0.1963
       5    H1      18.876845   18.176143   25.803279 H          1 MOL1         0.0750
       6    H2      19.705376   17.610649   27.243847 H          1 MOL1         0.0750
       7    C3      21.031766   17.857737   25.535090 C.3        1 MOL1        -0.1860
       8    H3      21.928717   17.905808   26.167965 H          1 MOL1         0.0752
       9    H4      20.920091   16.805776   25.239665 H          1 MOL1         0.0752
      10    C4      21.267436   18.720036   24.270686 C.3        1 MOL1        -0.1858
      11    H5      22.196305   18.384673   23.789501 H          1 MOL1         0.0752
      12    H6      21.430370   19.767197   24.560833 H          1 MOL1         0.0752
      13    C5      20.111842   18.640008   23.246852 C.3        1 MOL1        -0.1858
      14    H7      19.904470   17.588285   23.006981 H          1 MOL1         0.0752
      15    H8      19.196348   19.057967   23.686223 H          1 MOL1         0.0752
      16    C6      20.444514   19.409160   21.949982 C.3        1 MOL1        -0.1858
      17    H9      21.358136   18.995751   21.501247 H          1 MOL1         0.0752
      18    H10     20.653859   20.460338   22.191560 H          1 MOL1         0.0752
      19    C7      19.290294   19.335295   20.928335 C.3        1 MOL1        -0.1834
      20    H11     19.078060   18.285076   20.684545 H          1 MOL1         0.0752
      21    H12     18.375374   19.751069   21.372829 H          1 MOL1         0.0752
      22    C8      19.626465   20.103905   19.634554 C.3        1 MOL1        -0.2849
      23    H13     20.520603   19.688195   19.151772 H          1 MOL1         0.0764
      24    H14     18.795361   20.041080   18.920141 H          1 MOL1         0.0764
      25    H15     19.812704   21.165157   19.845385 H          1 MOL1         0.0764
@<TRIPOS>BOND
    1     1     2    1
    2     1     3    2
    3     1     4    1
    4     4     5    1
    5     4     6    1
    6     4     7    1
    7     7     8    1
    8     7     9    1
    9     7    10    1
   10    10    11    1
   11    10    12    1
   12    10    13    1
   13    13    14    1
   14    13    15    1
   15    13    16    1
   16    16    17    1
   17    16    18    1
   18    16    19    1
   19    19    20    1
   20    19    21    1
   21    19    22    1
   22    22    23    1
   23    22    24    1
   24    22    25    1
@<TRIPOS>SUBSTRUCTURE
       1 MOL1            1 RESIDUE      1      MOL     
@<SCITEGIC>MOL_PROPERTY
VM2 Rank
SciTegic.value.IntegerValue
39

@<SCITEGIC>MOL_PROPERTY
Conf_Id
SciTegic.value.IntegerValue
457

@<SCITEGIC>MOL_PROPERTY
Probability
SciTegic.value.DoubleValue
0.36

@<SCITEGIC>MOL_PROPERTY
Sum Probability
SciTegic.value.DoubleValue
94.03

@<SCITEGIC>MOL_PROPERTY
Delta G
SciTegic.value.DoubleValue
2.534

@<SCITEGIC>MOL_PROPERTY
G
SciTegic.value.DoubleValue
-5.428

@<SCITEGIC>MOL_PROPERTY
E
SciTegic.value.DoubleValue
-30.291

@<SCITEGIC>MOL_PROPERTY
-TS
SciTegic.value.DoubleValue
24.863

@<SCITEGIC>MOL_PROPERTY
U+W
SciTegic.value.DoubleValue
-50.859

@<SCITEGIC>MOL_PROPERTY
U
SciTegic.value.DoubleValue
9.443

@<SCITEGIC>MOL_PROPERTY
W
SciTegic.value.DoubleValue
-60.301

@<SCITEGIC>MOL_PROPERTY
W(PB)
SciTegic.value.DoubleValue
-62.763

@<SCITEGIC>MOL_PROPERTY
W(SA)
SciTegic.value.DoubleValue
2.462

@<SCITEGIC>MOL_PROPERTY
Valence
SciTegic.value.DoubleValue
8.294

@<SCITEGIC>MOL_PROPERTY
Coulomb
SciTegic.value.DoubleValue
0.527

@<SCITEGIC>MOL_PROPERTY
VdW
SciTegic.value.DoubleValue
0.622

@<SCITEGIC>MOL_PROPERTY
VdW6
SciTegic.value.DoubleValue
-9.564

@<SCITEGIC>MOL_PROPERTY
VdW12
SciTegic.value.DoubleValue
10.186

@<SCITEGIC>MOL_PROPERTY
Bond
SciTegic.value.DoubleValue
0.185

@<SCITEGIC>MOL_PROPERTY
Angle
SciTegic.value.DoubleValue
2.775

@<SCITEGIC>MOL_PROPERTY
Pdih
SciTegic.value.DoubleValue
5.333

@<SCITEGIC>MOL_PROPERTY
Idih
SciTegic.value.DoubleValue
0.001

@<SCITEGIC>MOL_PROPERTY
Tether
SciTegic.value.DoubleValue
0.000

@<TRIPOS>MOLECULE
guest-8_vm2.mol2 : vm2 ligand conformer 40
          25          24           1
SMALL
USER_CHARGES
 
@<TRIPOS>ATOM
       1    C1      20.372600   19.738141   26.918829 C.2        1 MOL1         0.6168
       2    O1      20.997561   20.661704   26.435806 O.co2      1 MOL1        -0.6703
       3    O2      19.576857   19.867426   27.828524 O.co2      1 MOL1        -0.6703
       4    C2      20.618341   18.334303   26.373083 C.3        1 MOL1        -0.1963
       5    H1      20.818753   17.682017   27.230998 H          1 MOL1         0.0750
       6    H2      21.534943   18.346421   25.772533 H          1 MOL1         0.0750
       7    C3      19.432647   17.755302   25.553628 C.3        1 MOL1        -0.1860
       8    H3      19.670773   16.725742   25.254179 H          1 MOL1         0.0752
       9    H4      18.551720   17.689501   26.207081 H          1 MOL1         0.0752
      10    C4      19.059819   18.578599   24.296248 C.3        1 MOL1        -0.1858
      11    H5      18.771433   19.596873   24.591595 H          1 MOL1         0.0752
      12    H6      18.170435   18.126812   23.836151 H          1 MOL1         0.0752
      13    C5      20.192242   18.645026   23.245892 C.3        1 MOL1        -0.1858
      14    H7      21.056902   19.176883   23.664647 H          1 MOL1         0.0752
      15    H8      20.526367   17.627964   22.999705 H          1 MOL1         0.0752
      16    C6      19.734431   19.363655   21.958212 C.3        1 MOL1        -0.1858
      17    H9      19.398522   20.379948   22.206150 H          1 MOL1         0.0752
      18    H10     18.870800   18.836587   21.530058 H          1 MOL1         0.0752
      19    C7      20.864762   19.435952   20.910085 C.3        1 MOL1        -0.1834
      20    H11     21.729366   19.965331   21.334044 H          1 MOL1         0.0752
      21    H12     21.203211   18.420962   20.659712 H          1 MOL1         0.0752
      22    C8      20.403739   20.153891   19.625694 C.3        1 MOL1        -0.2849
      23    H13     20.088963   21.183106   19.842537 H          1 MOL1         0.0764
      24    H14     21.219343   20.196367   18.892173 H          1 MOL1         0.0764
      25    H15     19.558813   19.627210   19.163002 H          1 MOL1         0.0764
@<TRIPOS>BOND
    1     1     2    1
    2     1     3    2
    3     1     4    1
    4     4     5    1
    5     4     6    1
    6     4     7    1
    7     7     8    1
    8     7     9    1
    9     7    10    1
   10    10    11    1
   11    10    12    1
   12    10    13    1
   13    13    14    1
   14    13    15    1
   15    13    16    1
   16    16    17    1
   17    16    18    1
   18    16    19    1
   19    19    20    1
   20    19    21    1
   21    19    22    1
   22    22    23    1
   23    22    24    1
   24    22    25    1
@<TRIPOS>SUBSTRUCTURE
       1 MOL1            1 RESIDUE      1      MOL     
@<SCITEGIC>MOL_PROPERTY
VM2 Rank
SciTegic.value.IntegerValue
40

@<SCITEGIC>MOL_PROPERTY
Conf_Id
SciTegic.value.IntegerValue
823

@<SCITEGIC>MOL_PROPERTY
Probability
SciTegic.value.DoubleValue
0.36

@<SCITEGIC>MOL_PROPERTY
Sum Probability
SciTegic.value.DoubleValue
94.38

@<SCITEGIC>MOL_PROPERTY
Delta G
SciTegic.value.DoubleValue
2.535

@<SCITEGIC>MOL_PROPERTY
G
SciTegic.value.DoubleValue
-5.428

@<SCITEGIC>MOL_PROPERTY
E
SciTegic.value.DoubleValue
-30.291

@<SCITEGIC>MOL_PROPERTY
-TS
SciTegic.value.DoubleValue
24.863

@<SCITEGIC>MOL_PROPERTY
U+W
SciTegic.value.DoubleValue
-50.859

@<SCITEGIC>MOL_PROPERTY
U
SciTegic.value.DoubleValue
9.443

@<SCITEGIC>MOL_PROPERTY
W
SciTegic.value.DoubleValue
-60.302

@<SCITEGIC>MOL_PROPERTY
W(PB)
SciTegic.value.DoubleValue
-62.767

@<SCITEGIC>MOL_PROPERTY
W(SA)
SciTegic.value.DoubleValue
2.465

@<SCITEGIC>MOL_PROPERTY
Valence
SciTegic.value.DoubleValue
8.294

@<SCITEGIC>MOL_PROPERTY
Coulomb
SciTegic.value.DoubleValue
0.527

@<SCITEGIC>MOL_PROPERTY
VdW
SciTegic.value.DoubleValue
0.622

@<SCITEGIC>MOL_PROPERTY
VdW6
SciTegic.value.DoubleValue
-9.564

@<SCITEGIC>MOL_PROPERTY
VdW12
SciTegic.value.DoubleValue
10.186

@<SCITEGIC>MOL_PROPERTY
Bond
SciTegic.value.DoubleValue
0.185

@<SCITEGIC>MOL_PROPERTY
Angle
SciTegic.value.DoubleValue
2.775

@<SCITEGIC>MOL_PROPERTY
Pdih
SciTegic.value.DoubleValue
5.333

@<SCITEGIC>MOL_PROPERTY
Idih
SciTegic.value.DoubleValue
0.001

@<SCITEGIC>MOL_PROPERTY
Tether
SciTegic.value.DoubleValue
0.000

@<TRIPOS>MOLECULE
guest-8_vm2.mol2 : vm2 ligand conformer 41
          25          24           1
SMALL
USER_CHARGES
 
@<TRIPOS>ATOM
       1    C1      20.031582   19.763584   27.257775 C.2        1 MOL1         0.6168
       2    O1      21.119136   19.894448   27.783929 O.co2      1 MOL1        -0.6703
       3    O2      18.991252   19.665277   27.878110 O.co2      1 MOL1        -0.6703
       4    C2      19.971303   19.695741   25.736038 C.3        1 MOL1        -0.1963
       5    H1      20.769281   20.334995   25.341885 H          1 MOL1         0.0750
       6    H2      19.017317   20.129704   25.413597 H          1 MOL1         0.0750
       7    C3      20.111522   18.249553   25.193866 C.3        1 MOL1        -0.1860
       8    H3      21.089043   17.841242   25.485386 H          1 MOL1         0.0752
       9    H4      19.354362   17.616387   25.676755 H          1 MOL1         0.0752
      10    C4      19.937953   18.148198   23.659829 C.3        1 MOL1        -0.1858
      11    H5      18.952128   18.543811   23.382130 H          1 MOL1         0.0752
      12    H6      19.940822   17.087065   23.375982 H          1 MOL1         0.0752
      13    C5      21.045645   18.884995   22.868065 C.3        1 MOL1        -0.1858
      14    H7      20.989822   19.964589   23.054426 H          1 MOL1         0.0752
      15    H8      22.026729   18.560589   23.240472 H          1 MOL1         0.0752
      16    C6      20.990156   18.620003   21.342404 C.3        1 MOL1        -0.1858
      17    H9      21.151114   17.548601   21.161150 H          1 MOL1         0.0752
      18    H10     21.832547   19.137903   20.864078 H          1 MOL1         0.0752
      19    C7      19.676382   19.051681   20.644798 C.3        1 MOL1        -0.1834
      20    H11     19.748430   18.800728   19.577629 H          1 MOL1         0.0752
      21    H12     18.831114   18.470471   21.036461 H          1 MOL1         0.0752
      22    C8      19.378070   20.560520   20.781187 C.3        1 MOL1        -0.2849
      23    H13     19.182845   20.835279   21.825464 H          1 MOL1         0.0764
      24    H14     20.221151   21.162224   20.417705 H          1 MOL1         0.0764
      25    H15     18.490729   20.831372   20.194661 H          1 MOL1         0.0764
@<TRIPOS>BOND
    1     1     2    1
    2     1     3    2
    3     1     4    1
    4     4     5    1
    5     4     6    1
    6     4     7    1
    7     7     8    1
    8     7     9    1
    9     7    10    1
   10    10    11    1
   11    10    12    1
   12    10    13    1
   13    13    14    1
   14    13    15    1
   15    13    16    1
   16    16    17    1
   17    16    18    1
   18    16    19    1
   19    19    20    1
   20    19    21    1
   21    19    22    1
   22    22    23    1
   23    22    24    1
   24    22    25    1
@<TRIPOS>SUBSTRUCTURE
       1 MOL1            1 RESIDUE      1      MOL     
@<SCITEGIC>MOL_PROPERTY
VM2 Rank
SciTegic.value.IntegerValue
41

@<SCITEGIC>MOL_PROPERTY
Conf_Id
SciTegic.value.IntegerValue
84

@<SCITEGIC>MOL_PROPERTY
Probability
SciTegic.value.DoubleValue
0.30

@<SCITEGIC>MOL_PROPERTY
Sum Probability
SciTegic.value.DoubleValue
94.68

@<SCITEGIC>MOL_PROPERTY
Delta G
SciTegic.value.DoubleValue
2.647

@<SCITEGIC>MOL_PROPERTY
G
SciTegic.value.DoubleValue
-5.315

@<SCITEGIC>MOL_PROPERTY
E
SciTegic.value.DoubleValue
-30.248

@<SCITEGIC>MOL_PROPERTY
-TS
SciTegic.value.DoubleValue
24.932

@<SCITEGIC>MOL_PROPERTY
U+W
SciTegic.value.DoubleValue
-50.815

@<SCITEGIC>MOL_PROPERTY
U
SciTegic.value.DoubleValue
8.420

@<SCITEGIC>MOL_PROPERTY
W
SciTegic.value.DoubleValue
-59.235

@<SCITEGIC>MOL_PROPERTY
W(PB)
SciTegic.value.DoubleValue
-61.654

@<SCITEGIC>MOL_PROPERTY
W(SA)
SciTegic.value.DoubleValue
2.419

@<SCITEGIC>MOL_PROPERTY
Valence
SciTegic.value.DoubleValue
8.961

@<SCITEGIC>MOL_PROPERTY
Coulomb
SciTegic.value.DoubleValue
-1.581

@<SCITEGIC>MOL_PROPERTY
VdW
SciTegic.value.DoubleValue
1.040

@<SCITEGIC>MOL_PROPERTY
VdW6
SciTegic.value.DoubleValue
-10.001

@<SCITEGIC>MOL_PROPERTY
VdW12
SciTegic.value.DoubleValue
11.041

@<SCITEGIC>MOL_PROPERTY
Bond
SciTegic.value.DoubleValue
0.231

@<SCITEGIC>MOL_PROPERTY
Angle
SciTegic.value.DoubleValue
3.079

@<SCITEGIC>MOL_PROPERTY
Pdih
SciTegic.value.DoubleValue
5.651

@<SCITEGIC>MOL_PROPERTY
Idih
SciTegic.value.DoubleValue
0.001

@<SCITEGIC>MOL_PROPERTY
Tether
SciTegic.value.DoubleValue
0.000

@<TRIPOS>MOLECULE
guest-8_vm2.mol2 : vm2 ligand conformer 42
          25          24           1
SMALL
USER_CHARGES
 
@<TRIPOS>ATOM
       1    C1      20.221287   19.775591   27.255630 C.2        1 MOL1         0.6168
       2    O1      21.279779   19.811505   27.851510 O.co2      1 MOL1        -0.6703
       3    O2      19.138427   19.767604   27.807073 O.co2      1 MOL1        -0.6703
       4    C2      20.254398   19.713785   25.732804 C.3        1 MOL1        -0.1963
       5    H1      21.137855   20.264863   25.389003 H          1 MOL1         0.0750
       6    H2      19.372812   20.246020   25.358229 H          1 MOL1         0.0750
       7    C3      20.286334   18.260726   25.191815 C.3        1 MOL1        -0.1860
       8    H3      21.128618   17.729412   25.656180 H          1 MOL1         0.0752
       9    H4      19.375483   17.732123   25.505147 H          1 MOL1         0.0752
      10    C4      20.435987   18.180022   23.654040 C.3        1 MOL1        -0.1858
      11    H5      20.561025   17.126679   23.368713 H          1 MOL1         0.0752
      12    H6      21.357103   18.696935   23.354337 H          1 MOL1         0.0752
      13    C5      19.225979   18.769481   22.889087 C.3        1 MOL1        -0.1858
      14    H7      18.302697   18.324067   23.283560 H          1 MOL1         0.0752
      15    H8      19.148992   19.847739   23.075652 H          1 MOL1         0.0752
      16    C6      19.279377   18.511355   21.362176 C.3        1 MOL1        -0.1858
      17    H9      18.367467   18.917862   20.904125 H          1 MOL1         0.0752
      18    H10     19.251057   17.427928   21.183155 H          1 MOL1         0.0752
      19    C7      20.511606   19.104640   20.635108 C.3        1 MOL1        -0.1834
      20    H11     21.432370   18.635539   21.006353 H          1 MOL1         0.0752
      21    H12     20.447296   18.845011   19.569522 H          1 MOL1         0.0752
      22    C8      20.619826   20.639290   20.766757 C.3        1 MOL1        -0.2849
      23    H13     21.452133   21.019259   20.160429 H          1 MOL1         0.0764
      24    H14     19.699336   21.129040   20.423540 H          1 MOL1         0.0764
      25    H15     20.802629   20.938091   21.806671 H          1 MOL1         0.0764
@<TRIPOS>BOND
    1     1     2    1
    2     1     3    2
    3     1     4    1
    4     4     5    1
    5     4     6    1
    6     4     7    1
    7     7     8    1
    8     7     9    1
    9     7    10    1
   10    10    11    1
   11    10    12    1
   12    10    13    1
   13    13    14    1
   14    13    15    1
   15    13    16    1
   16    16    17    1
   17    16    18    1
   18    16    19    1
   19    19    20    1
   20    19    21    1
   21    19    22    1
   22    22    23    1
   23    22    24    1
   24    22    25    1
@<TRIPOS>SUBSTRUCTURE
       1 MOL1            1 RESIDUE      1      MOL     
@<SCITEGIC>MOL_PROPERTY
VM2 Rank
SciTegic.value.IntegerValue
42

@<SCITEGIC>MOL_PROPERTY
Conf_Id
SciTegic.value.IntegerValue
1005

@<SCITEGIC>MOL_PROPERTY
Probability
SciTegic.value.DoubleValue
0.28

@<SCITEGIC>MOL_PROPERTY
Sum Probability
SciTegic.value.DoubleValue
94.96

@<SCITEGIC>MOL_PROPERTY
Delta G
SciTegic.value.DoubleValue
2.682

@<SCITEGIC>MOL_PROPERTY
G
SciTegic.value.DoubleValue
-5.280

@<SCITEGIC>MOL_PROPERTY
E
SciTegic.value.DoubleValue
-30.213

@<SCITEGIC>MOL_PROPERTY
-TS
SciTegic.value.DoubleValue
24.933

@<SCITEGIC>MOL_PROPERTY
U+W
SciTegic.value.DoubleValue
-50.780

@<SCITEGIC>MOL_PROPERTY
U
SciTegic.value.DoubleValue
8.420

@<SCITEGIC>MOL_PROPERTY
W
SciTegic.value.DoubleValue
-59.200

@<SCITEGIC>MOL_PROPERTY
W(PB)
SciTegic.value.DoubleValue
-61.632

@<SCITEGIC>MOL_PROPERTY
W(SA)
SciTegic.value.DoubleValue
2.432

@<SCITEGIC>MOL_PROPERTY
Valence
SciTegic.value.DoubleValue
8.961

@<SCITEGIC>MOL_PROPERTY
Coulomb
SciTegic.value.DoubleValue
-1.581

@<SCITEGIC>MOL_PROPERTY
VdW
SciTegic.value.DoubleValue
1.040

@<SCITEGIC>MOL_PROPERTY
VdW6
SciTegic.value.DoubleValue
-10.002

@<SCITEGIC>MOL_PROPERTY
VdW12
SciTegic.value.DoubleValue
11.041

@<SCITEGIC>MOL_PROPERTY
Bond
SciTegic.value.DoubleValue
0.231

@<SCITEGIC>MOL_PROPERTY
Angle
SciTegic.value.DoubleValue
3.079

@<SCITEGIC>MOL_PROPERTY
Pdih
SciTegic.value.DoubleValue
5.650

@<SCITEGIC>MOL_PROPERTY
Idih
SciTegic.value.DoubleValue
0.001

@<SCITEGIC>MOL_PROPERTY
Tether
SciTegic.value.DoubleValue
0.000

@<TRIPOS>MOLECULE
guest-8_vm2.mol2 : vm2 ligand conformer 43
          25          24           1
SMALL
USER_CHARGES
 
@<TRIPOS>ATOM
       1    C1      19.959928   19.874924   26.949163 C.2        1 MOL1         0.6168
       2    O1      20.504958   19.625946   28.006432 O.co2      1 MOL1        -0.6703
       3    O2      18.859957   20.384102   26.862540 O.co2      1 MOL1        -0.6703
       4    C2      20.686977   19.506886   25.660883 C.3        1 MOL1        -0.1963
       5    H1      21.764922   19.598977   25.839065 H          1 MOL1         0.0750
       6    H2      20.416901   20.250310   24.902177 H          1 MOL1         0.0750
       7    C3      20.346036   18.076960   25.167191 C.3        1 MOL1        -0.1860
       8    H3      20.541175   17.366143   25.981981 H          1 MOL1         0.0752
       9    H4      19.270494   18.008574   24.956491 H          1 MOL1         0.0752
      10    C4      21.162104   17.639349   23.924691 C.3        1 MOL1        -0.1858
      11    H5      20.878880   16.611343   23.660651 H          1 MOL1         0.0752
      12    H6      22.226441   17.600572   24.193771 H          1 MOL1         0.0752
      13    C5      20.997902   18.541690   22.675803 C.3        1 MOL1        -0.1858
      14    H7      21.391005   19.542953   22.891234 H          1 MOL1         0.0752
      15    H8      21.623839   18.135235   21.869944 H          1 MOL1         0.0752
      16    C6      19.535728   18.640197   22.176477 C.3        1 MOL1        -0.1858
      17    H9      18.916122   19.148929   22.926776 H          1 MOL1         0.0752
      18    H10     19.126134   17.626930   22.066752 H          1 MOL1         0.0752
      19    C7      19.399516   19.377229   20.823887 C.3        1 MOL1        -0.1834
      20    H11     20.005638   18.869222   20.061155 H          1 MOL1         0.0752
      21    H12     18.355778   19.307557   20.487860 H          1 MOL1         0.0752
      22    C8      19.799893   20.866717   20.898932 C.3        1 MOL1        -0.2849
      23    H13     20.867774   20.983415   21.121930 H          1 MOL1         0.0764
      24    H14     19.603759   21.365905   19.941236 H          1 MOL1         0.0764
      25    H15     19.226622   21.388676   21.676169 H          1 MOL1         0.0764
@<TRIPOS>BOND
    1     1     2    1
    2     1     3    2
    3     1     4    1
    4     4     5    1
    5     4     6    1
    6     4     7    1
    7     7     8    1
    8     7     9    1
    9     7    10    1
   10    10    11    1
   11    10    12    1
   12    10    13    1
   13    13    14    1
   14    13    15    1
   15    13    16    1
   16    16    17    1
   17    16    18    1
   18    16    19    1
   19    19    20    1
   20    19    21    1
   21    19    22    1
   22    22    23    1
   23    22    24    1
   24    22    25    1
@<TRIPOS>SUBSTRUCTURE
       1 MOL1            1 RESIDUE      1      MOL     
@<SCITEGIC>MOL_PROPERTY
VM2 Rank
SciTegic.value.IntegerValue
43

@<SCITEGIC>MOL_PROPERTY
Conf_Id
SciTegic.value.IntegerValue
186

@<SCITEGIC>MOL_PROPERTY
Probability
SciTegic.value.DoubleValue
0.28

@<SCITEGIC>MOL_PROPERTY
Sum Probability
SciTegic.value.DoubleValue
95.24

@<SCITEGIC>MOL_PROPERTY
Delta G
SciTegic.value.DoubleValue
2.689

@<SCITEGIC>MOL_PROPERTY
G
SciTegic.value.DoubleValue
-5.274

@<SCITEGIC>MOL_PROPERTY
E
SciTegic.value.DoubleValue
-30.250

@<SCITEGIC>MOL_PROPERTY
-TS
SciTegic.value.DoubleValue
24.977

@<SCITEGIC>MOL_PROPERTY
U+W
SciTegic.value.DoubleValue
-50.818

@<SCITEGIC>MOL_PROPERTY
U
SciTegic.value.DoubleValue
8.957

@<SCITEGIC>MOL_PROPERTY
W
SciTegic.value.DoubleValue
-59.775

@<SCITEGIC>MOL_PROPERTY
W(PB)
SciTegic.value.DoubleValue
-62.189

@<SCITEGIC>MOL_PROPERTY
W(SA)
SciTegic.value.DoubleValue
2.414

@<SCITEGIC>MOL_PROPERTY
Valence
SciTegic.value.DoubleValue
8.948

@<SCITEGIC>MOL_PROPERTY
Coulomb
SciTegic.value.DoubleValue
-0.940

@<SCITEGIC>MOL_PROPERTY
VdW
SciTegic.value.DoubleValue
0.950

@<SCITEGIC>MOL_PROPERTY
VdW6
SciTegic.value.DoubleValue
-10.176

@<SCITEGIC>MOL_PROPERTY
VdW12
SciTegic.value.DoubleValue
11.126

@<SCITEGIC>MOL_PROPERTY
Bond
SciTegic.value.DoubleValue
0.232

@<SCITEGIC>MOL_PROPERTY
Angle
SciTegic.value.DoubleValue
3.080

@<SCITEGIC>MOL_PROPERTY
Pdih
SciTegic.value.DoubleValue
5.636

@<SCITEGIC>MOL_PROPERTY
Idih
SciTegic.value.DoubleValue
0.001

@<SCITEGIC>MOL_PROPERTY
Tether
SciTegic.value.DoubleValue
0.000

@<TRIPOS>MOLECULE
guest-8_vm2.mol2 : vm2 ligand conformer 44
          25          24           1
SMALL
USER_CHARGES
 
@<TRIPOS>ATOM
       1    C1      19.600543   19.177454   26.974194 C.2        1 MOL1         0.6168
       2    O1      20.150587   18.938251   28.031123 O.co2      1 MOL1        -0.6703
       3    O2      18.544553   19.772046   26.884493 O.co2      1 MOL1        -0.6703
       4    C2      20.284657   18.726027   25.688926 C.3        1 MOL1        -0.1963
       5    H1      19.500884   18.472432   24.965982 H          1 MOL1         0.0750
       6    H2      20.841064   17.805927   25.903452 H          1 MOL1         0.0750
       7    C3      21.235450   19.803059   25.105273 C.3        1 MOL1        -0.1860
       8    H3      20.660218   20.705651   24.859718 H          1 MOL1         0.0752
       9    H4      21.950827   20.101909   25.883828 H          1 MOL1         0.0752
      10    C4      22.029175   19.322065   23.864337 C.3        1 MOL1        -0.1858
      11    H5      22.686748   18.493893   24.161745 H          1 MOL1         0.0752
      12    H6      22.693274   20.132496   23.534333 H          1 MOL1         0.0752
      13    C5      21.163287   18.862655   22.664303 C.3        1 MOL1        -0.1858
      14    H7      21.833976   18.543034   21.855336 H          1 MOL1         0.0752
      15    H8      20.583331   17.975562   22.947478 H          1 MOL1         0.0752
      16    C6      20.219358   19.966878   22.128887 C.3        1 MOL1        -0.1858
      17    H9      20.802587   20.880326   21.950072 H          1 MOL1         0.0752
      18    H10     19.467499   20.218987   22.888374 H          1 MOL1         0.0752
      19    C7      19.501218   19.574535   20.816785 C.3        1 MOL1        -0.1834
      20    H11     18.941924   20.444948   20.447018 H          1 MOL1         0.0752
      21    H12     20.244291   19.332248   20.044543 H          1 MOL1         0.0752
      22    C8      18.524171   18.391031   20.987679 C.3        1 MOL1        -0.2849
      23    H13     17.789211   18.599375   21.776100 H          1 MOL1         0.0764
      24    H14     17.976280   18.207423   20.054436 H          1 MOL1         0.0764
      25    H15     19.055917   17.467366   21.248076 H          1 MOL1         0.0764
@<TRIPOS>BOND
    1     1     2    1
    2     1     3    2
    3     1     4    1
    4     4     5    1
    5     4     6    1
    6     4     7    1
    7     7     8    1
    8     7     9    1
    9     7    10    1
   10    10    11    1
   11    10    12    1
   12    10    13    1
   13    13    14    1
   14    13    15    1
   15    13    16    1
   16    16    17    1
   17    16    18    1
   18    16    19    1
   19    19    20    1
   20    19    21    1
   21    19    22    1
   22    22    23    1
   23    22    24    1
   24    22    25    1
@<TRIPOS>SUBSTRUCTURE
       1 MOL1            1 RESIDUE      1      MOL     
@<SCITEGIC>MOL_PROPERTY
VM2 Rank
SciTegic.value.IntegerValue
44

@<SCITEGIC>MOL_PROPERTY
Conf_Id
SciTegic.value.IntegerValue
711

@<SCITEGIC>MOL_PROPERTY
Probability
SciTegic.value.DoubleValue
0.27

@<SCITEGIC>MOL_PROPERTY
Sum Probability
SciTegic.value.DoubleValue
95.51

@<SCITEGIC>MOL_PROPERTY
Delta G
SciTegic.value.DoubleValue
2.700

@<SCITEGIC>MOL_PROPERTY
G
SciTegic.value.DoubleValue
-5.262

@<SCITEGIC>MOL_PROPERTY
E
SciTegic.value.DoubleValue
-30.239

@<SCITEGIC>MOL_PROPERTY
-TS
SciTegic.value.DoubleValue
24.977

@<SCITEGIC>MOL_PROPERTY
U+W
SciTegic.value.DoubleValue
-50.806

@<SCITEGIC>MOL_PROPERTY
U
SciTegic.value.DoubleValue
8.957

@<SCITEGIC>MOL_PROPERTY
W
SciTegic.value.DoubleValue
-59.764

@<SCITEGIC>MOL_PROPERTY
W(PB)
SciTegic.value.DoubleValue
-62.187

@<SCITEGIC>MOL_PROPERTY
W(SA)
SciTegic.value.DoubleValue
2.423

@<SCITEGIC>MOL_PROPERTY
Valence
SciTegic.value.DoubleValue
8.948

@<SCITEGIC>MOL_PROPERTY
Coulomb
SciTegic.value.DoubleValue
-0.940

@<SCITEGIC>MOL_PROPERTY
VdW
SciTegic.value.DoubleValue
0.950

@<SCITEGIC>MOL_PROPERTY
VdW6
SciTegic.value.DoubleValue
-10.176

@<SCITEGIC>MOL_PROPERTY
VdW12
SciTegic.value.DoubleValue
11.126

@<SCITEGIC>MOL_PROPERTY
Bond
SciTegic.value.DoubleValue
0.232

@<SCITEGIC>MOL_PROPERTY
Angle
SciTegic.value.DoubleValue
3.080

@<SCITEGIC>MOL_PROPERTY
Pdih
SciTegic.value.DoubleValue
5.636

@<SCITEGIC>MOL_PROPERTY
Idih
SciTegic.value.DoubleValue
0.001

@<SCITEGIC>MOL_PROPERTY
Tether
SciTegic.value.DoubleValue
0.000

@<TRIPOS>MOLECULE
guest-8_vm2.mol2 : vm2 ligand conformer 45
          25          24           1
SMALL
USER_CHARGES
 
@<TRIPOS>ATOM
       1    C1      20.527766   19.597129   27.018843 C.2        1 MOL1         0.6168
       2    O1      21.573009   20.199155   26.871338 O.co2      1 MOL1        -0.6703
       3    O2      19.826327   19.698314   28.006080 O.co2      1 MOL1        -0.6703
       4    C2      20.060278   18.679177   25.895191 C.3        1 MOL1        -0.1963
       5    H1      19.510873   17.843214   26.344059 H          1 MOL1         0.0750
       6    H2      20.951393   18.261970   25.412661 H          1 MOL1         0.0750
       7    C3      19.169754   19.408533   24.856276 C.3        1 MOL1        -0.1860
       8    H3      18.329924   19.883010   25.382272 H          1 MOL1         0.0752
       9    H4      19.738920   20.225886   24.393744 H          1 MOL1         0.0752
      10    C4      18.601022   18.469852   23.762730 C.3        1 MOL1        -0.1858
      11    H5      17.943225   19.050706   23.102947 H          1 MOL1         0.0752
      12    H6      17.955127   17.720346   24.239853 H          1 MOL1         0.0752
      13    C5      19.664835   17.732916   22.906776 C.3        1 MOL1        -0.1858
      14    H7      20.209157   17.019951   23.539761 H          1 MOL1         0.0752
      15    H8      19.147277   17.124227   22.153006 H          1 MOL1         0.0752
      16    C6      20.688666   18.649573   22.191010 C.3        1 MOL1        -0.1858
      17    H9      21.399327   18.014375   21.645068 H          1 MOL1         0.0752
      18    H10     21.281510   19.200539   22.933028 H          1 MOL1         0.0752
      19    C7      20.039098   19.641626   21.200167 C.3        1 MOL1        -0.1834
      20    H11     19.414900   19.092526   20.481905 H          1 MOL1         0.0752
      21    H12     19.376636   20.332082   21.738736 H          1 MOL1         0.0752
      22    C8      21.102244   20.457724   20.437588 C.3        1 MOL1        -0.2849
      23    H13     21.761414   19.799364   19.856788 H          1 MOL1         0.0764
      24    H14     20.625110   21.159438   19.741225 H          1 MOL1         0.0764
      25    H15     21.723042   21.038654   21.132211 H          1 MOL1         0.0764
@<TRIPOS>BOND
    1     1     2    1
    2     1     3    2
    3     1     4    1
    4     4     5    1
    5     4     6    1
    6     4     7    1
    7     7     8    1
    8     7     9    1
    9     7    10    1
   10    10    11    1
   11    10    12    1
   12    10    13    1
   13    13    14    1
   14    13    15    1
   15    13    16    1
   16    16    17    1
   17    16    18    1
   18    16    19    1
   19    19    20    1
   20    19    21    1
   21    19    22    1
   22    22    23    1
   23    22    24    1
   24    22    25    1
@<TRIPOS>SUBSTRUCTURE
       1 MOL1            1 RESIDUE      1      MOL     
@<SCITEGIC>MOL_PROPERTY
VM2 Rank
SciTegic.value.IntegerValue
45

@<SCITEGIC>MOL_PROPERTY
Conf_Id
SciTegic.value.IntegerValue
752

@<SCITEGIC>MOL_PROPERTY
Probability
SciTegic.value.DoubleValue
0.24

@<SCITEGIC>MOL_PROPERTY
Sum Probability
SciTegic.value.DoubleValue
95.76

@<SCITEGIC>MOL_PROPERTY
Delta G
SciTegic.value.DoubleValue
2.765

@<SCITEGIC>MOL_PROPERTY
G
SciTegic.value.DoubleValue
-5.197

@<SCITEGIC>MOL_PROPERTY
E
SciTegic.value.DoubleValue
-30.374

@<SCITEGIC>MOL_PROPERTY
-TS
SciTegic.value.DoubleValue
25.177

@<SCITEGIC>MOL_PROPERTY
U+W
SciTegic.value.DoubleValue
-50.941

@<SCITEGIC>MOL_PROPERTY
U
SciTegic.value.DoubleValue
8.897

@<SCITEGIC>MOL_PROPERTY
W
SciTegic.value.DoubleValue
-59.838

@<SCITEGIC>MOL_PROPERTY
W(PB)
SciTegic.value.DoubleValue
-62.244

@<SCITEGIC>MOL_PROPERTY
W(SA)
SciTegic.value.DoubleValue
2.405

@<SCITEGIC>MOL_PROPERTY
Valence
SciTegic.value.DoubleValue
8.932

@<SCITEGIC>MOL_PROPERTY
Coulomb
SciTegic.value.DoubleValue
-0.847

@<SCITEGIC>MOL_PROPERTY
VdW
SciTegic.value.DoubleValue
0.811

@<SCITEGIC>MOL_PROPERTY
VdW6
SciTegic.value.DoubleValue
-10.410

@<SCITEGIC>MOL_PROPERTY
VdW12
SciTegic.value.DoubleValue
11.221

@<SCITEGIC>MOL_PROPERTY
Bond
SciTegic.value.DoubleValue
0.240

@<SCITEGIC>MOL_PROPERTY
Angle
SciTegic.value.DoubleValue
3.240

@<SCITEGIC>MOL_PROPERTY
Pdih
SciTegic.value.DoubleValue
5.452

@<SCITEGIC>MOL_PROPERTY
Idih
SciTegic.value.DoubleValue
0.001

@<SCITEGIC>MOL_PROPERTY
Tether
SciTegic.value.DoubleValue
0.000

@<TRIPOS>MOLECULE
guest-8_vm2.mol2 : vm2 ligand conformer 46
          25          24           1
SMALL
USER_CHARGES
 
@<TRIPOS>ATOM
       1    C1      20.297610   19.371149   27.451413 C.2        1 MOL1         0.6168
       2    O1      21.395732   19.801863   27.743565 O.co2      1 MOL1        -0.6703
       3    O2      19.343104   19.395958   28.203132 O.co2      1 MOL1        -0.6703
       4    C2      20.100429   18.787934   26.056727 C.3        1 MOL1        -0.1963
       5    H1      19.345215   17.995745   26.123260 H          1 MOL1         0.0750
       6    H2      21.042694   18.315495   25.757896 H          1 MOL1         0.0750
       7    C3      19.667300   19.854341   25.017145 C.3        1 MOL1        -0.1860
       8    H3      18.776548   20.373456   25.397285 H          1 MOL1         0.0752
       9    H4      20.453135   20.616482   24.922785 H          1 MOL1         0.0752
      10    C4      19.339086   19.266349   23.623856 C.3        1 MOL1        -0.1858
      11    H5      18.910595   20.069054   23.010220 H          1 MOL1         0.0752
      12    H6      18.560215   18.498032   23.721903 H          1 MOL1         0.0752
      13    C5      20.572479   18.672025   22.900375 C.3        1 MOL1        -0.1858
      14    H7      21.350686   19.439948   22.801875 H          1 MOL1         0.0752
      15    H8      21.007746   17.874743   23.515683 H          1 MOL1         0.0752
      16    C6      20.243758   18.070316   21.510319 C.3        1 MOL1        -0.1858
      17    H9      19.528998   17.246290   21.639840 H          1 MOL1         0.0752
      18    H10     21.156440   17.617137   21.100062 H          1 MOL1         0.0752
      19    C7      19.672928   19.066476   20.470469 C.3        1 MOL1        -0.1834
      20    H11     19.479030   18.522219   19.536000 H          1 MOL1         0.0752
      21    H12     18.699407   19.448407   20.804723 H          1 MOL1         0.0752
      22    C8      20.620573   20.247589   20.168998 C.3        1 MOL1        -0.2849
      23    H13     21.609239   19.888082   19.855514 H          1 MOL1         0.0764
      24    H14     20.214377   20.869656   19.361036 H          1 MOL1         0.0764
      25    H15     20.749897   20.889360   21.049613 H          1 MOL1         0.0764
@<TRIPOS>BOND
    1     1     2    1
    2     1     3    2
    3     1     4    1
    4     4     5    1
    5     4     6    1
    6     4     7    1
    7     7     8    1
    8     7     9    1
    9     7    10    1
   10    10    11    1
   11    10    12    1
   12    10    13    1
   13    13    14    1
   14    13    15    1
   15    13    16    1
   16    16    17    1
   17    16    18    1
   18    16    19    1
   19    19    20    1
   20    19    21    1
   21    19    22    1
   22    22    23    1
   23    22    24    1
   24    22    25    1
@<TRIPOS>SUBSTRUCTURE
       1 MOL1            1 RESIDUE      1      MOL     
@<SCITEGIC>MOL_PROPERTY
VM2 Rank
SciTegic.value.IntegerValue
46

@<SCITEGIC>MOL_PROPERTY
Conf_Id
SciTegic.value.IntegerValue
750

@<SCITEGIC>MOL_PROPERTY
Probability
SciTegic.value.DoubleValue
0.24

@<SCITEGIC>MOL_PROPERTY
Sum Probability
SciTegic.value.DoubleValue
95.99

@<SCITEGIC>MOL_PROPERTY
Delta G
SciTegic.value.DoubleValue
2.778

@<SCITEGIC>MOL_PROPERTY
G
SciTegic.value.DoubleValue
-5.184

@<SCITEGIC>MOL_PROPERTY
E
SciTegic.value.DoubleValue
-30.050

@<SCITEGIC>MOL_PROPERTY
-TS
SciTegic.value.DoubleValue
24.866

@<SCITEGIC>MOL_PROPERTY
U+W
SciTegic.value.DoubleValue
-50.618

@<SCITEGIC>MOL_PROPERTY
U
SciTegic.value.DoubleValue
8.474

@<SCITEGIC>MOL_PROPERTY
W
SciTegic.value.DoubleValue
-59.092

@<SCITEGIC>MOL_PROPERTY
W(PB)
SciTegic.value.DoubleValue
-61.533

@<SCITEGIC>MOL_PROPERTY
W(SA)
SciTegic.value.DoubleValue
2.441

@<SCITEGIC>MOL_PROPERTY
Valence
SciTegic.value.DoubleValue
9.080

@<SCITEGIC>MOL_PROPERTY
Coulomb
SciTegic.value.DoubleValue
-1.772

@<SCITEGIC>MOL_PROPERTY
VdW
SciTegic.value.DoubleValue
1.165

@<SCITEGIC>MOL_PROPERTY
VdW6
SciTegic.value.DoubleValue
-9.830

@<SCITEGIC>MOL_PROPERTY
VdW12
SciTegic.value.DoubleValue
10.995

@<SCITEGIC>MOL_PROPERTY
Bond
SciTegic.value.DoubleValue
0.240

@<SCITEGIC>MOL_PROPERTY
Angle
SciTegic.value.DoubleValue
3.225

@<SCITEGIC>MOL_PROPERTY
Pdih
SciTegic.value.DoubleValue
5.614

@<SCITEGIC>MOL_PROPERTY
Idih
SciTegic.value.DoubleValue
0.001

@<SCITEGIC>MOL_PROPERTY
Tether
SciTegic.value.DoubleValue
0.000

@<TRIPOS>MOLECULE
guest-8_vm2.mol2 : vm2 ligand conformer 47
          25          24           1
SMALL
USER_CHARGES
 
@<TRIPOS>ATOM
       1    C1      20.582336   19.399325   27.150442 C.2        1 MOL1         0.6168
       2    O1      21.401228   20.296314   27.111096 O.co2      1 MOL1        -0.6703
       3    O2      20.047515   19.020645   28.173873 O.co2      1 MOL1        -0.6703
       4    C2      20.187133   18.726788   25.840755 C.3        1 MOL1        -0.1963
       5    H1      19.932508   17.682390   26.056684 H          1 MOL1         0.0750
       6    H2      21.069323   18.720016   25.190511 H          1 MOL1         0.0750
       7    C3      18.998944   19.433406   25.138383 C.3        1 MOL1        -0.1860
       8    H3      18.162923   19.506320   25.847616 H          1 MOL1         0.0752
       9    H4      19.278377   20.466796   24.894315 H          1 MOL1         0.0752
      10    C4      18.503333   18.698183   23.867356 C.3        1 MOL1        -0.1858
      11    H5      17.653446   19.253280   23.447460 H          1 MOL1         0.0752
      12    H6      18.108208   17.715496   24.158818 H          1 MOL1         0.0752
      13    C5      19.566069   18.494463   22.757723 C.3        1 MOL1        -0.1858
      14    H7      20.375908   17.851839   23.126583 H          1 MOL1         0.0752
      15    H8      19.091703   17.943510   21.935865 H          1 MOL1         0.0752
      16    C6      20.155829   19.819518   22.215015 C.3        1 MOL1        -0.1858
      17    H9      20.639804   20.364931   23.035386 H          1 MOL1         0.0752
      18    H10     19.345375   20.462936   21.846674 H          1 MOL1         0.0752
      19    C7      21.203443   19.613234   21.095994 C.3        1 MOL1        -0.1834
      20    H11     21.668648   20.582086   20.867710 H          1 MOL1         0.0752
      21    H12     22.009496   18.960269   21.458185 H          1 MOL1         0.0752
      22    C8      20.607170   19.032123   19.795361 C.3        1 MOL1        -0.2849
      23    H13     21.369651   18.996603   19.006535 H          1 MOL1         0.0764
      24    H14     20.237225   18.010211   19.944400 H          1 MOL1         0.0764
      25    H15     19.775621   19.650801   19.433620 H          1 MOL1         0.0764
@<TRIPOS>BOND
    1     1     2    1
    2     1     3    2
    3     1     4    1
    4     4     5    1
    5     4     6    1
    6     4     7    1
    7     7     8    1
    8     7     9    1
    9     7    10    1
   10    10    11    1
   11    10    12    1
   12    10    13    1
   13    13    14    1
   14    13    15    1
   15    13    16    1
   16    16    17    1
   17    16    18    1
   18    16    19    1
   19    19    20    1
   20    19    21    1
   21    19    22    1
   22    22    23    1
   23    22    24    1
   24    22    25    1
@<TRIPOS>SUBSTRUCTURE
       1 MOL1            1 RESIDUE      1      MOL     
@<SCITEGIC>MOL_PROPERTY
VM2 Rank
SciTegic.value.IntegerValue
47

@<SCITEGIC>MOL_PROPERTY
Conf_Id
SciTegic.value.IntegerValue
800

@<SCITEGIC>MOL_PROPERTY
Probability
SciTegic.value.DoubleValue
0.22

@<SCITEGIC>MOL_PROPERTY
Sum Probability
SciTegic.value.DoubleValue
96.22

@<SCITEGIC>MOL_PROPERTY
Delta G
SciTegic.value.DoubleValue
2.816

@<SCITEGIC>MOL_PROPERTY
G
SciTegic.value.DoubleValue
-5.146

@<SCITEGIC>MOL_PROPERTY
E
SciTegic.value.DoubleValue
-30.061

@<SCITEGIC>MOL_PROPERTY
-TS
SciTegic.value.DoubleValue
24.915

@<SCITEGIC>MOL_PROPERTY
U+W
SciTegic.value.DoubleValue
-50.629

@<SCITEGIC>MOL_PROPERTY
U
SciTegic.value.DoubleValue
8.774

@<SCITEGIC>MOL_PROPERTY
W
SciTegic.value.DoubleValue
-59.402

@<SCITEGIC>MOL_PROPERTY
W(PB)
SciTegic.value.DoubleValue
-61.850

@<SCITEGIC>MOL_PROPERTY
W(SA)
SciTegic.value.DoubleValue
2.447

@<SCITEGIC>MOL_PROPERTY
Valence
SciTegic.value.DoubleValue
9.062

@<SCITEGIC>MOL_PROPERTY
Coulomb
SciTegic.value.DoubleValue
-1.371

@<SCITEGIC>MOL_PROPERTY
VdW
SciTegic.value.DoubleValue
1.083

@<SCITEGIC>MOL_PROPERTY
VdW6
SciTegic.value.DoubleValue
-9.990

@<SCITEGIC>MOL_PROPERTY
VdW12
SciTegic.value.DoubleValue
11.073

@<SCITEGIC>MOL_PROPERTY
Bond
SciTegic.value.DoubleValue
0.239

@<SCITEGIC>MOL_PROPERTY
Angle
SciTegic.value.DoubleValue
3.221

@<SCITEGIC>MOL_PROPERTY
Pdih
SciTegic.value.DoubleValue
5.602

@<SCITEGIC>MOL_PROPERTY
Idih
SciTegic.value.DoubleValue
0.001

@<SCITEGIC>MOL_PROPERTY
Tether
SciTegic.value.DoubleValue
0.000

@<TRIPOS>MOLECULE
guest-8_vm2.mol2 : vm2 ligand conformer 48
          25          24           1
SMALL
USER_CHARGES
 
@<TRIPOS>ATOM
       1    C1      19.826788   19.407748   27.270527 C.2        1 MOL1         0.6168
       2    O1      20.739740   19.626675   28.042104 O.co2      1 MOL1        -0.6703
       3    O2      18.717268   19.889683   27.386231 O.co2      1 MOL1        -0.6703
       4    C2      20.093560   18.492110   26.081151 C.3        1 MOL1        -0.1963
       5    H1      19.163126   17.962700   25.843260 H          1 MOL1         0.0750
       6    H2      20.826643   17.737369   26.390077 H          1 MOL1         0.0750
       7    C3      20.605300   19.257428   24.836014 C.3        1 MOL1        -0.1860
       8    H3      19.864837   20.019301   24.558436 H          1 MOL1         0.0752
       9    H4      21.532264   19.789069   25.091433 H          1 MOL1         0.0752
      10    C4      20.860645   18.307116   23.643393 C.3        1 MOL1        -0.1858
      11    H5      19.925833   17.805116   23.361380 H          1 MOL1         0.0752
      12    H6      21.549293   17.512374   23.960837 H          1 MOL1         0.0752
      13    C5      21.471041   19.017064   22.408997 C.3        1 MOL1        -0.1858
      14    H7      22.449792   19.431051   22.686723 H          1 MOL1         0.0752
      15    H8      21.675517   18.266994   21.633779 H          1 MOL1         0.0752
      16    C6      20.606482   20.154687   21.803872 C.3        1 MOL1        -0.1858
      17    H9      21.130401   20.564942   20.929979 H          1 MOL1         0.0752
      18    H10     20.538531   20.981313   22.523133 H          1 MOL1         0.0752
      19    C7      19.176149   19.740860   21.378410 C.3        1 MOL1        -0.1834
      20    H11     18.602388   19.409785   22.254207 H          1 MOL1         0.0752
      21    H12     18.655465   20.627529   20.991617 H          1 MOL1         0.0752
      22    C8      19.156027   18.640629   20.295302 C.3        1 MOL1        -0.2849
      23    H13     19.572284   17.699373   20.675713 H          1 MOL1         0.0764
      24    H14     18.127268   18.441863   19.968385 H          1 MOL1         0.0764
      25    H15     19.738314   18.944634   19.415837 H          1 MOL1         0.0764
@<TRIPOS>BOND
    1     1     2    1
    2     1     3    2
    3     1     4    1
    4     4     5    1
    5     4     6    1
    6     4     7    1
    7     7     8    1
    8     7     9    1
    9     7    10    1
   10    10    11    1
   11    10    12    1
   12    10    13    1
   13    13    14    1
   14    13    15    1
   15    13    16    1
   16    16    17    1
   17    16    18    1
   18    16    19    1
   19    19    20    1
   20    19    21    1
   21    19    22    1
   22    22    23    1
   23    22    24    1
   24    22    25    1
@<TRIPOS>SUBSTRUCTURE
       1 MOL1            1 RESIDUE      1      MOL     
@<SCITEGIC>MOL_PROPERTY
VM2 Rank
SciTegic.value.IntegerValue
48

@<SCITEGIC>MOL_PROPERTY
Conf_Id
SciTegic.value.IntegerValue
191

@<SCITEGIC>MOL_PROPERTY
Probability
SciTegic.value.DoubleValue
0.22

@<SCITEGIC>MOL_PROPERTY
Sum Probability
SciTegic.value.DoubleValue
96.44

@<SCITEGIC>MOL_PROPERTY
Delta G
SciTegic.value.DoubleValue
2.828

@<SCITEGIC>MOL_PROPERTY
G
SciTegic.value.DoubleValue
-5.134

@<SCITEGIC>MOL_PROPERTY
E
SciTegic.value.DoubleValue
-30.277

@<SCITEGIC>MOL_PROPERTY
-TS
SciTegic.value.DoubleValue
25.143

@<SCITEGIC>MOL_PROPERTY
U+W
SciTegic.value.DoubleValue
-50.845

@<SCITEGIC>MOL_PROPERTY
U
SciTegic.value.DoubleValue
8.646

@<SCITEGIC>MOL_PROPERTY
W
SciTegic.value.DoubleValue
-59.491

@<SCITEGIC>MOL_PROPERTY
W(PB)
SciTegic.value.DoubleValue
-61.923

@<SCITEGIC>MOL_PROPERTY
W(SA)
SciTegic.value.DoubleValue
2.431

@<SCITEGIC>MOL_PROPERTY
Valence
SciTegic.value.DoubleValue
8.924

@<SCITEGIC>MOL_PROPERTY
Coulomb
SciTegic.value.DoubleValue
-1.171

@<SCITEGIC>MOL_PROPERTY
VdW
SciTegic.value.DoubleValue
0.894

@<SCITEGIC>MOL_PROPERTY
VdW6
SciTegic.value.DoubleValue
-10.224

@<SCITEGIC>MOL_PROPERTY
VdW12
SciTegic.value.DoubleValue
11.117

@<SCITEGIC>MOL_PROPERTY
Bond
SciTegic.value.DoubleValue
0.231

@<SCITEGIC>MOL_PROPERTY
Angle
SciTegic.value.DoubleValue
3.232

@<SCITEGIC>MOL_PROPERTY
Pdih
SciTegic.value.DoubleValue
5.461

@<SCITEGIC>MOL_PROPERTY
Idih
SciTegic.value.DoubleValue
0.001

@<SCITEGIC>MOL_PROPERTY
Tether
SciTegic.value.DoubleValue
0.000

@<TRIPOS>MOLECULE
guest-8_vm2.mol2 : vm2 ligand conformer 49
          25          24           1
SMALL
USER_CHARGES
 
@<TRIPOS>ATOM
       1    C1      20.011696   19.352917   27.454741 C.2        1 MOL1         0.6168
       2    O1      20.972435   19.499938   28.184222 O.co2      1 MOL1        -0.6703
       3    O2      18.874796   19.641040   27.772833 O.co2      1 MOL1        -0.6703
       4    C2      20.249098   18.797409   26.055019 C.3        1 MOL1        -0.1963
       5    H1      19.367788   18.208747   25.777295 H          1 MOL1         0.0750
       6    H2      21.100091   18.107588   26.102958 H          1 MOL1         0.0750
       7    C3      20.519282   19.908646   25.007305 C.3        1 MOL1        -0.1860
       8    H3      19.641093   20.564726   24.932198 H          1 MOL1         0.0752
       9    H4      21.345452   20.537192   25.367584 H          1 MOL1         0.0752
      10    C4      20.887287   19.365027   23.605963 C.3        1 MOL1        -0.1858
      11    H5      21.759370   18.701852   23.684927 H          1 MOL1         0.0752
      12    H6      21.196267   20.214710   22.983822 H          1 MOL1         0.0752
      13    C5      19.722916   18.618020   22.910171 C.3        1 MOL1        -0.1858
      14    H7      19.406480   17.772929   23.534198 H          1 MOL1         0.0752
      15    H8      18.851581   19.280940   22.830643 H          1 MOL1         0.0752
      16    C6      20.093260   18.060722   21.512091 C.3        1 MOL1        -0.1858
      17    H9      19.236185   17.494941   21.122237 H          1 MOL1         0.0752
      18    H10     20.909446   17.334094   21.624017 H          1 MOL1         0.0752
      19    C7      20.509279   19.119613   20.460832 C.3        1 MOL1        -0.1834
      20    H11     21.433957   19.622328   20.773223 H          1 MOL1         0.0752
      21    H12     20.749118   18.602903   19.521400 H          1 MOL1         0.0752
      22    C8      19.412951   20.170669   20.182823 C.3        1 MOL1        -0.2849
      23    H13     19.223551   20.792201   21.067075 H          1 MOL1         0.0764
      24    H14     19.718432   20.837976   19.366644 H          1 MOL1         0.0764
      25    H15     18.470892   19.688310   19.891566 H          1 MOL1         0.0764
@<TRIPOS>BOND
    1     1     2    1
    2     1     3    2
    3     1     4    1
    4     4     5    1
    5     4     6    1
    6     4     7    1
    7     7     8    1
    8     7     9    1
    9     7    10    1
   10    10    11    1
   11    10    12    1
   12    10    13    1
   13    13    14    1
   14    13    15    1
   15    13    16    1
   16    16    17    1
   17    16    18    1
   18    16    19    1
   19    19    20    1
   20    19    21    1
   21    19    22    1
   22    22    23    1
   23    22    24    1
   24    22    25    1
@<TRIPOS>SUBSTRUCTURE
       1 MOL1            1 RESIDUE      1      MOL     
@<SCITEGIC>MOL_PROPERTY
VM2 Rank
SciTegic.value.IntegerValue
49

@<SCITEGIC>MOL_PROPERTY
Conf_Id
SciTegic.value.IntegerValue
697

@<SCITEGIC>MOL_PROPERTY
Probability
SciTegic.value.DoubleValue
0.21

@<SCITEGIC>MOL_PROPERTY
Sum Probability
SciTegic.value.DoubleValue
96.64

@<SCITEGIC>MOL_PROPERTY
Delta G
SciTegic.value.DoubleValue
2.869

@<SCITEGIC>MOL_PROPERTY
G
SciTegic.value.DoubleValue
-5.093

@<SCITEGIC>MOL_PROPERTY
E
SciTegic.value.DoubleValue
-29.959

@<SCITEGIC>MOL_PROPERTY
-TS
SciTegic.value.DoubleValue
24.866

@<SCITEGIC>MOL_PROPERTY
U+W
SciTegic.value.DoubleValue
-50.527

@<SCITEGIC>MOL_PROPERTY
U
SciTegic.value.DoubleValue
8.474

@<SCITEGIC>MOL_PROPERTY
W
SciTegic.value.DoubleValue
-59.000

@<SCITEGIC>MOL_PROPERTY
W(PB)
SciTegic.value.DoubleValue
-61.454

@<SCITEGIC>MOL_PROPERTY
W(SA)
SciTegic.value.DoubleValue
2.453

@<SCITEGIC>MOL_PROPERTY
Valence
SciTegic.value.DoubleValue
9.080

@<SCITEGIC>MOL_PROPERTY
Coulomb
SciTegic.value.DoubleValue
-1.772

@<SCITEGIC>MOL_PROPERTY
VdW
SciTegic.value.DoubleValue
1.165

@<SCITEGIC>MOL_PROPERTY
VdW6
SciTegic.value.DoubleValue
-9.830

@<SCITEGIC>MOL_PROPERTY
VdW12
SciTegic.value.DoubleValue
10.995

@<SCITEGIC>MOL_PROPERTY
Bond
SciTegic.value.DoubleValue
0.240

@<SCITEGIC>MOL_PROPERTY
Angle
SciTegic.value.DoubleValue
3.225

@<SCITEGIC>MOL_PROPERTY
Pdih
SciTegic.value.DoubleValue
5.614

@<SCITEGIC>MOL_PROPERTY
Idih
SciTegic.value.DoubleValue
0.001

@<SCITEGIC>MOL_PROPERTY
Tether
SciTegic.value.DoubleValue
0.000

@<TRIPOS>MOLECULE
guest-8_vm2.mol2 : vm2 ligand conformer 50
          25          24           1
SMALL
USER_CHARGES
 
@<TRIPOS>ATOM
       1    C1      20.286032   19.765598   27.140181 C.2        1 MOL1         0.6168
       2    O1      21.335450   20.377530   27.108814 O.co2      1 MOL1        -0.6703
       3    O2      19.775961   19.356250   28.164439 O.co2      1 MOL1        -0.6703
       4    C2      19.581847   19.475073   25.819768 C.3        1 MOL1        -0.1963
       5    H1      19.777638   20.316821   25.145789 H          1 MOL1         0.0750
       6    H2      18.501772   19.451027   26.007083 H          1 MOL1         0.0750
       7    C3      20.043187   18.142708   25.174474 C.3        1 MOL1        -0.1860
       8    H3      21.118448   18.192382   24.957930 H          1 MOL1         0.0752
       9    H4      19.920162   17.334312   25.908380 H          1 MOL1         0.0752
      10    C4      19.255598   17.768376   23.893351 C.3        1 MOL1        -0.1858
      11    H5      18.204411   17.596596   24.162135 H          1 MOL1         0.0752
      12    H6      19.631930   16.807847   23.515844 H          1 MOL1         0.0752
      13    C5      19.309057   18.812125   22.748833 C.3        1 MOL1        -0.1858
      14    H7      18.693689   18.435410   21.922132 H          1 MOL1         0.0752
      15    H8      18.840254   19.750029   23.073523 H          1 MOL1         0.0752
      16    C6      20.742470   19.094318   22.235200 C.3        1 MOL1        -0.1858
      17    H9      21.211828   18.155689   21.910893 H          1 MOL1         0.0752
      18    H10     21.354538   19.481354   23.059995 H          1 MOL1         0.0752
      19    C7      20.790544   20.123696   21.081801 C.3        1 MOL1        -0.1834
      20    H11     20.311330   21.059895   21.399847 H          1 MOL1         0.0752
      21    H12     21.841159   20.368714   20.873525 H          1 MOL1         0.0752
      22    C8      20.132855   19.618326   19.779141 C.3        1 MOL1        -0.2849
      23    H13     19.052458   19.474924   19.903854 H          1 MOL1         0.0764
      24    H14     20.279269   20.344448   18.969082 H          1 MOL1         0.0764
      25    H15     20.573128   18.664318   19.461147 H          1 MOL1         0.0764
@<TRIPOS>BOND
    1     1     2    1
    2     1     3    2
    3     1     4    1
    4     4     5    1
    5     4     6    1
    6     4     7    1
    7     7     8    1
    8     7     9    1
    9     7    10    1
   10    10    11    1
   11    10    12    1
   12    10    13    1
   13    13    14    1
   14    13    15    1
   15    13    16    1
   16    16    17    1
   17    16    18    1
   18    16    19    1
   19    19    20    1
   20    19    21    1
   21    19    22    1
   22    22    23    1
   23    22    24    1
   24    22    25    1
@<TRIPOS>SUBSTRUCTURE
       1 MOL1            1 RESIDUE      1      MOL     
@<SCITEGIC>MOL_PROPERTY
VM2 Rank
SciTegic.value.IntegerValue
50

@<SCITEGIC>MOL_PROPERTY
Conf_Id
SciTegic.value.IntegerValue
456

@<SCITEGIC>MOL_PROPERTY
Probability
SciTegic.value.DoubleValue
0.20

@<SCITEGIC>MOL_PROPERTY
Sum Probability
SciTegic.value.DoubleValue
96.84

@<SCITEGIC>MOL_PROPERTY
Delta G
SciTegic.value.DoubleValue
2.892

@<SCITEGIC>MOL_PROPERTY
G
SciTegic.value.DoubleValue
-5.070

@<SCITEGIC>MOL_PROPERTY
E
SciTegic.value.DoubleValue
-29.985

@<SCITEGIC>MOL_PROPERTY
-TS
SciTegic.value.DoubleValue
24.915

@<SCITEGIC>MOL_PROPERTY
U+W
SciTegic.value.DoubleValue
-50.553

@<SCITEGIC>MOL_PROPERTY
U
SciTegic.value.DoubleValue
8.774

@<SCITEGIC>MOL_PROPERTY
W
SciTegic.value.DoubleValue
-59.327

@<SCITEGIC>MOL_PROPERTY
W(PB)
SciTegic.value.DoubleValue
-61.793

@<SCITEGIC>MOL_PROPERTY
W(SA)
SciTegic.value.DoubleValue
2.466

@<SCITEGIC>MOL_PROPERTY
Valence
SciTegic.value.DoubleValue
9.062

@<SCITEGIC>MOL_PROPERTY
Coulomb
SciTegic.value.DoubleValue
-1.371

@<SCITEGIC>MOL_PROPERTY
VdW
SciTegic.value.DoubleValue
1.083

@<SCITEGIC>MOL_PROPERTY
VdW6
SciTegic.value.DoubleValue
-9.990

@<SCITEGIC>MOL_PROPERTY
VdW12
SciTegic.value.DoubleValue
11.073

@<SCITEGIC>MOL_PROPERTY
Bond
SciTegic.value.DoubleValue
0.239

@<SCITEGIC>MOL_PROPERTY
Angle
SciTegic.value.DoubleValue
3.221

@<SCITEGIC>MOL_PROPERTY
Pdih
SciTegic.value.DoubleValue
5.601

@<SCITEGIC>MOL_PROPERTY
Idih
SciTegic.value.DoubleValue
0.001

@<SCITEGIC>MOL_PROPERTY
Tether
SciTegic.value.DoubleValue
0.000

@<TRIPOS>MOLECULE
guest-8_vm2.mol2 : vm2 ligand conformer 51
          25          24           1
SMALL
USER_CHARGES
 
@<TRIPOS>ATOM
       1    C1      20.469677   19.448594   27.263192 C.2        1 MOL1         0.6168
       2    O1      21.511210   20.068012   27.353832 O.co2      1 MOL1        -0.6703
       3    O2      19.554505   19.550539   28.056168 O.co2      1 MOL1        -0.6703
       4    C2      20.293999   18.504889   26.078826 C.3        1 MOL1        -0.1963
       5    H1      19.669882   17.663656   26.403304 H          1 MOL1         0.0750
       6    H2      21.278374   18.097483   25.818822 H          1 MOL1         0.0750
       7    C3      19.660845   19.197402   24.846962 C.3        1 MOL1        -0.1860
       8    H3      18.680085   19.607589   25.124449 H          1 MOL1         0.0752
       9    H4      20.292154   20.046616   24.553584 H          1 MOL1         0.0752
      10    C4      19.500657   18.220703   23.659096 C.3        1 MOL1        -0.1858
      11    H5      18.925786   17.345535   23.991098 H          1 MOL1         0.0752
      12    H6      20.484822   17.840847   23.354900 H          1 MOL1         0.0752
      13    C5      18.776960   18.845809   22.440144 C.3        1 MOL1        -0.1858
      14    H7      18.651290   18.074738   21.668759 H          1 MOL1         0.0752
      15    H8      17.760330   19.132929   22.740973 H          1 MOL1         0.0752
      16    C6      19.476311   20.082856   21.816894 C.3        1 MOL1        -0.1858
      17    H9      19.455659   20.912481   22.535618 H          1 MOL1         0.0752
      18    H10     18.884609   20.422201   20.955951 H          1 MOL1         0.0752
      19    C7      20.937309   19.852833   21.357868 C.3        1 MOL1        -0.1834
      20    H11     21.332440   20.797711   20.960398 H          1 MOL1         0.0752
      21    H12     21.568478   19.598401   22.219682 H          1 MOL1         0.0752
      22    C8      21.071526   18.762363   20.273017 C.3        1 MOL1        -0.2849
      23    H13     20.435208   18.988828   19.407715 H          1 MOL1         0.0764
      24    H14     22.109322   18.694993   19.922065 H          1 MOL1         0.0764
      25    H15     20.786760   17.776547   20.661631 H          1 MOL1         0.0764
@<TRIPOS>BOND
    1     1     2    1
    2     1     3    2
    3     1     4    1
    4     4     5    1
    5     4     6    1
    6     4     7    1
    7     7     8    1
    8     7     9    1
    9     7    10    1
   10    10    11    1
   11    10    12    1
   12    10    13    1
   13    13    14    1
   14    13    15    1
   15    13    16    1
   16    16    17    1
   17    16    18    1
   18    16    19    1
   19    19    20    1
   20    19    21    1
   21    19    22    1
   22    22    23    1
   23    22    24    1
   24    22    25    1
@<TRIPOS>SUBSTRUCTURE
       1 MOL1            1 RESIDUE      1      MOL     
@<SCITEGIC>MOL_PROPERTY
VM2 Rank
SciTegic.value.IntegerValue
51

@<SCITEGIC>MOL_PROPERTY
Conf_Id
SciTegic.value.IntegerValue
29

@<SCITEGIC>MOL_PROPERTY
Probability
SciTegic.value.DoubleValue
0.20

@<SCITEGIC>MOL_PROPERTY
Sum Probability
SciTegic.value.DoubleValue
97.04

@<SCITEGIC>MOL_PROPERTY
Delta G
SciTegic.value.DoubleValue
2.893

@<SCITEGIC>MOL_PROPERTY
G
SciTegic.value.DoubleValue
-5.069

@<SCITEGIC>MOL_PROPERTY
E
SciTegic.value.DoubleValue
-30.212

@<SCITEGIC>MOL_PROPERTY
-TS
SciTegic.value.DoubleValue
25.143

@<SCITEGIC>MOL_PROPERTY
U+W
SciTegic.value.DoubleValue
-50.780

@<SCITEGIC>MOL_PROPERTY
U
SciTegic.value.DoubleValue
8.646

@<SCITEGIC>MOL_PROPERTY
W
SciTegic.value.DoubleValue
-59.426

@<SCITEGIC>MOL_PROPERTY
W(PB)
SciTegic.value.DoubleValue
-61.868

@<SCITEGIC>MOL_PROPERTY
W(SA)
SciTegic.value.DoubleValue
2.442

@<SCITEGIC>MOL_PROPERTY
Valence
SciTegic.value.DoubleValue
8.924

@<SCITEGIC>MOL_PROPERTY
Coulomb
SciTegic.value.DoubleValue
-1.171

@<SCITEGIC>MOL_PROPERTY
VdW
SciTegic.value.DoubleValue
0.894

@<SCITEGIC>MOL_PROPERTY
VdW6
SciTegic.value.DoubleValue
-10.223

@<SCITEGIC>MOL_PROPERTY
VdW12
SciTegic.value.DoubleValue
11.117

@<SCITEGIC>MOL_PROPERTY
Bond
SciTegic.value.DoubleValue
0.231

@<SCITEGIC>MOL_PROPERTY
Angle
SciTegic.value.DoubleValue
3.232

@<SCITEGIC>MOL_PROPERTY
Pdih
SciTegic.value.DoubleValue
5.461

@<SCITEGIC>MOL_PROPERTY
Idih
SciTegic.value.DoubleValue
0.001

@<SCITEGIC>MOL_PROPERTY
Tether
SciTegic.value.DoubleValue
0.000

@<TRIPOS>MOLECULE
guest-8_vm2.mol2 : vm2 ligand conformer 52
          25          24           1
SMALL
USER_CHARGES
 
@<TRIPOS>ATOM
       1    C1      19.972703   19.162953   27.202416 C.2        1 MOL1         0.6168
       2    O1      20.870312   18.459857   27.623164 O.co2      1 MOL1        -0.6703
       3    O2      18.793991   18.932085   27.387996 O.co2      1 MOL1        -0.6703
       4    C2      20.344343   20.415913   26.414433 C.3        1 MOL1        -0.1963
       5    H1      21.387237   20.672528   26.636442 H          1 MOL1         0.0750
       6    H2      19.727277   21.238278   26.795111 H          1 MOL1         0.0750
       7    C3      20.139359   20.280060   24.883291 C.3        1 MOL1        -0.1860
       8    H3      19.094817   20.003928   24.687146 H          1 MOL1         0.0752
       9    H4      20.302989   21.258969   24.412930 H          1 MOL1         0.0752
      10    C4      21.094891   19.241997   24.247688 C.3        1 MOL1        -0.1858
      11    H5      20.892482   18.245098   24.662999 H          1 MOL1         0.0752
      12    H6      22.128232   19.489045   24.526925 H          1 MOL1         0.0752
      13    C5      21.002275   19.186069   22.704286 C.3        1 MOL1        -0.1858
      14    H7      21.225251   20.179212   22.292939 H          1 MOL1         0.0752
      15    H8      21.784757   18.510886   22.332273 H          1 MOL1         0.0752
      16    C6      19.626789   18.695402   22.189777 C.3        1 MOL1        -0.1858
      17    H9      18.847055   19.424629   22.445510 H          1 MOL1         0.0752
      18    H10     19.363664   17.762095   22.705942 H          1 MOL1         0.0752
      19    C7      19.600208   18.439370   20.664900 C.3        1 MOL1        -0.1834
      20    H11     20.365135   17.696511   20.399737 H          1 MOL1         0.0752
      21    H12     18.631167   17.995338   20.398450 H          1 MOL1         0.0752
      22    C8      19.808129   19.720294   19.828048 C.3        1 MOL1        -0.2849
      23    H13     19.697253   19.502215   18.757990 H          1 MOL1         0.0764
      24    H14     19.070166   20.487937   20.094982 H          1 MOL1         0.0764
      25    H15     20.810870   20.138995   19.979760 H          1 MOL1         0.0764
@<TRIPOS>BOND
    1     1     2    1
    2     1     3    2
    3     1     4    1
    4     4     5    1
    5     4     6    1
    6     4     7    1
    7     7     8    1
    8     7     9    1
    9     7    10    1
   10    10    11    1
   11    10    12    1
   12    10    13    1
   13    13    14    1
   14    13    15    1
   15    13    16    1
   16    16    17    1
   17    16    18    1
   18    16    19    1
   19    19    20    1
   20    19    21    1
   21    19    22    1
   22    22    23    1
   23    22    24    1
   24    22    25    1
@<TRIPOS>SUBSTRUCTURE
       1 MOL1            1 RESIDUE      1      MOL     
@<SCITEGIC>MOL_PROPERTY
VM2 Rank
SciTegic.value.IntegerValue
52

@<SCITEGIC>MOL_PROPERTY
Conf_Id
SciTegic.value.IntegerValue
1109

@<SCITEGIC>MOL_PROPERTY
Probability
SciTegic.value.DoubleValue
0.12

@<SCITEGIC>MOL_PROPERTY
Sum Probability
SciTegic.value.DoubleValue
97.16

@<SCITEGIC>MOL_PROPERTY
Delta G
SciTegic.value.DoubleValue
3.176

@<SCITEGIC>MOL_PROPERTY
G
SciTegic.value.DoubleValue
-4.786

@<SCITEGIC>MOL_PROPERTY
E
SciTegic.value.DoubleValue
-29.735

@<SCITEGIC>MOL_PROPERTY
-TS
SciTegic.value.DoubleValue
24.948

@<SCITEGIC>MOL_PROPERTY
U+W
SciTegic.value.DoubleValue
-50.302

@<SCITEGIC>MOL_PROPERTY
U
SciTegic.value.DoubleValue
9.531

@<SCITEGIC>MOL_PROPERTY
W
SciTegic.value.DoubleValue
-59.833

@<SCITEGIC>MOL_PROPERTY
W(PB)
SciTegic.value.DoubleValue
-62.309

@<SCITEGIC>MOL_PROPERTY
W(SA)
SciTegic.value.DoubleValue
2.476

@<SCITEGIC>MOL_PROPERTY
Valence
SciTegic.value.DoubleValue
8.779

@<SCITEGIC>MOL_PROPERTY
Coulomb
SciTegic.value.DoubleValue
-0.178

@<SCITEGIC>MOL_PROPERTY
VdW
SciTegic.value.DoubleValue
0.930

@<SCITEGIC>MOL_PROPERTY
VdW6
SciTegic.value.DoubleValue
-9.874

@<SCITEGIC>MOL_PROPERTY
VdW12
SciTegic.value.DoubleValue
10.804

@<SCITEGIC>MOL_PROPERTY
Bond
SciTegic.value.DoubleValue
0.204

@<SCITEGIC>MOL_PROPERTY
Angle
SciTegic.value.DoubleValue
2.848

@<SCITEGIC>MOL_PROPERTY
Pdih
SciTegic.value.DoubleValue
5.726

@<SCITEGIC>MOL_PROPERTY
Idih
SciTegic.value.DoubleValue
0.001

@<SCITEGIC>MOL_PROPERTY
Tether
SciTegic.value.DoubleValue
0.000

@<TRIPOS>MOLECULE
guest-8_vm2.mol2 : vm2 ligand conformer 53
          25          24           1
SMALL
USER_CHARGES
 
@<TRIPOS>ATOM
       1    C1      20.008050   19.468288   27.197444 C.2        1 MOL1         0.6168
       2    O1      21.044112   19.960586   27.599056 O.co2      1 MOL1        -0.6703
       3    O2      18.913955   19.968042   27.371517 O.co2      1 MOL1        -0.6703
       4    C2      20.080605   18.139114   26.451138 C.3        1 MOL1        -0.1963
       5    H1      19.293334   17.492084   26.855522 H          1 MOL1         0.0750
       6    H2      21.038064   17.658155   26.685054 H          1 MOL1         0.0750
       7    C3      19.906457   18.269394   24.915701 C.3        1 MOL1        -0.1860
       8    H3      19.840254   17.264529   24.477366 H          1 MOL1         0.0752
       9    H4      18.951973   18.770589   24.707004 H          1 MOL1         0.0752
      10    C4      21.071629   19.040757   24.250886 C.3        1 MOL1        -0.1858
      11    H5      22.022158   18.573057   24.541660 H          1 MOL1         0.0752
      12    H6      21.104001   20.070240   24.633479 H          1 MOL1         0.0752
      13    C5      20.988550   19.067175   22.706153 C.3        1 MOL1        -0.1858
      14    H7      21.903291   19.533372   22.315702 H          1 MOL1         0.0752
      15    H8      20.977038   18.036769   22.327484 H          1 MOL1         0.0752
      16    C6      19.759778   19.842669   22.171208 C.3        1 MOL1        -0.1858
      17    H9      19.718929   20.827382   22.656383 H          1 MOL1         0.0752
      18    H10     18.834928   19.319565   22.447195 H          1 MOL1         0.0752
      19    C7      19.786763   20.049255   20.638857 C.3        1 MOL1        -0.1834
      20    H11     18.943961   20.694405   20.354840 H          1 MOL1         0.0752
      21    H12     20.700309   20.588652   20.352936 H          1 MOL1         0.0752
      22    C8      19.693103   18.728720   19.844041 C.3        1 MOL1        -0.2849
      23    H13     20.574044   18.096820   20.012739 H          1 MOL1         0.0764
      24    H14     18.800110   18.159131   20.132576 H          1 MOL1         0.0764
      25    H15     19.631103   18.932150   18.767172 H          1 MOL1         0.0764
@<TRIPOS>BOND
    1     1     2    1
    2     1     3    2
    3     1     4    1
    4     4     5    1
    5     4     6    1
    6     4     7    1
    7     7     8    1
    8     7     9    1
    9     7    10    1
   10    10    11    1
   11    10    12    1
   12    10    13    1
   13    13    14    1
   14    13    15    1
   15    13    16    1
   16    16    17    1
   17    16    18    1
   18    16    19    1
   19    19    20    1
   20    19    21    1
   21    19    22    1
   22    22    23    1
   23    22    24    1
   24    22    25    1
@<TRIPOS>SUBSTRUCTURE
       1 MOL1            1 RESIDUE      1      MOL     
@<SCITEGIC>MOL_PROPERTY
VM2 Rank
SciTegic.value.IntegerValue
53

@<SCITEGIC>MOL_PROPERTY
Conf_Id
SciTegic.value.IntegerValue
1060

@<SCITEGIC>MOL_PROPERTY
Probability
SciTegic.value.DoubleValue
0.12

@<SCITEGIC>MOL_PROPERTY
Sum Probability
SciTegic.value.DoubleValue
97.28

@<SCITEGIC>MOL_PROPERTY
Delta G
SciTegic.value.DoubleValue
3.204

@<SCITEGIC>MOL_PROPERTY
G
SciTegic.value.DoubleValue
-4.758

@<SCITEGIC>MOL_PROPERTY
E
SciTegic.value.DoubleValue
-29.706

@<SCITEGIC>MOL_PROPERTY
-TS
SciTegic.value.DoubleValue
24.948

@<SCITEGIC>MOL_PROPERTY
U+W
SciTegic.value.DoubleValue
-50.274

@<SCITEGIC>MOL_PROPERTY
U
SciTegic.value.DoubleValue
9.530

@<SCITEGIC>MOL_PROPERTY
W
SciTegic.value.DoubleValue
-59.804

@<SCITEGIC>MOL_PROPERTY
W(PB)
SciTegic.value.DoubleValue
-62.267

@<SCITEGIC>MOL_PROPERTY
W(SA)
SciTegic.value.DoubleValue
2.464

@<SCITEGIC>MOL_PROPERTY
Valence
SciTegic.value.DoubleValue
8.779

@<SCITEGIC>MOL_PROPERTY
Coulomb
SciTegic.value.DoubleValue
-0.179

@<SCITEGIC>MOL_PROPERTY
VdW
SciTegic.value.DoubleValue
0.930

@<SCITEGIC>MOL_PROPERTY
VdW6
SciTegic.value.DoubleValue
-9.873

@<SCITEGIC>MOL_PROPERTY
VdW12
SciTegic.value.DoubleValue
10.803

@<SCITEGIC>MOL_PROPERTY
Bond
SciTegic.value.DoubleValue
0.204

@<SCITEGIC>MOL_PROPERTY
Angle
SciTegic.value.DoubleValue
2.848

@<SCITEGIC>MOL_PROPERTY
Pdih
SciTegic.value.DoubleValue
5.727

@<SCITEGIC>MOL_PROPERTY
Idih
SciTegic.value.DoubleValue
0.001

@<SCITEGIC>MOL_PROPERTY
Tether
SciTegic.value.DoubleValue
0.000

@<TRIPOS>MOLECULE
guest-8_vm2.mol2 : vm2 ligand conformer 54
          25          24           1
SMALL
USER_CHARGES
 
@<TRIPOS>ATOM
       1    C1      20.030366   19.411330   27.316394 C.2        1 MOL1         0.6168
       2    O1      21.073640   19.895118   27.709572 O.co2      1 MOL1        -0.6703
       3    O2      18.933825   19.827848   27.634548 O.co2      1 MOL1        -0.6703
       4    C2      20.098470   18.202681   26.387057 C.3        1 MOL1        -0.1963
       5    H1      19.380394   17.462822   26.759801 H          1 MOL1         0.0750
       6    H2      21.093851   17.750249   26.472728 H          1 MOL1         0.0750
       7    C3      19.783789   18.527531   24.903504 C.3        1 MOL1        -0.1860
       8    H3      19.705409   17.583322   24.349744 H          1 MOL1         0.0752
       9    H4      18.801808   19.016283   24.838274 H          1 MOL1         0.0752
      10    C4      20.861432   19.426212   24.250602 C.3        1 MOL1        -0.1858
      11    H5      21.835051   18.918325   24.280074 H          1 MOL1         0.0752
      12    H6      20.973852   20.344248   24.843504 H          1 MOL1         0.0752
      13    C5      20.528468   19.825854   22.793377 C.3        1 MOL1        -0.1858
      14    H7      19.560730   20.343964   22.773891 H          1 MOL1         0.0752
      15    H8      21.278361   20.552072   22.451581 H          1 MOL1         0.0752
      16    C6      20.507613   18.625763   21.815102 C.3        1 MOL1        -0.1858
      17    H9      19.678768   17.950561   22.064409 H          1 MOL1         0.0752
      18    H10     21.432321   18.046048   21.939483 H          1 MOL1         0.0752
      19    C7      20.387148   19.048139   20.332326 C.3        1 MOL1        -0.1834
      20    H11     21.222580   19.710150   20.065745 H          1 MOL1         0.0752
      21    H12     20.486479   18.154078   19.701460 H          1 MOL1         0.0752
      22    C8      19.048248   19.743524   20.003518 C.3        1 MOL1        -0.2849
      23    H13     18.954821   20.701319   20.530516 H          1 MOL1         0.0764
      24    H14     18.975518   19.947597   18.927442 H          1 MOL1         0.0764
      25    H15     18.197075   19.110392   20.285952 H          1 MOL1         0.0764
@<TRIPOS>BOND
    1     1     2    1
    2     1     3    2
    3     1     4    1
    4     4     5    1
    5     4     6    1
    6     4     7    1
    7     7     8    1
    8     7     9    1
    9     7    10    1
   10    10    11    1
   11    10    12    1
   12    10    13    1
   13    13    14    1
   14    13    15    1
   15    13    16    1
   16    16    17    1
   17    16    18    1
   18    16    19    1
   19    19    20    1
   20    19    21    1
   21    19    22    1
   22    22    23    1
   23    22    24    1
   24    22    25    1
@<TRIPOS>SUBSTRUCTURE
       1 MOL1            1 RESIDUE      1      MOL     
@<SCITEGIC>MOL_PROPERTY
VM2 Rank
SciTegic.value.IntegerValue
54

@<SCITEGIC>MOL_PROPERTY
Conf_Id
SciTegic.value.IntegerValue
453

@<SCITEGIC>MOL_PROPERTY
Probability
SciTegic.value.DoubleValue
0.11

@<SCITEGIC>MOL_PROPERTY
Sum Probability
SciTegic.value.DoubleValue
97.39

@<SCITEGIC>MOL_PROPERTY
Delta G
SciTegic.value.DoubleValue
3.221

@<SCITEGIC>MOL_PROPERTY
G
SciTegic.value.DoubleValue
-4.742

@<SCITEGIC>MOL_PROPERTY
E
SciTegic.value.DoubleValue
-29.700

@<SCITEGIC>MOL_PROPERTY
-TS
SciTegic.value.DoubleValue
24.958

@<SCITEGIC>MOL_PROPERTY
U+W
SciTegic.value.DoubleValue
-50.268

@<SCITEGIC>MOL_PROPERTY
U
SciTegic.value.DoubleValue
9.318

@<SCITEGIC>MOL_PROPERTY
W
SciTegic.value.DoubleValue
-59.585

@<SCITEGIC>MOL_PROPERTY
W(PB)
SciTegic.value.DoubleValue
-62.043

@<SCITEGIC>MOL_PROPERTY
W(SA)
SciTegic.value.DoubleValue
2.458

@<SCITEGIC>MOL_PROPERTY
Valence
SciTegic.value.DoubleValue
8.828

@<SCITEGIC>MOL_PROPERTY
Coulomb
SciTegic.value.DoubleValue
-0.524

@<SCITEGIC>MOL_PROPERTY
VdW
SciTegic.value.DoubleValue
1.014

@<SCITEGIC>MOL_PROPERTY
VdW6
SciTegic.value.DoubleValue
-9.805

@<SCITEGIC>MOL_PROPERTY
VdW12
SciTegic.value.DoubleValue
10.819

@<SCITEGIC>MOL_PROPERTY
Bond
SciTegic.value.DoubleValue
0.208

@<SCITEGIC>MOL_PROPERTY
Angle
SciTegic.value.DoubleValue
2.883

@<SCITEGIC>MOL_PROPERTY
Pdih
SciTegic.value.DoubleValue
5.736

@<SCITEGIC>MOL_PROPERTY
Idih
SciTegic.value.DoubleValue
0.000

@<SCITEGIC>MOL_PROPERTY
Tether
SciTegic.value.DoubleValue
0.000

@<TRIPOS>MOLECULE
guest-8_vm2.mol2 : vm2 ligand conformer 55
          25          24           1
SMALL
USER_CHARGES
 
@<TRIPOS>ATOM
       1    C1      20.129878   19.613140   27.178567 C.2        1 MOL1         0.6168
       2    O1      21.243610   20.017054   27.449707 O.co2      1 MOL1        -0.6703
       3    O2      19.116009   20.255025   27.371312 O.co2      1 MOL1        -0.6703
       4    C2      19.992948   18.215070   26.582242 C.3        1 MOL1        -0.1963
       5    H1      19.174542   17.711591   27.110160 H          1 MOL1         0.0750
       6    H2      20.907008   17.650052   26.801383 H          1 MOL1         0.0750
       7    C3      19.709064   18.206425   25.057672 C.3        1 MOL1        -0.1860
       8    H3      19.497481   17.176541   24.740144 H          1 MOL1         0.0752
       9    H4      18.801232   18.792219   24.862707 H          1 MOL1         0.0752
      10    C4      20.894164   18.762516   24.232109 C.3        1 MOL1        -0.1858
      11    H5      21.808286   18.222540   24.514331 H          1 MOL1         0.0752
      12    H6      21.066710   19.816797   24.489058 H          1 MOL1         0.0752
      13    C5      20.699638   18.629872   22.702650 C.3        1 MOL1        -0.1858
      14    H7      21.641995   18.911279   22.215864 H          1 MOL1         0.0752
      15    H8      20.517664   17.577863   22.444418 H          1 MOL1         0.0752
      16    C6      19.552463   19.510528   22.148592 C.3        1 MOL1        -0.1858
      17    H9      19.733199   20.561990   22.410204 H          1 MOL1         0.0752
      18    H10     18.608620   19.227294   22.631296 H          1 MOL1         0.0752
      19    C7      19.363859   19.383008   20.618688 C.3        1 MOL1        -0.1834
      20    H11     19.194100   18.330689   20.352053 H          1 MOL1         0.0752
      21    H12     18.453320   19.926322   20.330644 H          1 MOL1         0.0752
      22    C8      20.551367   19.941363   19.804461 C.3        1 MOL1        -0.2849
      23    H13     21.462046   19.351447   19.965921 H          1 MOL1         0.0764
      24    H14     20.325847   19.915172   18.730516 H          1 MOL1         0.0764
      25    H15     20.761604   20.982988   20.080018 H          1 MOL1         0.0764
@<TRIPOS>BOND
    1     1     2    1
    2     1     3    2
    3     1     4    1
    4     4     5    1
    5     4     6    1
    6     4     7    1
    7     7     8    1
    8     7     9    1
    9     7    10    1
   10    10    11    1
   11    10    12    1
   12    10    13    1
   13    13    14    1
   14    13    15    1
   15    13    16    1
   16    16    17    1
   17    16    18    1
   18    16    19    1
   19    19    20    1
   20    19    21    1
   21    19    22    1
   22    22    23    1
   23    22    24    1
   24    22    25    1
@<TRIPOS>SUBSTRUCTURE
       1 MOL1            1 RESIDUE      1      MOL     
@<SCITEGIC>MOL_PROPERTY
VM2 Rank
SciTegic.value.IntegerValue
55

@<SCITEGIC>MOL_PROPERTY
Conf_Id
SciTegic.value.IntegerValue
163

@<SCITEGIC>MOL_PROPERTY
Probability
SciTegic.value.DoubleValue
0.11

@<SCITEGIC>MOL_PROPERTY
Sum Probability
SciTegic.value.DoubleValue
97.50

@<SCITEGIC>MOL_PROPERTY
Delta G
SciTegic.value.DoubleValue
3.221

@<SCITEGIC>MOL_PROPERTY
G
SciTegic.value.DoubleValue
-4.741

@<SCITEGIC>MOL_PROPERTY
E
SciTegic.value.DoubleValue
-29.609

@<SCITEGIC>MOL_PROPERTY
-TS
SciTegic.value.DoubleValue
24.868

@<SCITEGIC>MOL_PROPERTY
U+W
SciTegic.value.DoubleValue
-50.176

@<SCITEGIC>MOL_PROPERTY
U
SciTegic.value.DoubleValue
9.764

@<SCITEGIC>MOL_PROPERTY
W
SciTegic.value.DoubleValue
-59.940

@<SCITEGIC>MOL_PROPERTY
W(PB)
SciTegic.value.DoubleValue
-62.392

@<SCITEGIC>MOL_PROPERTY
W(SA)
SciTegic.value.DoubleValue
2.452

@<SCITEGIC>MOL_PROPERTY
Valence
SciTegic.value.DoubleValue
8.882

@<SCITEGIC>MOL_PROPERTY
Coulomb
SciTegic.value.DoubleValue
-0.122

@<SCITEGIC>MOL_PROPERTY
VdW
SciTegic.value.DoubleValue
1.003

@<SCITEGIC>MOL_PROPERTY
VdW6
SciTegic.value.DoubleValue
-9.782

@<SCITEGIC>MOL_PROPERTY
VdW12
SciTegic.value.DoubleValue
10.785

@<SCITEGIC>MOL_PROPERTY
Bond
SciTegic.value.DoubleValue
0.212

@<SCITEGIC>MOL_PROPERTY
Angle
SciTegic.value.DoubleValue
2.941

@<SCITEGIC>MOL_PROPERTY
Pdih
SciTegic.value.DoubleValue
5.730

@<SCITEGIC>MOL_PROPERTY
Idih
SciTegic.value.DoubleValue
0.001

@<SCITEGIC>MOL_PROPERTY
Tether
SciTegic.value.DoubleValue
0.000

@<TRIPOS>MOLECULE
guest-8_vm2.mol2 : vm2 ligand conformer 56
          25          24           1
SMALL
USER_CHARGES
 
@<TRIPOS>ATOM
       1    C1      20.140880   19.613841   27.178451 C.2        1 MOL1         0.6168
       2    O1      21.068948   20.379840   27.348850 O.co2      1 MOL1        -0.6703
       3    O2      18.991309   19.873084   27.475676 O.co2      1 MOL1        -0.6703
       4    C2      20.440956   18.243713   26.577073 C.3        1 MOL1        -0.1963
       5    H1      19.611570   17.567226   26.816362 H          1 MOL1         0.0750
       6    H2      21.328740   17.849319   27.085279 H          1 MOL1         0.0750
       7    C3      20.688476   18.269045   25.046363 C.3        1 MOL1        -0.1860
       8    H3      21.509588   18.965392   24.831423 H          1 MOL1         0.0752
       9    H4      21.022132   17.274026   24.722541 H          1 MOL1         0.0752
      10    C4      19.423531   18.668473   24.249101 C.3        1 MOL1        -0.1858
      11    H5      19.124091   19.692573   24.511504 H          1 MOL1         0.0752
      12    H6      18.592352   18.016901   24.551488 H          1 MOL1         0.0752
      13    C5      19.598110   18.559432   22.715374 C.3        1 MOL1        -0.1858
      14    H7      19.906623   17.538797   22.451474 H          1 MOL1         0.0752
      15    H8      18.616632   18.717782   22.250820 H          1 MOL1         0.0752
      16    C6      20.610683   19.578234   22.136343 C.3        1 MOL1        -0.1858
      17    H9      21.593773   19.418278   22.596789 H          1 MOL1         0.0752
      18    H10     20.303530   20.598493   22.403568 H          1 MOL1         0.0752
      19    C7      20.778736   19.473487   20.602320 C.3        1 MOL1        -0.1834
      20    H11     21.605800   20.127900   20.294184 H          1 MOL1         0.0752
      21    H12     21.074938   18.450955   20.330325 H          1 MOL1         0.0752
      22    C8      19.511371   19.874852   19.816447 C.3        1 MOL1        -0.2849
      23    H13     19.176574   20.881621   20.098296 H          1 MOL1         0.0764
      24    H14     19.713627   19.876017   18.737562 H          1 MOL1         0.0764
      25    H15     18.687197   19.173992   19.997943 H          1 MOL1         0.0764
@<TRIPOS>BOND
    1     1     2    1
    2     1     3    2
    3     1     4    1
    4     4     5    1
    5     4     6    1
    6     4     7    1
    7     7     8    1
    8     7     9    1
    9     7    10    1
   10    10    11    1
   11    10    12    1
   12    10    13    1
   13    13    14    1
   14    13    15    1
   15    13    16    1
   16    16    17    1
   17    16    18    1
   18    16    19    1
   19    19    20    1
   20    19    21    1
   21    19    22    1
   22    22    23    1
   23    22    24    1
   24    22    25    1
@<TRIPOS>SUBSTRUCTURE
       1 MOL1            1 RESIDUE      1      MOL     
@<SCITEGIC>MOL_PROPERTY
VM2 Rank
SciTegic.value.IntegerValue
56

@<SCITEGIC>MOL_PROPERTY
Conf_Id
SciTegic.value.IntegerValue
1091

@<SCITEGIC>MOL_PROPERTY
Probability
SciTegic.value.DoubleValue
0.11

@<SCITEGIC>MOL_PROPERTY
Sum Probability
SciTegic.value.DoubleValue
97.61

@<SCITEGIC>MOL_PROPERTY
Delta G
SciTegic.value.DoubleValue
3.247

@<SCITEGIC>MOL_PROPERTY
G
SciTegic.value.DoubleValue
-4.716

@<SCITEGIC>MOL_PROPERTY
E
SciTegic.value.DoubleValue
-29.583

@<SCITEGIC>MOL_PROPERTY
-TS
SciTegic.value.DoubleValue
24.868

@<SCITEGIC>MOL_PROPERTY
U+W
SciTegic.value.DoubleValue
-50.151

@<SCITEGIC>MOL_PROPERTY
U
SciTegic.value.DoubleValue
9.763

@<SCITEGIC>MOL_PROPERTY
W
SciTegic.value.DoubleValue
-59.914

@<SCITEGIC>MOL_PROPERTY
W(PB)
SciTegic.value.DoubleValue
-62.383

@<SCITEGIC>MOL_PROPERTY
W(SA)
SciTegic.value.DoubleValue
2.468

@<SCITEGIC>MOL_PROPERTY
Valence
SciTegic.value.DoubleValue
8.883

@<SCITEGIC>MOL_PROPERTY
Coulomb
SciTegic.value.DoubleValue
-0.122

@<SCITEGIC>MOL_PROPERTY
VdW
SciTegic.value.DoubleValue
1.003

@<SCITEGIC>MOL_PROPERTY
VdW6
SciTegic.value.DoubleValue
-9.782

@<SCITEGIC>MOL_PROPERTY
VdW12
SciTegic.value.DoubleValue
10.785

@<SCITEGIC>MOL_PROPERTY
Bond
SciTegic.value.DoubleValue
0.212

@<SCITEGIC>MOL_PROPERTY
Angle
SciTegic.value.DoubleValue
2.941

@<SCITEGIC>MOL_PROPERTY
Pdih
SciTegic.value.DoubleValue
5.730

@<SCITEGIC>MOL_PROPERTY
Idih
SciTegic.value.DoubleValue
0.001

@<SCITEGIC>MOL_PROPERTY
Tether
SciTegic.value.DoubleValue
0.000

@<TRIPOS>MOLECULE
guest-8_vm2.mol2 : vm2 ligand conformer 57
          25          24           1
SMALL
USER_CHARGES
 
@<TRIPOS>ATOM
       1    C1      20.200369   19.178156   27.362636 C.2        1 MOL1         0.6168
       2    O1      21.317923   19.403833   27.783650 O.co2      1 MOL1        -0.6703
       3    O2      19.555276   18.192552   27.661787 O.co2      1 MOL1        -0.6703
       4    C2      19.567212   20.198654   26.420887 C.3        1 MOL1        -0.1963
       5    H1      19.737117   21.191713   26.853247 H          1 MOL1         0.0750
       6    H2      18.482231   20.038943   26.409133 H          1 MOL1         0.0750
       7    C3      20.129816   20.160160   24.976012 C.3        1 MOL1        -0.1860
       8    H3      19.731811   21.022196   24.426202 H          1 MOL1         0.0752
       9    H4      21.221620   20.280028   25.007603 H          1 MOL1         0.0752
      10    C4      19.766665   18.852230   24.232111 C.3        1 MOL1        -0.1858
      11    H5      18.674644   18.756321   24.160892 H          1 MOL1         0.0752
      12    H6      20.113748   17.994296   24.824109 H          1 MOL1         0.0752
      13    C5      20.389749   18.749292   22.819266 C.3        1 MOL1        -0.1858
      14    H7      21.479940   18.864191   22.888970 H          1 MOL1         0.0752
      15    H8      20.207491   17.734840   22.442648 H          1 MOL1         0.0752
      16    C6      19.817948   19.779762   21.814275 C.3        1 MOL1        -0.1858
      17    H9      20.005307   20.795263   22.185119 H          1 MOL1         0.0752
      18    H10     18.727197   19.667625   21.748673 H          1 MOL1         0.0752
      19    C7      20.435285   19.666723   20.400555 C.3        1 MOL1        -0.1834
      20    H11     20.081949   20.512332   19.794466 H          1 MOL1         0.0752
      21    H12     21.527759   19.765893   20.463544 H          1 MOL1         0.0752
      22    C8      20.072758   18.352639   19.674821 C.3        1 MOL1        -0.2849
      23    H13     20.453294   18.365760   18.645294 H          1 MOL1         0.0764
      24    H14     20.510134   17.481617   20.178235 H          1 MOL1         0.0764
      25    H15     18.984496   18.215311   19.630799 H          1 MOL1         0.0764
@<TRIPOS>BOND
    1     1     2    1
    2     1     3    2
    3     1     4    1
    4     4     5    1
    5     4     6    1
    6     4     7    1
    7     7     8    1
    8     7     9    1
    9     7    10    1
   10    10    11    1
   11    10    12    1
   12    10    13    1
   13    13    14    1
   14    13    15    1
   15    13    16    1
   16    16    17    1
   17    16    18    1
   18    16    19    1
   19    19    20    1
   20    19    21    1
   21    19    22    1
   22    22    23    1
   23    22    24    1
   24    22    25    1
@<TRIPOS>SUBSTRUCTURE
       1 MOL1            1 RESIDUE      1      MOL     
@<SCITEGIC>MOL_PROPERTY
VM2 Rank
SciTegic.value.IntegerValue
57

@<SCITEGIC>MOL_PROPERTY
Conf_Id
SciTegic.value.IntegerValue
278

@<SCITEGIC>MOL_PROPERTY
Probability
SciTegic.value.DoubleValue
0.11

@<SCITEGIC>MOL_PROPERTY
Sum Probability
SciTegic.value.DoubleValue
97.72

@<SCITEGIC>MOL_PROPERTY
Delta G
SciTegic.value.DoubleValue
3.248

@<SCITEGIC>MOL_PROPERTY
G
SciTegic.value.DoubleValue
-4.715

@<SCITEGIC>MOL_PROPERTY
E
SciTegic.value.DoubleValue
-29.586

@<SCITEGIC>MOL_PROPERTY
-TS
SciTegic.value.DoubleValue
24.871

@<SCITEGIC>MOL_PROPERTY
U+W
SciTegic.value.DoubleValue
-50.154

@<SCITEGIC>MOL_PROPERTY
U
SciTegic.value.DoubleValue
9.417

@<SCITEGIC>MOL_PROPERTY
W
SciTegic.value.DoubleValue
-59.570

@<SCITEGIC>MOL_PROPERTY
W(PB)
SciTegic.value.DoubleValue
-62.044

@<SCITEGIC>MOL_PROPERTY
W(SA)
SciTegic.value.DoubleValue
2.474

@<SCITEGIC>MOL_PROPERTY
Valence
SciTegic.value.DoubleValue
8.939

@<SCITEGIC>MOL_PROPERTY
Coulomb
SciTegic.value.DoubleValue
-0.614

@<SCITEGIC>MOL_PROPERTY
VdW
SciTegic.value.DoubleValue
1.091

@<SCITEGIC>MOL_PROPERTY
VdW6
SciTegic.value.DoubleValue
-9.710

@<SCITEGIC>MOL_PROPERTY
VdW12
SciTegic.value.DoubleValue
10.802

@<SCITEGIC>MOL_PROPERTY
Bond
SciTegic.value.DoubleValue
0.216

@<SCITEGIC>MOL_PROPERTY
Angle
SciTegic.value.DoubleValue
2.979

@<SCITEGIC>MOL_PROPERTY
Pdih
SciTegic.value.DoubleValue
5.743

@<SCITEGIC>MOL_PROPERTY
Idih
SciTegic.value.DoubleValue
0.000

@<SCITEGIC>MOL_PROPERTY
Tether
SciTegic.value.DoubleValue
0.000

@<TRIPOS>MOLECULE
guest-8_vm2.mol2 : vm2 ligand conformer 58
          25          24           1
SMALL
USER_CHARGES
 
@<TRIPOS>ATOM
       1    C1      20.088822   19.418212   27.359770 C.2        1 MOL1         0.6168
       2    O1      20.978286   20.134715   27.775206 O.co2      1 MOL1        -0.6703
       3    O2      18.916936   19.566337   27.645763 O.co2      1 MOL1        -0.6703
       4    C2      20.468767   18.258234   26.443647 C.3        1 MOL1        -0.1963
       5    H1      19.647047   17.531888   26.438514 H          1 MOL1         0.0750
       6    H2      21.333310   17.756156   26.893594 H          1 MOL1         0.0750
       7    C3      20.815220   18.685077   24.993324 C.3        1 MOL1        -0.1860
       8    H3      21.610683   19.442743   25.017455 H          1 MOL1         0.0752
       9    H4      21.222230   17.814546   24.463870 H          1 MOL1         0.0752
      10    C4      19.588214   19.236434   24.227552 C.3        1 MOL1        -0.1858
      11    H5      19.151111   20.066224   24.799713 H          1 MOL1         0.0752
      12    H6      18.811280   18.462387   24.164276 H          1 MOL1         0.0752
      13    C5      19.924124   19.751648   22.807455 C.3        1 MOL1        -0.1858
      14    H7      19.034746   20.259133   22.412947 H          1 MOL1         0.0752
      15    H8      20.714417   20.512012   22.869588 H          1 MOL1         0.0752
      16    C6      20.351841   18.630903   21.827751 C.3        1 MOL1        -0.1858
      17    H9      19.563308   17.868355   21.769859 H          1 MOL1         0.0752
      18    H10     21.245425   18.126603   22.216420 H          1 MOL1         0.0752
      19    C7      20.676180   19.148191   20.406588 C.3        1 MOL1        -0.1834
      20    H11     21.455943   19.920359   20.461593 H          1 MOL1         0.0752
      21    H12     21.099942   18.321295   19.820149 H          1 MOL1         0.0752
      22    C8      19.444611   19.704247   19.658944 C.3        1 MOL1        -0.2849
      23    H13     19.056549   20.609772   20.141473 H          1 MOL1         0.0764
      24    H14     19.709217   19.966659   18.626456 H          1 MOL1         0.0764
      25    H15     18.638232   18.960265   19.622139 H          1 MOL1         0.0764
@<TRIPOS>BOND
    1     1     2    1
    2     1     3    2
    3     1     4    1
    4     4     5    1
    5     4     6    1
    6     4     7    1
    7     7     8    1
    8     7     9    1
    9     7    10    1
   10    10    11    1
   11    10    12    1
   12    10    13    1
   13    13    14    1
   14    13    15    1
   15    13    16    1
   16    16    17    1
   17    16    18    1
   18    16    19    1
   19    19    20    1
   20    19    21    1
   21    19    22    1
   22    22    23    1
   23    22    24    1
   24    22    25    1
@<TRIPOS>SUBSTRUCTURE
       1 MOL1            1 RESIDUE      1      MOL     
@<SCITEGIC>MOL_PROPERTY
VM2 Rank
SciTegic.value.IntegerValue
58

@<SCITEGIC>MOL_PROPERTY
Conf_Id
SciTegic.value.IntegerValue
596

@<SCITEGIC>MOL_PROPERTY
Probability
SciTegic.value.DoubleValue
0.11

@<SCITEGIC>MOL_PROPERTY
Sum Probability
SciTegic.value.DoubleValue
97.83

@<SCITEGIC>MOL_PROPERTY
Delta G
SciTegic.value.DoubleValue
3.259

@<SCITEGIC>MOL_PROPERTY
G
SciTegic.value.DoubleValue
-4.703

@<SCITEGIC>MOL_PROPERTY
E
SciTegic.value.DoubleValue
-29.574

@<SCITEGIC>MOL_PROPERTY
-TS
SciTegic.value.DoubleValue
24.871

@<SCITEGIC>MOL_PROPERTY
U+W
SciTegic.value.DoubleValue
-50.141

@<SCITEGIC>MOL_PROPERTY
U
SciTegic.value.DoubleValue
9.416

@<SCITEGIC>MOL_PROPERTY
W
SciTegic.value.DoubleValue
-59.558

@<SCITEGIC>MOL_PROPERTY
W(PB)
SciTegic.value.DoubleValue
-62.022

@<SCITEGIC>MOL_PROPERTY
W(SA)
SciTegic.value.DoubleValue
2.464

@<SCITEGIC>MOL_PROPERTY
Valence
SciTegic.value.DoubleValue
8.939

@<SCITEGIC>MOL_PROPERTY
Coulomb
SciTegic.value.DoubleValue
-0.615

@<SCITEGIC>MOL_PROPERTY
VdW
SciTegic.value.DoubleValue
1.092

@<SCITEGIC>MOL_PROPERTY
VdW6
SciTegic.value.DoubleValue
-9.710

@<SCITEGIC>MOL_PROPERTY
VdW12
SciTegic.value.DoubleValue
10.802

@<SCITEGIC>MOL_PROPERTY
Bond
SciTegic.value.DoubleValue
0.216

@<SCITEGIC>MOL_PROPERTY
Angle
SciTegic.value.DoubleValue
2.979

@<SCITEGIC>MOL_PROPERTY
Pdih
SciTegic.value.DoubleValue
5.743

@<SCITEGIC>MOL_PROPERTY
Idih
SciTegic.value.DoubleValue
0.000

@<SCITEGIC>MOL_PROPERTY
Tether
SciTegic.value.DoubleValue
0.000

@<TRIPOS>MOLECULE
guest-8_vm2.mol2 : vm2 ligand conformer 59
          25          24           1
SMALL
USER_CHARGES
 
@<TRIPOS>ATOM
       1    C1      20.196016   19.540368   27.206788 C.2        1 MOL1         0.6168
       2    O1      21.373698   19.498028   27.504047 O.co2      1 MOL1        -0.6703
       3    O2      19.321255   18.987434   27.844137 O.co2      1 MOL1        -0.6703
       4    C2      19.788914   20.347482   25.977184 C.3        1 MOL1        -0.1963
       5    H1      20.601684   21.040284   25.727715 H          1 MOL1         0.0750
       6    H2      18.924908   20.960362   26.259657 H          1 MOL1         0.0750
       7    C3      19.427067   19.480559   24.743143 C.3        1 MOL1        -0.1860
       8    H3      18.639733   18.765170   25.018097 H          1 MOL1         0.0752
       9    H4      19.005539   20.135655   23.969993 H          1 MOL1         0.0752
      10    C4      20.648662   18.722386   24.170721 C.3        1 MOL1        -0.1858
      11    H5      21.101108   18.114880   24.966362 H          1 MOL1         0.0752
      12    H6      21.420512   19.440157   23.863857 H          1 MOL1         0.0752
      13    C5      20.296187   17.784490   22.988581 C.3        1 MOL1        -0.1858
      14    H7      21.207314   17.257348   22.674538 H          1 MOL1         0.0752
      15    H8      19.605822   17.008264   23.345715 H          1 MOL1         0.0752
      16    C6      19.668552   18.477103   21.752427 C.3        1 MOL1        -0.1858
      17    H9      18.697376   18.914022   22.018940 H          1 MOL1         0.0752
      18    H10     19.457404   17.708322   20.996717 H          1 MOL1         0.0752
      19    C7      20.574354   19.560671   21.125234 C.3        1 MOL1        -0.1834
      20    H11     20.732761   20.378866   21.840205 H          1 MOL1         0.0752
      21    H12     21.561697   19.134061   20.901099 H          1 MOL1         0.0752
      22    C8      19.958296   20.135480   19.833740 C.3        1 MOL1        -0.2849
      23    H13     18.981117   20.593473   20.035483 H          1 MOL1         0.0764
      24    H14     20.611321   20.905747   19.403333 H          1 MOL1         0.0764
      25    H15     19.819689   19.349142   19.080245 H          1 MOL1         0.0764
@<TRIPOS>BOND
    1     1     2    1
    2     1     3    2
    3     1     4    1
    4     4     5    1
    5     4     6    1
    6     4     7    1
    7     7     8    1
    8     7     9    1
    9     7    10    1
   10    10    11    1
   11    10    12    1
   12    10    13    1
   13    13    14    1
   14    13    15    1
   15    13    16    1
   16    16    17    1
   17    16    18    1
   18    16    19    1
   19    19    20    1
   20    19    21    1
   21    19    22    1
   22    22    23    1
   23    22    24    1
   24    22    25    1
@<TRIPOS>SUBSTRUCTURE
       1 MOL1            1 RESIDUE      1      MOL     
@<SCITEGIC>MOL_PROPERTY
VM2 Rank
SciTegic.value.IntegerValue
59

@<SCITEGIC>MOL_PROPERTY
Conf_Id
SciTegic.value.IntegerValue
743

@<SCITEGIC>MOL_PROPERTY
Probability
SciTegic.value.DoubleValue
0.10

@<SCITEGIC>MOL_PROPERTY
Sum Probability
SciTegic.value.DoubleValue
97.92

@<SCITEGIC>MOL_PROPERTY
Delta G
SciTegic.value.DoubleValue
3.326

@<SCITEGIC>MOL_PROPERTY
G
SciTegic.value.DoubleValue
-4.637

@<SCITEGIC>MOL_PROPERTY
E
SciTegic.value.DoubleValue
-29.789

@<SCITEGIC>MOL_PROPERTY
-TS
SciTegic.value.DoubleValue
25.152

@<SCITEGIC>MOL_PROPERTY
U+W
SciTegic.value.DoubleValue
-50.357

@<SCITEGIC>MOL_PROPERTY
U
SciTegic.value.DoubleValue
9.264

@<SCITEGIC>MOL_PROPERTY
W
SciTegic.value.DoubleValue
-59.620

@<SCITEGIC>MOL_PROPERTY
W(PB)
SciTegic.value.DoubleValue
-62.088

@<SCITEGIC>MOL_PROPERTY
W(SA)
SciTegic.value.DoubleValue
2.468

@<SCITEGIC>MOL_PROPERTY
Valence
SciTegic.value.DoubleValue
8.801

@<SCITEGIC>MOL_PROPERTY
Coulomb
SciTegic.value.DoubleValue
-0.375

@<SCITEGIC>MOL_PROPERTY
VdW
SciTegic.value.DoubleValue
0.837

@<SCITEGIC>MOL_PROPERTY
VdW6
SciTegic.value.DoubleValue
-10.171

@<SCITEGIC>MOL_PROPERTY
VdW12
SciTegic.value.DoubleValue
11.008

@<SCITEGIC>MOL_PROPERTY
Bond
SciTegic.value.DoubleValue
0.218

@<SCITEGIC>MOL_PROPERTY
Angle
SciTegic.value.DoubleValue
3.129

@<SCITEGIC>MOL_PROPERTY
Pdih
SciTegic.value.DoubleValue
5.454

@<SCITEGIC>MOL_PROPERTY
Idih
SciTegic.value.DoubleValue
0.001

@<SCITEGIC>MOL_PROPERTY
Tether
SciTegic.value.DoubleValue
0.000

@<TRIPOS>MOLECULE
guest-8_vm2.mol2 : vm2 ligand conformer 60
          25          24           1
SMALL
USER_CHARGES
 
@<TRIPOS>ATOM
       1    C1      20.186447   19.826442   26.866199 C.2        1 MOL1         0.6168
       2    O1      21.223859   20.450197   26.758085 O.co2      1 MOL1        -0.6703
       3    O2      19.132675   20.327044   27.206946 O.co2      1 MOL1        -0.6703
       4    C2      20.211022   18.327193   26.581764 C.3        1 MOL1        -0.1963
       5    H1      19.674636   17.829893   27.398412 H          1 MOL1         0.0750
       6    H2      21.250208   17.979406   26.626035 H          1 MOL1         0.0750
       7    C3      19.571401   17.931956   25.225416 C.3        1 MOL1        -0.1860
       8    H3      19.506835   16.836997   25.167676 H          1 MOL1         0.0752
       9    H4      18.541250   18.312379   25.184076 H          1 MOL1         0.0752
      10    C4      20.372476   18.460422   24.014240 C.3        1 MOL1        -0.1858
      11    H5      21.403847   18.085697   24.063768 H          1 MOL1         0.0752
      12    H6      20.426909   19.555824   24.066177 H          1 MOL1         0.0752
      13    C5      19.730125   18.032800   22.674519 C.3        1 MOL1        -0.1858
      14    H7      19.614464   16.940481   22.666697 H          1 MOL1         0.0752
      15    H8      18.715828   18.446432   22.601053 H          1 MOL1         0.0752
      16    C6      20.560011   18.443041   21.431799 C.3        1 MOL1        -0.1858
      17    H9      20.061583   18.056295   20.532556 H          1 MOL1         0.0752
      18    H10     21.536741   17.942291   21.475672 H          1 MOL1         0.0752
      19    C7      20.788134   19.965427   21.260615 C.3        1 MOL1        -0.1834
      20    H11     21.378275   20.356987   22.099787 H          1 MOL1         0.0752
      21    H12     21.396319   20.128585   20.360336 H          1 MOL1         0.0752
      22    C8      19.476852   20.769479   21.126416 C.3        1 MOL1        -0.2849
      23    H13     18.858183   20.378950   20.308072 H          1 MOL1         0.0764
      24    H14     18.889371   20.730443   22.052448 H          1 MOL1         0.0764
      25    H15     19.693018   21.824459   20.914189 H          1 MOL1         0.0764
@<TRIPOS>BOND
    1     1     2    1
    2     1     3    2
    3     1     4    1
    4     4     5    1
    5     4     6    1
    6     4     7    1
    7     7     8    1
    8     7     9    1
    9     7    10    1
   10    10    11    1
   11    10    12    1
   12    10    13    1
   13    13    14    1
   14    13    15    1
   15    13    16    1
   16    16    17    1
   17    16    18    1
   18    16    19    1
   19    19    20    1
   20    19    21    1
   21    19    22    1
   22    22    23    1
   23    22    24    1
   24    22    25    1
@<TRIPOS>SUBSTRUCTURE
       1 MOL1            1 RESIDUE      1      MOL     
@<SCITEGIC>MOL_PROPERTY
VM2 Rank
SciTegic.value.IntegerValue
60

@<SCITEGIC>MOL_PROPERTY
Conf_Id
SciTegic.value.IntegerValue
236

@<SCITEGIC>MOL_PROPERTY
Probability
SciTegic.value.DoubleValue
0.09

@<SCITEGIC>MOL_PROPERTY
Sum Probability
SciTegic.value.DoubleValue
98.01

@<SCITEGIC>MOL_PROPERTY
Delta G
SciTegic.value.DoubleValue
3.346

@<SCITEGIC>MOL_PROPERTY
G
SciTegic.value.DoubleValue
-4.617

@<SCITEGIC>MOL_PROPERTY
E
SciTegic.value.DoubleValue
-29.741

@<SCITEGIC>MOL_PROPERTY
-TS
SciTegic.value.DoubleValue
25.125

@<SCITEGIC>MOL_PROPERTY
U+W
SciTegic.value.DoubleValue
-50.309

@<SCITEGIC>MOL_PROPERTY
U
SciTegic.value.DoubleValue
10.400

@<SCITEGIC>MOL_PROPERTY
W
SciTegic.value.DoubleValue
-60.709

@<SCITEGIC>MOL_PROPERTY
W(PB)
SciTegic.value.DoubleValue
-63.150

@<SCITEGIC>MOL_PROPERTY
W(SA)
SciTegic.value.DoubleValue
2.441

@<SCITEGIC>MOL_PROPERTY
Valence
SciTegic.value.DoubleValue
8.736

@<SCITEGIC>MOL_PROPERTY
Coulomb
SciTegic.value.DoubleValue
0.892

@<SCITEGIC>MOL_PROPERTY
VdW
SciTegic.value.DoubleValue
0.772

@<SCITEGIC>MOL_PROPERTY
VdW6
SciTegic.value.DoubleValue
-10.163

@<SCITEGIC>MOL_PROPERTY
VdW12
SciTegic.value.DoubleValue
10.935

@<SCITEGIC>MOL_PROPERTY
Bond
SciTegic.value.DoubleValue
0.210

@<SCITEGIC>MOL_PROPERTY
Angle
SciTegic.value.DoubleValue
3.058

@<SCITEGIC>MOL_PROPERTY
Pdih
SciTegic.value.DoubleValue
5.466

@<SCITEGIC>MOL_PROPERTY
Idih
SciTegic.value.DoubleValue
0.001

@<SCITEGIC>MOL_PROPERTY
Tether
SciTegic.value.DoubleValue
0.000

@<TRIPOS>MOLECULE
guest-8_vm2.mol2 : vm2 ligand conformer 61
          25          24           1
SMALL
USER_CHARGES
 
@<TRIPOS>ATOM
       1    C1      20.274469   19.149257   27.216086 C.2        1 MOL1         0.6168
       2    O1      21.342475   19.654950   27.500216 O.co2      1 MOL1        -0.6703
       3    O2      19.248582   19.351590   27.835578 O.co2      1 MOL1        -0.6703
       4    C2      20.220497   18.191893   26.028806 C.3        1 MOL1        -0.1963
       5    H1      19.656347   17.307449   26.347262 H          1 MOL1         0.0750
       6    H2      21.239512   17.854510   25.803897 H          1 MOL1         0.0750
       7    C3      19.564143   18.794948   24.759606 C.3        1 MOL1        -0.1860
       8    H3      19.434377   17.993250   24.021339 H          1 MOL1         0.0752
       9    H4      18.559614   19.163965   25.008651 H          1 MOL1         0.0752
      10    C4      20.404936   19.937738   24.141640 C.3        1 MOL1        -0.1858
      11    H5      21.396429   19.559137   23.861075 H          1 MOL1         0.0752
      12    H6      20.581249   20.708550   24.904252 H          1 MOL1         0.0752
      13    C5      19.729499   20.612122   22.920851 C.3        1 MOL1        -0.1858
      14    H7      18.790179   21.078190   23.248166 H          1 MOL1         0.0752
      15    H8      20.370261   21.434411   22.574559 H          1 MOL1         0.0752
      16    C6      19.428503   19.675170   21.723673 C.3        1 MOL1        -0.1858
      17    H9      18.944707   20.267738   20.935314 H          1 MOL1         0.0752
      18    H10     18.697980   18.910763   22.018848 H          1 MOL1         0.0752
      19    C7      20.687496   18.996300   21.138834 C.3        1 MOL1        -0.1834
      20    H11     21.436573   19.759368   20.886468 H          1 MOL1         0.0752
      21    H12     21.141935   18.335890   21.889209 H          1 MOL1         0.0752
      22    C8      20.352400   18.170031   19.880710 C.3        1 MOL1        -0.2849
      23    H13     19.624929   17.380971   20.112030 H          1 MOL1         0.0764
      24    H14     19.928945   18.806957   19.093118 H          1 MOL1         0.0764
      25    H15     21.255637   17.691607   19.480365 H          1 MOL1         0.0764
@<TRIPOS>BOND
    1     1     2    1
    2     1     3    2
    3     1     4    1
    4     4     5    1
    5     4     6    1
    6     4     7    1
    7     7     8    1
    8     7     9    1
    9     7    10    1
   10    10    11    1
   11    10    12    1
   12    10    13    1
   13    13    14    1
   14    13    15    1
   15    13    16    1
   16    16    17    1
   17    16    18    1
   18    16    19    1
   19    19    20    1
   20    19    21    1
   21    19    22    1
   22    22    23    1
   23    22    24    1
   24    22    25    1
@<TRIPOS>SUBSTRUCTURE
       1 MOL1            1 RESIDUE      1      MOL     
@<SCITEGIC>MOL_PROPERTY
VM2 Rank
SciTegic.value.IntegerValue
61

@<SCITEGIC>MOL_PROPERTY
Conf_Id
SciTegic.value.IntegerValue
864

@<SCITEGIC>MOL_PROPERTY
Probability
SciTegic.value.DoubleValue
0.09

@<SCITEGIC>MOL_PROPERTY
Sum Probability
SciTegic.value.DoubleValue
98.10

@<SCITEGIC>MOL_PROPERTY
Delta G
SciTegic.value.DoubleValue
3.369

@<SCITEGIC>MOL_PROPERTY
G
SciTegic.value.DoubleValue
-4.593

@<SCITEGIC>MOL_PROPERTY
E
SciTegic.value.DoubleValue
-29.745

@<SCITEGIC>MOL_PROPERTY
-TS
SciTegic.value.DoubleValue
25.152

@<SCITEGIC>MOL_PROPERTY
U+W
SciTegic.value.DoubleValue
-50.313

@<SCITEGIC>MOL_PROPERTY
U
SciTegic.value.DoubleValue
9.263

@<SCITEGIC>MOL_PROPERTY
W
SciTegic.value.DoubleValue
-59.576

@<SCITEGIC>MOL_PROPERTY
W(PB)
SciTegic.value.DoubleValue
-62.031

@<SCITEGIC>MOL_PROPERTY
W(SA)
SciTegic.value.DoubleValue
2.456

@<SCITEGIC>MOL_PROPERTY
Valence
SciTegic.value.DoubleValue
8.801

@<SCITEGIC>MOL_PROPERTY
Coulomb
SciTegic.value.DoubleValue
-0.375

@<SCITEGIC>MOL_PROPERTY
VdW
SciTegic.value.DoubleValue
0.837

@<SCITEGIC>MOL_PROPERTY
VdW6
SciTegic.value.DoubleValue
-10.171

@<SCITEGIC>MOL_PROPERTY
VdW12
SciTegic.value.DoubleValue
11.008

@<SCITEGIC>MOL_PROPERTY
Bond
SciTegic.value.DoubleValue
0.218

@<SCITEGIC>MOL_PROPERTY
Angle
SciTegic.value.DoubleValue
3.129

@<SCITEGIC>MOL_PROPERTY
Pdih
SciTegic.value.DoubleValue
5.454

@<SCITEGIC>MOL_PROPERTY
Idih
SciTegic.value.DoubleValue
0.000

@<SCITEGIC>MOL_PROPERTY
Tether
SciTegic.value.DoubleValue
0.000

@<TRIPOS>MOLECULE
guest-8_vm2.mol2 : vm2 ligand conformer 62
          25          24           1
SMALL
USER_CHARGES
 
@<TRIPOS>ATOM
       1    C1      20.050321   19.817691   26.867840 C.2        1 MOL1         0.6168
       2    O1      21.039190   20.449146   27.184939 O.co2      1 MOL1        -0.6703
       3    O2      18.939581   20.303821   26.784667 O.co2      1 MOL1        -0.6703
       4    C2      20.210688   18.327155   26.581772 C.3        1 MOL1        -0.1963
       5    H1      19.225669   17.849677   26.649451 H          1 MOL1         0.0750
       6    H2      20.824825   17.903531   27.385086 H          1 MOL1         0.0750
       7    C3      20.864079   18.014813   25.210447 C.3        1 MOL1        -0.1860
       8    H3      21.836032   18.523525   25.145945 H          1 MOL1         0.0752
       9    H4      21.066495   16.936962   25.149584 H          1 MOL1         0.0752
      10    C4      19.974412   18.434981   24.018851 C.3        1 MOL1        -0.1858
      11    H5      19.781952   19.514575   24.073618 H          1 MOL1         0.0752
      12    H6      19.000667   17.931871   24.091629 H          1 MOL1         0.0752
      13    C5      20.634947   18.090730   22.664038 C.3        1 MOL1        -0.1858
      14    H7      21.586289   18.630148   22.567793 H          1 MOL1         0.0752
      15    H8      20.888673   17.022052   22.651945 H          1 MOL1         0.0752
      16    C6      19.731093   18.390006   21.441398 C.3        1 MOL1        -0.1858
      17    H9      18.827394   17.768967   21.507097 H          1 MOL1         0.0752
      18    H10     20.253836   18.068544   20.530329 H          1 MOL1         0.0752
      19    C7      19.306988   19.870662   21.277713 C.3        1 MOL1        -0.1834
      20    H11     18.662299   19.953634   20.391991 H          1 MOL1         0.0752
      21    H12     18.691357   20.185145   22.130880 H          1 MOL1         0.0752
      22    C8      20.501699   20.834997   21.114335 C.3        1 MOL1        -0.2849
      23    H13     21.145942   20.525229   20.281300 H          1 MOL1         0.0764
      24    H14     20.148049   21.853528   20.908721 H          1 MOL1         0.0764
      25    H15     21.110670   20.872504   22.026443 H          1 MOL1         0.0764
@<TRIPOS>BOND
    1     1     2    1
    2     1     3    2
    3     1     4    1
    4     4     5    1
    5     4     6    1
    6     4     7    1
    7     7     8    1
    8     7     9    1
    9     7    10    1
   10    10    11    1
   11    10    12    1
   12    10    13    1
   13    13    14    1
   14    13    15    1
   15    13    16    1
   16    16    17    1
   17    16    18    1
   18    16    19    1
   19    19    20    1
   20    19    21    1
   21    19    22    1
   22    22    23    1
   23    22    24    1
   24    22    25    1
@<TRIPOS>SUBSTRUCTURE
       1 MOL1            1 RESIDUE      1      MOL     
@<SCITEGIC>MOL_PROPERTY
VM2 Rank
SciTegic.value.IntegerValue
62

@<SCITEGIC>MOL_PROPERTY
Conf_Id
SciTegic.value.IntegerValue
734

@<SCITEGIC>MOL_PROPERTY
Probability
SciTegic.value.DoubleValue
0.09

@<SCITEGIC>MOL_PROPERTY
Sum Probability
SciTegic.value.DoubleValue
98.19

@<SCITEGIC>MOL_PROPERTY
Delta G
SciTegic.value.DoubleValue
3.372

@<SCITEGIC>MOL_PROPERTY
G
SciTegic.value.DoubleValue
-4.590

@<SCITEGIC>MOL_PROPERTY
E
SciTegic.value.DoubleValue
-29.714

@<SCITEGIC>MOL_PROPERTY
-TS
SciTegic.value.DoubleValue
25.124

@<SCITEGIC>MOL_PROPERTY
U+W
SciTegic.value.DoubleValue
-50.282

@<SCITEGIC>MOL_PROPERTY
U
SciTegic.value.DoubleValue
10.400

@<SCITEGIC>MOL_PROPERTY
W
SciTegic.value.DoubleValue
-60.682

@<SCITEGIC>MOL_PROPERTY
W(PB)
SciTegic.value.DoubleValue
-63.131

@<SCITEGIC>MOL_PROPERTY
W(SA)
SciTegic.value.DoubleValue
2.449

@<SCITEGIC>MOL_PROPERTY
Valence
SciTegic.value.DoubleValue
8.736

@<SCITEGIC>MOL_PROPERTY
Coulomb
SciTegic.value.DoubleValue
0.892

@<SCITEGIC>MOL_PROPERTY
VdW
SciTegic.value.DoubleValue
0.772

@<SCITEGIC>MOL_PROPERTY
VdW6
SciTegic.value.DoubleValue
-10.163

@<SCITEGIC>MOL_PROPERTY
VdW12
SciTegic.value.DoubleValue
10.935

@<SCITEGIC>MOL_PROPERTY
Bond
SciTegic.value.DoubleValue
0.210

@<SCITEGIC>MOL_PROPERTY
Angle
SciTegic.value.DoubleValue
3.058

@<SCITEGIC>MOL_PROPERTY
Pdih
SciTegic.value.DoubleValue
5.466

@<SCITEGIC>MOL_PROPERTY
Idih
SciTegic.value.DoubleValue
0.001

@<SCITEGIC>MOL_PROPERTY
Tether
SciTegic.value.DoubleValue
0.000

@<TRIPOS>MOLECULE
guest-8_vm2.mol2 : vm2 ligand conformer 63
          25          24           1
SMALL
USER_CHARGES
 
@<TRIPOS>ATOM
       1    C1      20.384932   19.656551   26.894019 C.2        1 MOL1         0.6168
       2    O1      21.330289   20.310436   26.499553 O.co2      1 MOL1        -0.6703
       3    O2      20.422321   18.948232   27.881129 O.co2      1 MOL1        -0.6703
       4    C2      19.069756   19.749179   26.125411 C.3        1 MOL1        -0.1963
       5    H1      19.116713   20.612198   25.451628 H          1 MOL1         0.0750
       6    H2      18.281262   19.968108   26.854786 H          1 MOL1         0.0750
       7    C3      18.700604   18.460119   25.341407 C.3        1 MOL1        -0.1860
       8    H3      18.592020   17.632207   26.055627 H          1 MOL1         0.0752
       9    H4      17.716060   18.593168   24.873077 H          1 MOL1         0.0752
      10    C4      19.729268   18.052171   24.258212 C.3        1 MOL1        -0.1858
      11    H5      19.411498   17.096638   23.819155 H          1 MOL1         0.0752
      12    H6      20.706415   17.867953   24.725623 H          1 MOL1         0.0752
      13    C5      19.882878   19.098264   23.130156 C.3        1 MOL1        -0.1858
      14    H7      18.893289   19.331052   22.716409 H          1 MOL1         0.0752
      15    H8      20.290521   20.031139   23.541433 H          1 MOL1         0.0752
      16    C6      20.817349   18.591117   22.007423 C.3        1 MOL1        -0.1858
      17    H9      20.392152   17.686700   21.551316 H          1 MOL1         0.0752
      18    H10     21.777919   18.294533   22.450497 H          1 MOL1         0.0752
      19    C7      21.087745   19.645792   20.909158 C.3        1 MOL1        -0.1834
      20    H11     21.520231   20.549136   21.361141 H          1 MOL1         0.0752
      21    H12     21.846301   19.250266   20.219706 H          1 MOL1         0.0752
      22    C8      19.827860   20.022140   20.099533 C.3        1 MOL1        -0.2849
      23    H13     19.084173   20.527839   20.727952 H          1 MOL1         0.0764
      24    H14     20.088067   20.703674   19.279359 H          1 MOL1         0.0764
      25    H15     19.360678   19.130067   19.662452 H          1 MOL1         0.0764
@<TRIPOS>BOND
    1     1     2    1
    2     1     3    2
    3     1     4    1
    4     4     5    1
    5     4     6    1
    6     4     7    1
    7     7     8    1
    8     7     9    1
    9     7    10    1
   10    10    11    1
   11    10    12    1
   12    10    13    1
   13    13    14    1
   14    13    15    1
   15    13    16    1
   16    16    17    1
   17    16    18    1
   18    16    19    1
   19    19    20    1
   20    19    21    1
   21    19    22    1
   22    22    23    1
   23    22    24    1
   24    22    25    1
@<TRIPOS>SUBSTRUCTURE
       1 MOL1            1 RESIDUE      1      MOL     
@<SCITEGIC>MOL_PROPERTY
VM2 Rank
SciTegic.value.IntegerValue
63

@<SCITEGIC>MOL_PROPERTY
Conf_Id
SciTegic.value.IntegerValue
995

@<SCITEGIC>MOL_PROPERTY
Probability
SciTegic.value.DoubleValue
0.08

@<SCITEGIC>MOL_PROPERTY
Sum Probability
SciTegic.value.DoubleValue
98.27

@<SCITEGIC>MOL_PROPERTY
Delta G
SciTegic.value.DoubleValue
3.458

@<SCITEGIC>MOL_PROPERTY
G
SciTegic.value.DoubleValue
-4.504

@<SCITEGIC>MOL_PROPERTY
E
SciTegic.value.DoubleValue
-29.476

@<SCITEGIC>MOL_PROPERTY
-TS
SciTegic.value.DoubleValue
24.971

@<SCITEGIC>MOL_PROPERTY
U+W
SciTegic.value.DoubleValue
-50.043

@<SCITEGIC>MOL_PROPERTY
U
SciTegic.value.DoubleValue
10.315

@<SCITEGIC>MOL_PROPERTY
W
SciTegic.value.DoubleValue
-60.358

@<SCITEGIC>MOL_PROPERTY
W(PB)
SciTegic.value.DoubleValue
-62.816

@<SCITEGIC>MOL_PROPERTY
W(SA)
SciTegic.value.DoubleValue
2.458

@<SCITEGIC>MOL_PROPERTY
Valence
SciTegic.value.DoubleValue
8.797

@<SCITEGIC>MOL_PROPERTY
Coulomb
SciTegic.value.DoubleValue
0.776

@<SCITEGIC>MOL_PROPERTY
VdW
SciTegic.value.DoubleValue
0.742

@<SCITEGIC>MOL_PROPERTY
VdW6
SciTegic.value.DoubleValue
-10.191

@<SCITEGIC>MOL_PROPERTY
VdW12
SciTegic.value.DoubleValue
10.932

@<SCITEGIC>MOL_PROPERTY
Bond
SciTegic.value.DoubleValue
0.216

@<SCITEGIC>MOL_PROPERTY
Angle
SciTegic.value.DoubleValue
2.999

@<SCITEGIC>MOL_PROPERTY
Pdih
SciTegic.value.DoubleValue
5.581

@<SCITEGIC>MOL_PROPERTY
Idih
SciTegic.value.DoubleValue
0.001

@<SCITEGIC>MOL_PROPERTY
Tether
SciTegic.value.DoubleValue
0.000

@<TRIPOS>MOLECULE
guest-8_vm2.mol2 : vm2 ligand conformer 64
          25          24           1
SMALL
USER_CHARGES
 
@<TRIPOS>ATOM
       1    C1      19.750969   19.249893   26.904855 C.2        1 MOL1         0.6168
       2    O1      20.414477   19.218647   27.922862 O.co2      1 MOL1        -0.6703
       3    O2      18.818059   20.009818   26.733831 O.co2      1 MOL1        -0.6703
       4    C2      20.092894   18.261156   25.793812 C.3        1 MOL1        -0.1963
       5    H1      19.255996   18.223491   25.087074 H          1 MOL1         0.0750
       6    H2      20.158560   17.266904   26.250615 H          1 MOL1         0.0750
       7    C3      21.420869   18.575255   25.052226 C.3        1 MOL1        -0.1860
       8    H3      22.245947   18.537394   25.776787 H          1 MOL1         0.0752
       9    H4      21.624719   17.780390   24.323199 H          1 MOL1         0.0752
      10    C4      21.447780   19.953774   24.342574 C.3        1 MOL1        -0.1858
      11    H5      22.424901   20.081492   23.857271 H          1 MOL1         0.0752
      12    H6      21.381511   20.747030   25.099831 H          1 MOL1         0.0752
      13    C5      20.332249   20.179000   23.291292 C.3        1 MOL1        -0.1858
      14    H7      19.349386   20.166134   23.781158 H          1 MOL1         0.0752
      15    H8      20.449539   21.188615   22.874814 H          1 MOL1         0.0752
      16    C6      20.355897   19.152565   22.135203 C.3        1 MOL1        -0.1858
      17    H9      20.167140   18.144660   22.527123 H          1 MOL1         0.0752
      18    H10     21.354364   19.138089   21.677462 H          1 MOL1         0.0752
      19    C7      19.299543   19.480948   21.059232 C.3        1 MOL1        -0.1834
      20    H11     18.300126   19.498581   21.515663 H          1 MOL1         0.0752
      21    H12     19.483171   20.485486   20.653576 H          1 MOL1         0.0752
      22    C8      19.320263   18.452943   19.910114 C.3        1 MOL1        -0.2849
      23    H13     19.107330   17.442576   20.283188 H          1 MOL1         0.0764
      24    H14     18.563667   18.701753   19.154671 H          1 MOL1         0.0764
      25    H15     20.300395   18.436374   19.415725 H          1 MOL1         0.0764
@<TRIPOS>BOND
    1     1     2    1
    2     1     3    2
    3     1     4    1
    4     4     5    1
    5     4     6    1
    6     4     7    1
    7     7     8    1
    8     7     9    1
    9     7    10    1
   10    10    11    1
   11    10    12    1
   12    10    13    1
   13    13    14    1
   14    13    15    1
   15    13    16    1
   16    16    17    1
   17    16    18    1
   18    16    19    1
   19    19    20    1
   20    19    21    1
   21    19    22    1
   22    22    23    1
   23    22    24    1
   24    22    25    1
@<TRIPOS>SUBSTRUCTURE
       1 MOL1            1 RESIDUE      1      MOL     
@<SCITEGIC>MOL_PROPERTY
VM2 Rank
SciTegic.value.IntegerValue
64

@<SCITEGIC>MOL_PROPERTY
Conf_Id
SciTegic.value.IntegerValue
961

@<SCITEGIC>MOL_PROPERTY
Probability
SciTegic.value.DoubleValue
0.08

@<SCITEGIC>MOL_PROPERTY
Sum Probability
SciTegic.value.DoubleValue
98.34

@<SCITEGIC>MOL_PROPERTY
Delta G
SciTegic.value.DoubleValue
3.465

@<SCITEGIC>MOL_PROPERTY
G
SciTegic.value.DoubleValue
-4.498

@<SCITEGIC>MOL_PROPERTY
E
SciTegic.value.DoubleValue
-29.749

@<SCITEGIC>MOL_PROPERTY
-TS
SciTegic.value.DoubleValue
25.251

@<SCITEGIC>MOL_PROPERTY
U+W
SciTegic.value.DoubleValue
-50.317

@<SCITEGIC>MOL_PROPERTY
U
SciTegic.value.DoubleValue
9.772

@<SCITEGIC>MOL_PROPERTY
W
SciTegic.value.DoubleValue
-60.089

@<SCITEGIC>MOL_PROPERTY
W(PB)
SciTegic.value.DoubleValue
-62.536

@<SCITEGIC>MOL_PROPERTY
W(SA)
SciTegic.value.DoubleValue
2.447

@<SCITEGIC>MOL_PROPERTY
Valence
SciTegic.value.DoubleValue
8.741

@<SCITEGIC>MOL_PROPERTY
Coulomb
SciTegic.value.DoubleValue
0.479

@<SCITEGIC>MOL_PROPERTY
VdW
SciTegic.value.DoubleValue
0.553

@<SCITEGIC>MOL_PROPERTY
VdW6
SciTegic.value.DoubleValue
-10.627

@<SCITEGIC>MOL_PROPERTY
VdW12
SciTegic.value.DoubleValue
11.179

@<SCITEGIC>MOL_PROPERTY
Bond
SciTegic.value.DoubleValue
0.227

@<SCITEGIC>MOL_PROPERTY
Angle
SciTegic.value.DoubleValue
3.155

@<SCITEGIC>MOL_PROPERTY
Pdih
SciTegic.value.DoubleValue
5.358

@<SCITEGIC>MOL_PROPERTY
Idih
SciTegic.value.DoubleValue
0.001

@<SCITEGIC>MOL_PROPERTY
Tether
SciTegic.value.DoubleValue
0.000

@<TRIPOS>MOLECULE
guest-8_vm2.mol2 : vm2 ligand conformer 65
          25          24           1
SMALL
USER_CHARGES
 
@<TRIPOS>ATOM
       1    C1      20.318752   19.631658   26.995417 C.2        1 MOL1         0.6168
       2    O1      21.325883   20.259124   26.732950 O.co2      1 MOL1        -0.6703
       3    O2      19.426979   20.056703   27.703616 O.co2      1 MOL1        -0.6703
       4    C2      20.176383   18.221856   26.428695 C.3        1 MOL1        -0.1963
       5    H1      19.918065   17.560238   27.263682 H          1 MOL1         0.0750
       6    H2      21.154441   17.889800   26.062930 H          1 MOL1         0.0750
       7    C3      19.098955   18.089729   25.317481 C.3        1 MOL1        -0.1860
       8    H3      19.026156   17.038071   25.009163 H          1 MOL1         0.0752
       9    H4      18.121256   18.352989   25.744280 H          1 MOL1         0.0752
      10    C4      19.348782   18.971007   24.068558 C.3        1 MOL1        -0.1858
      11    H5      19.387372   20.028830   24.362668 H          1 MOL1         0.0752
      12    H6      18.482750   18.866415   23.403133 H          1 MOL1         0.0752
      13    C5      20.640359   18.598481   23.299833 C.3        1 MOL1        -0.1858
      14    H7      21.505371   18.725336   23.963554 H          1 MOL1         0.0752
      15    H8      20.613753   17.537008   23.018692 H          1 MOL1         0.0752
      16    C6      20.878831   19.463511   22.038984 C.3        1 MOL1        -0.1858
      17    H9      21.881205   19.239020   21.649505 H          1 MOL1         0.0752
      18    H10     20.885668   20.526032   22.318236 H          1 MOL1         0.0752
      19    C7      19.842568   19.224166   20.917355 C.3        1 MOL1        -0.1834
      20    H11     19.795914   18.152759   20.678439 H          1 MOL1         0.0752
      21    H12     18.841464   19.521133   21.255756 H          1 MOL1         0.0752
      22    C8      20.195508   20.017765   19.643109 C.3        1 MOL1        -0.2849
      23    H13     20.222648   21.096134   19.847454 H          1 MOL1         0.0764
      24    H14     21.176587   19.717963   19.252033 H          1 MOL1         0.0764
      25    H15     19.449321   19.840244   18.857782 H          1 MOL1         0.0764
@<TRIPOS>BOND
    1     1     2    1
    2     1     3    2
    3     1     4    1
    4     4     5    1
    5     4     6    1
    6     4     7    1
    7     7     8    1
    8     7     9    1
    9     7    10    1
   10    10    11    1
   11    10    12    1
   12    10    13    1
   13    13    14    1
   14    13    15    1
   15    13    16    1
   16    16    17    1
   17    16    18    1
   18    16    19    1
   19    19    20    1
   20    19    21    1
   21    19    22    1
   22    22    23    1
   23    22    24    1
   24    22    25    1
@<TRIPOS>SUBSTRUCTURE
       1 MOL1            1 RESIDUE      1      MOL     
@<SCITEGIC>MOL_PROPERTY
VM2 Rank
SciTegic.value.IntegerValue
65

@<SCITEGIC>MOL_PROPERTY
Conf_Id
SciTegic.value.IntegerValue
247

@<SCITEGIC>MOL_PROPERTY
Probability
SciTegic.value.DoubleValue
0.07

@<SCITEGIC>MOL_PROPERTY
Sum Probability
SciTegic.value.DoubleValue
98.42

@<SCITEGIC>MOL_PROPERTY
Delta G
SciTegic.value.DoubleValue
3.483

@<SCITEGIC>MOL_PROPERTY
G
SciTegic.value.DoubleValue
-4.479

@<SCITEGIC>MOL_PROPERTY
E
SciTegic.value.DoubleValue
-29.376

@<SCITEGIC>MOL_PROPERTY
-TS
SciTegic.value.DoubleValue
24.897

@<SCITEGIC>MOL_PROPERTY
U+W
SciTegic.value.DoubleValue
-49.943

@<SCITEGIC>MOL_PROPERTY
U
SciTegic.value.DoubleValue
10.274

@<SCITEGIC>MOL_PROPERTY
W
SciTegic.value.DoubleValue
-60.217

@<SCITEGIC>MOL_PROPERTY
W(PB)
SciTegic.value.DoubleValue
-62.638

@<SCITEGIC>MOL_PROPERTY
W(SA)
SciTegic.value.DoubleValue
2.421

@<SCITEGIC>MOL_PROPERTY
Valence
SciTegic.value.DoubleValue
8.912

@<SCITEGIC>MOL_PROPERTY
Coulomb
SciTegic.value.DoubleValue
0.552

@<SCITEGIC>MOL_PROPERTY
VdW
SciTegic.value.DoubleValue
0.809

@<SCITEGIC>MOL_PROPERTY
VdW6
SciTegic.value.DoubleValue
-10.135

@<SCITEGIC>MOL_PROPERTY
VdW12
SciTegic.value.DoubleValue
10.945

@<SCITEGIC>MOL_PROPERTY
Bond
SciTegic.value.DoubleValue
0.229

@<SCITEGIC>MOL_PROPERTY
Angle
SciTegic.value.DoubleValue
3.100

@<SCITEGIC>MOL_PROPERTY
Pdih
SciTegic.value.DoubleValue
5.582

@<SCITEGIC>MOL_PROPERTY
Idih
SciTegic.value.DoubleValue
0.001

@<SCITEGIC>MOL_PROPERTY
Tether
SciTegic.value.DoubleValue
0.000

@<TRIPOS>MOLECULE
guest-8_vm2.mol2 : vm2 ligand conformer 66
          25          24           1
SMALL
USER_CHARGES
 
@<TRIPOS>ATOM
       1    C1      20.362266   19.816855   26.740826 C.2        1 MOL1         0.6168
       2    O1      21.389285   20.453413   26.610173 O.co2      1 MOL1        -0.6703
       3    O2      19.315021   20.300338   27.123780 O.co2      1 MOL1        -0.6703
       4    C2      20.397801   18.323251   26.429192 C.3        1 MOL1        -0.1963
       5    H1      19.546792   17.841553   26.925653 H          1 MOL1         0.0750
       6    H2      21.305917   17.913734   26.886966 H          1 MOL1         0.0750
       7    C3      20.389591   17.997534   24.913173 C.3        1 MOL1        -0.1860
       8    H3      21.235922   18.509029   24.435532 H          1 MOL1         0.0752
       9    H4      20.550882   16.919739   24.777275 H          1 MOL1         0.0752
      10    C4      19.064317   18.406395   24.227180 C.3        1 MOL1        -0.1858
      11    H5      18.919484   19.491642   24.310515 H          1 MOL1         0.0752
      12    H6      18.225809   17.947878   24.768760 H          1 MOL1         0.0752
      13    C5      18.979671   17.976740   22.740888 C.3        1 MOL1        -0.1858
      14    H7      19.008887   16.880052   22.685737 H          1 MOL1         0.0752
      15    H8      17.999228   18.273628   22.344360 H          1 MOL1         0.0752
      16    C6      20.086232   18.550371   21.819956 C.3        1 MOL1        -0.1858
      17    H9      19.919936   18.170551   20.802724 H          1 MOL1         0.0752
      18    H10     21.067689   18.168085   22.129534 H          1 MOL1         0.0752
      19    C7      20.117477   20.094923   21.780178 C.3        1 MOL1        -0.1834
      20    H11     19.121789   20.479279   21.519600 H          1 MOL1         0.0752
      21    H12     20.365179   20.491928   22.773888 H          1 MOL1         0.0752
      22    C8      21.151340   20.614180   20.760653 C.3        1 MOL1        -0.2849
      23    H13     20.913447   20.266014   19.747019 H          1 MOL1         0.0764
      24    H14     21.163955   21.711752   20.747726 H          1 MOL1         0.0764
      25    H15     22.161231   20.266555   21.014850 H          1 MOL1         0.0764
@<TRIPOS>BOND
    1     1     2    1
    2     1     3    2
    3     1     4    1
    4     4     5    1
    5     4     6    1
    6     4     7    1
    7     7     8    1
    8     7     9    1
    9     7    10    1
   10    10    11    1
   11    10    12    1
   12    10    13    1
   13    13    14    1
   14    13    15    1
   15    13    16    1
   16    16    17    1
   17    16    18    1
   18    16    19    1
   19    19    20    1
   20    19    21    1
   21    19    22    1
   22    22    23    1
   23    22    24    1
   24    22    25    1
@<TRIPOS>SUBSTRUCTURE
       1 MOL1            1 RESIDUE      1      MOL     
@<SCITEGIC>MOL_PROPERTY
VM2 Rank
SciTegic.value.IntegerValue
66

@<SCITEGIC>MOL_PROPERTY
Conf_Id
SciTegic.value.IntegerValue
1062

@<SCITEGIC>MOL_PROPERTY
Probability
SciTegic.value.DoubleValue
0.07

@<SCITEGIC>MOL_PROPERTY
Sum Probability
SciTegic.value.DoubleValue
98.49

@<SCITEGIC>MOL_PROPERTY
Delta G
SciTegic.value.DoubleValue
3.507

@<SCITEGIC>MOL_PROPERTY
G
SciTegic.value.DoubleValue
-4.455

@<SCITEGIC>MOL_PROPERTY
E
SciTegic.value.DoubleValue
-29.615

@<SCITEGIC>MOL_PROPERTY
-TS
SciTegic.value.DoubleValue
25.160

@<SCITEGIC>MOL_PROPERTY
U+W
SciTegic.value.DoubleValue
-50.183

@<SCITEGIC>MOL_PROPERTY
U
SciTegic.value.DoubleValue
10.374

@<SCITEGIC>MOL_PROPERTY
W
SciTegic.value.DoubleValue
-60.557

@<SCITEGIC>MOL_PROPERTY
W(PB)
SciTegic.value.DoubleValue
-62.972

@<SCITEGIC>MOL_PROPERTY
W(SA)
SciTegic.value.DoubleValue
2.415

@<SCITEGIC>MOL_PROPERTY
Valence
SciTegic.value.DoubleValue
8.732

@<SCITEGIC>MOL_PROPERTY
Coulomb
SciTegic.value.DoubleValue
0.992

@<SCITEGIC>MOL_PROPERTY
VdW
SciTegic.value.DoubleValue
0.650

@<SCITEGIC>MOL_PROPERTY
VdW6
SciTegic.value.DoubleValue
-10.415

@<SCITEGIC>MOL_PROPERTY
VdW12
SciTegic.value.DoubleValue
11.064

@<SCITEGIC>MOL_PROPERTY
Bond
SciTegic.value.DoubleValue
0.214

@<SCITEGIC>MOL_PROPERTY
Angle
SciTegic.value.DoubleValue
3.066

@<SCITEGIC>MOL_PROPERTY
Pdih
SciTegic.value.DoubleValue
5.452

@<SCITEGIC>MOL_PROPERTY
Idih
SciTegic.value.DoubleValue
0.001

@<SCITEGIC>MOL_PROPERTY
Tether
SciTegic.value.DoubleValue
0.000

@<TRIPOS>MOLECULE
guest-8_vm2.mol2 : vm2 ligand conformer 67
          25          24           1
SMALL
USER_CHARGES
 
@<TRIPOS>ATOM
       1    C1      20.477113   19.559217   26.896187 C.2        1 MOL1         0.6168
       2    O1      21.192976   20.455830   26.495570 O.co2      1 MOL1        -0.6703
       3    O2      19.747500   19.662262   27.862905 O.co2      1 MOL1        -0.6703
       4    C2      20.515170   18.220737   26.164034 C.3        1 MOL1        -0.1963
       5    H1      20.671088   17.441225   26.918810 H          1 MOL1         0.0750
       6    H2      21.396165   18.201673   25.512518 H          1 MOL1         0.0750
       7    C3      19.227611   17.902602   25.355585 C.3        1 MOL1        -0.1860
       8    H3      19.317076   16.900014   24.916071 H          1 MOL1         0.0752
       9    H4      18.377193   17.859151   26.050021 H          1 MOL1         0.0752
      10    C4      18.905297   18.922858   24.236176 C.3        1 MOL1        -0.1858
      11    H5      18.764118   19.920821   24.673627 H          1 MOL1         0.0752
      12    H6      17.944948   18.646630   23.779866 H          1 MOL1         0.0752
      13    C5      19.986582   18.988356   23.133022 C.3        1 MOL1        -0.1858
      14    H7      20.929997   19.354895   23.558692 H          1 MOL1         0.0752
      15    H8      20.174267   17.976722   22.750876 H          1 MOL1         0.0752
      16    C6      19.560933   19.918907   21.973771 C.3        1 MOL1        -0.1858
      17    H9      19.306980   20.905810   22.384261 H          1 MOL1         0.0752
      18    H10     18.646211   19.531941   21.504370 H          1 MOL1         0.0752
      19    C7      20.656662   20.101559   20.897825 C.3        1 MOL1        -0.1834
      20    H11     20.321517   20.861838   20.178905 H          1 MOL1         0.0752
      21    H12     21.570756   20.495931   21.362872 H          1 MOL1         0.0752
      22    C8      20.983157   18.801671   20.130926 C.3        1 MOL1        -0.2849
      23    H13     20.078012   18.372431   19.681973 H          1 MOL1         0.0764
      24    H14     21.698770   19.002065   19.323075 H          1 MOL1         0.0764
      25    H15     21.430674   18.048581   20.791454 H          1 MOL1         0.0764
@<TRIPOS>BOND
    1     1     2    1
    2     1     3    2
    3     1     4    1
    4     4     5    1
    5     4     6    1
    6     4     7    1
    7     7     8    1
    8     7     9    1
    9     7    10    1
   10    10    11    1
   11    10    12    1
   12    10    13    1
   13    13    14    1
   14    13    15    1
   15    13    16    1
   16    16    17    1
   17    16    18    1
   18    16    19    1
   19    19    20    1
   20    19    21    1
   21    19    22    1
   22    22    23    1
   23    22    24    1
   24    22    25    1
@<TRIPOS>SUBSTRUCTURE
       1 MOL1            1 RESIDUE      1      MOL     
@<SCITEGIC>MOL_PROPERTY
VM2 Rank
SciTegic.value.IntegerValue
67

@<SCITEGIC>MOL_PROPERTY
Conf_Id
SciTegic.value.IntegerValue
958

@<SCITEGIC>MOL_PROPERTY
Probability
SciTegic.value.DoubleValue
0.07

@<SCITEGIC>MOL_PROPERTY
Sum Probability
SciTegic.value.DoubleValue
98.56

@<SCITEGIC>MOL_PROPERTY
Delta G
SciTegic.value.DoubleValue
3.523

@<SCITEGIC>MOL_PROPERTY
G
SciTegic.value.DoubleValue
-4.439

@<SCITEGIC>MOL_PROPERTY
E
SciTegic.value.DoubleValue
-29.411

@<SCITEGIC>MOL_PROPERTY
-TS
SciTegic.value.DoubleValue
24.972

@<SCITEGIC>MOL_PROPERTY
U+W
SciTegic.value.DoubleValue
-49.979

@<SCITEGIC>MOL_PROPERTY
U
SciTegic.value.DoubleValue
10.315

@<SCITEGIC>MOL_PROPERTY
W
SciTegic.value.DoubleValue
-60.293

@<SCITEGIC>MOL_PROPERTY
W(PB)
SciTegic.value.DoubleValue
-62.744

@<SCITEGIC>MOL_PROPERTY
W(SA)
SciTegic.value.DoubleValue
2.451

@<SCITEGIC>MOL_PROPERTY
Valence
SciTegic.value.DoubleValue
8.797

@<SCITEGIC>MOL_PROPERTY
Coulomb
SciTegic.value.DoubleValue
0.776

@<SCITEGIC>MOL_PROPERTY
VdW
SciTegic.value.DoubleValue
0.742

@<SCITEGIC>MOL_PROPERTY
VdW6
SciTegic.value.DoubleValue
-10.191

@<SCITEGIC>MOL_PROPERTY
VdW12
SciTegic.value.DoubleValue
10.932

@<SCITEGIC>MOL_PROPERTY
Bond
SciTegic.value.DoubleValue
0.216

@<SCITEGIC>MOL_PROPERTY
Angle
SciTegic.value.DoubleValue
2.999

@<SCITEGIC>MOL_PROPERTY
Pdih
SciTegic.value.DoubleValue
5.581

@<SCITEGIC>MOL_PROPERTY
Idih
SciTegic.value.DoubleValue
0.001

@<SCITEGIC>MOL_PROPERTY
Tether
SciTegic.value.DoubleValue
0.000

@<TRIPOS>MOLECULE
guest-8_vm2.mol2 : vm2 ligand conformer 68
          25          24           1
SMALL
USER_CHARGES
 
@<TRIPOS>ATOM
       1    C1      20.556552   19.301279   26.895584 C.2        1 MOL1         0.6168
       2    O1      21.381185   20.173300   26.704232 O.co2      1 MOL1        -0.6703
       3    O2      19.926004   19.187512   27.928551 O.co2      1 MOL1        -0.6703
       4    C2      20.317510   18.275475   25.791264 C.3        1 MOL1        -0.1963
       5    H1      20.389170   17.281617   26.248023 H          1 MOL1         0.0750
       6    H2      21.135941   18.343349   25.065413 H          1 MOL1         0.0750
       7    C3      18.943696   18.417254   25.080867 C.3        1 MOL1        -0.1860
       8    H3      18.825764   17.601857   24.355563 H          1 MOL1         0.0752
       9    H4      18.146988   18.275965   25.824150 H          1 MOL1         0.0752
      10    C4      18.725586   19.780132   24.374019 C.3        1 MOL1        -0.1858
      11    H5      18.707967   20.576507   25.130698 H          1 MOL1         0.0752
      12    H6      17.729253   19.781983   23.911513 H          1 MOL1         0.0752
      13    C5      19.778989   20.143663   23.297676 C.3        1 MOL1        -0.1858
      14    H7      19.524885   21.129604   22.885507 H          1 MOL1         0.0752
      15    H8      20.766540   20.256423   23.764773 H          1 MOL1         0.0752
      16    C6      19.859279   19.120868   22.140907 C.3        1 MOL1        -0.1858
      17    H9      18.860462   18.979030   21.706258 H          1 MOL1         0.0752
      18    H10     20.183501   18.145665   22.526865 H          1 MOL1         0.0752
      19    C7      20.840301   19.579234   21.041392 C.3        1 MOL1        -0.1834
      20    H11     20.521249   20.551720   20.641578 H          1 MOL1         0.0752
      21    H12     21.839622   19.724352   21.474720 H          1 MOL1         0.0752
      22    C8      20.923897   18.555283   19.891509 C.3        1 MOL1        -0.2849
      23    H13     19.942689   18.413617   19.419793 H          1 MOL1         0.0764
      24    H14     21.625151   18.897122   19.119224 H          1 MOL1         0.0764
      25    H15     21.272008   17.580691   20.258055 H          1 MOL1         0.0764
@<TRIPOS>BOND
    1     1     2    1
    2     1     3    2
    3     1     4    1
    4     4     5    1
    5     4     6    1
    6     4     7    1
    7     7     8    1
    8     7     9    1
    9     7    10    1
   10    10    11    1
   11    10    12    1
   12    10    13    1
   13    13    14    1
   14    13    15    1
   15    13    16    1
   16    16    17    1
   17    16    18    1
   18    16    19    1
   19    19    20    1
   20    19    21    1
   21    19    22    1
   22    22    23    1
   23    22    24    1
   24    22    25    1
@<TRIPOS>SUBSTRUCTURE
       1 MOL1            1 RESIDUE      1      MOL     
@<SCITEGIC>MOL_PROPERTY
VM2 Rank
SciTegic.value.IntegerValue
68

@<SCITEGIC>MOL_PROPERTY
Conf_Id
SciTegic.value.IntegerValue
956

@<SCITEGIC>MOL_PROPERTY
Probability
SciTegic.value.DoubleValue
0.07

@<SCITEGIC>MOL_PROPERTY
Sum Probability
SciTegic.value.DoubleValue
98.62

@<SCITEGIC>MOL_PROPERTY
Delta G
SciTegic.value.DoubleValue
3.530

@<SCITEGIC>MOL_PROPERTY
G
SciTegic.value.DoubleValue
-4.433

@<SCITEGIC>MOL_PROPERTY
E
SciTegic.value.DoubleValue
-29.684

@<SCITEGIC>MOL_PROPERTY
-TS
SciTegic.value.DoubleValue
25.252

@<SCITEGIC>MOL_PROPERTY
U+W
SciTegic.value.DoubleValue
-50.252

@<SCITEGIC>MOL_PROPERTY
U
SciTegic.value.DoubleValue
9.772

@<SCITEGIC>MOL_PROPERTY
W
SciTegic.value.DoubleValue
-60.024

@<SCITEGIC>MOL_PROPERTY
W(PB)
SciTegic.value.DoubleValue
-62.442

@<SCITEGIC>MOL_PROPERTY
W(SA)
SciTegic.value.DoubleValue
2.418

@<SCITEGIC>MOL_PROPERTY
Valence
SciTegic.value.DoubleValue
8.741

@<SCITEGIC>MOL_PROPERTY
Coulomb
SciTegic.value.DoubleValue
0.478

@<SCITEGIC>MOL_PROPERTY
VdW
SciTegic.value.DoubleValue
0.552

@<SCITEGIC>MOL_PROPERTY
VdW6
SciTegic.value.DoubleValue
-10.626

@<SCITEGIC>MOL_PROPERTY
VdW12
SciTegic.value.DoubleValue
11.179

@<SCITEGIC>MOL_PROPERTY
Bond
SciTegic.value.DoubleValue
0.227

@<SCITEGIC>MOL_PROPERTY
Angle
SciTegic.value.DoubleValue
3.155

@<SCITEGIC>MOL_PROPERTY
Pdih
SciTegic.value.DoubleValue
5.358

@<SCITEGIC>MOL_PROPERTY
Idih
SciTegic.value.DoubleValue
0.001

@<SCITEGIC>MOL_PROPERTY
Tether
SciTegic.value.DoubleValue
0.000

@<TRIPOS>MOLECULE
guest-8_vm2.mol2 : vm2 ligand conformer 69
          25          24           1
SMALL
USER_CHARGES
 
@<TRIPOS>ATOM
       1    C1      19.947029   19.607885   26.999675 C.2        1 MOL1         0.6168
       2    O1      20.793505   20.144007   27.687805 O.co2      1 MOL1        -0.6703
       3    O2      18.862462   20.101683   26.761360 O.co2      1 MOL1        -0.6703
       4    C2      20.254596   18.226828   26.427781 C.3        1 MOL1        -0.1963
       5    H1      19.318602   17.772458   26.084113 H          1 MOL1         0.0750
       6    H2      20.614142   17.604702   27.255642 H          1 MOL1         0.0750
       7    C3      21.314240   18.231257   25.291892 C.3        1 MOL1        -0.1860
       8    H3      22.260044   18.617420   25.696481 H          1 MOL1         0.0752
       9    H4      21.513166   17.196962   24.980429 H          1 MOL1         0.0752
      10    C4      20.925635   19.071757   24.050351 C.3        1 MOL1        -0.1858
      11    H5      21.782377   19.077216   23.365000 H          1 MOL1         0.0752
      12    H6      20.759571   20.116505   24.346835 H          1 MOL1         0.0752
      13    C5      19.674581   18.536828   23.311030 C.3        1 MOL1        -0.1858
      14    H7      19.829523   17.486956   23.027775 H          1 MOL1         0.0752
      15    H8      18.815980   18.553578   23.994685 H          1 MOL1         0.0752
      16    C6      19.299014   19.362656   22.057300 C.3        1 MOL1        -0.1858
      17    H9      19.163574   20.416093   22.338200 H          1 MOL1         0.0752
      18    H10     18.324600   19.011953   21.690736 H          1 MOL1         0.0752
      19    C7      20.331131   19.255363   20.911701 C.3        1 MOL1        -0.1834
      20    H11     21.293888   19.677725   21.227338 H          1 MOL1         0.0752
      21    H12     20.508122   18.198231   20.670208 H          1 MOL1         0.0752
      22    C8      19.850806   19.995737   19.647103 C.3        1 MOL1        -0.2849
      23    H13     19.691497   21.062207   19.853587 H          1 MOL1         0.0764
      24    H14     20.595165   19.913357   18.844487 H          1 MOL1         0.0764
      25    H15     18.907039   19.573036   19.278367 H          1 MOL1         0.0764
@<TRIPOS>BOND
    1     1     2    1
    2     1     3    2
    3     1     4    1
    4     4     5    1
    5     4     6    1
    6     4     7    1
    7     7     8    1
    8     7     9    1
    9     7    10    1
   10    10    11    1
   11    10    12    1
   12    10    13    1
   13    13    14    1
   14    13    15    1
   15    13    16    1
   16    16    17    1
   17    16    18    1
   18    16    19    1
   19    19    20    1
   20    19    21    1
   21    19    22    1
   22    22    23    1
   23    22    24    1
   24    22    25    1
@<TRIPOS>SUBSTRUCTURE
       1 MOL1            1 RESIDUE      1      MOL     
@<SCITEGIC>MOL_PROPERTY
VM2 Rank
SciTegic.value.IntegerValue
69

@<SCITEGIC>MOL_PROPERTY
Conf_Id
SciTegic.value.IntegerValue
408

@<SCITEGIC>MOL_PROPERTY
Probability
SciTegic.value.DoubleValue
0.07

@<SCITEGIC>MOL_PROPERTY
Sum Probability
SciTegic.value.DoubleValue
98.69

@<SCITEGIC>MOL_PROPERTY
Delta G
SciTegic.value.DoubleValue
3.532

@<SCITEGIC>MOL_PROPERTY
G
SciTegic.value.DoubleValue
-4.431

@<SCITEGIC>MOL_PROPERTY
E
SciTegic.value.DoubleValue
-29.328

@<SCITEGIC>MOL_PROPERTY
-TS
SciTegic.value.DoubleValue
24.897

@<SCITEGIC>MOL_PROPERTY
U+W
SciTegic.value.DoubleValue
-49.895

@<SCITEGIC>MOL_PROPERTY
U
SciTegic.value.DoubleValue
10.274

@<SCITEGIC>MOL_PROPERTY
W
SciTegic.value.DoubleValue
-60.169

@<SCITEGIC>MOL_PROPERTY
W(PB)
SciTegic.value.DoubleValue
-62.622

@<SCITEGIC>MOL_PROPERTY
W(SA)
SciTegic.value.DoubleValue
2.453

@<SCITEGIC>MOL_PROPERTY
Valence
SciTegic.value.DoubleValue
8.912

@<SCITEGIC>MOL_PROPERTY
Coulomb
SciTegic.value.DoubleValue
0.552

@<SCITEGIC>MOL_PROPERTY
VdW
SciTegic.value.DoubleValue
0.809

@<SCITEGIC>MOL_PROPERTY
VdW6
SciTegic.value.DoubleValue
-10.135

@<SCITEGIC>MOL_PROPERTY
VdW12
SciTegic.value.DoubleValue
10.945

@<SCITEGIC>MOL_PROPERTY
Bond
SciTegic.value.DoubleValue
0.229

@<SCITEGIC>MOL_PROPERTY
Angle
SciTegic.value.DoubleValue
3.100

@<SCITEGIC>MOL_PROPERTY
Pdih
SciTegic.value.DoubleValue
5.582

@<SCITEGIC>MOL_PROPERTY
Idih
SciTegic.value.DoubleValue
0.001

@<SCITEGIC>MOL_PROPERTY
Tether
SciTegic.value.DoubleValue
0.000

@<TRIPOS>MOLECULE
guest-8_vm2.mol2 : vm2 ligand conformer 70
          25          24           1
SMALL
USER_CHARGES
 
@<TRIPOS>ATOM
       1    C1      19.702268   19.586434   26.763151 C.2        1 MOL1         0.6168
       2    O1      20.352820   19.915998   27.735626 O.co2      1 MOL1        -0.6703
       3    O2      18.854034   20.290462   26.251649 O.co2      1 MOL1        -0.6703
       4    C2      19.945678   18.200756   26.171767 C.3        1 MOL1        -0.1963
       5    H1      19.118817   17.957429   25.494967 H          1 MOL1         0.0750
       6    H2      19.892546   17.481061   26.996898 H          1 MOL1         0.0750
       7    C3      21.311195   18.050733   25.446775 C.3        1 MOL1        -0.1860
       8    H3      22.116632   18.231098   26.172092 H          1 MOL1         0.0752
       9    H4      21.427802   17.011787   25.110109 H          1 MOL1         0.0752
      10    C4      21.505007   19.002121   24.240410 C.3        1 MOL1        -0.1858
      11    H5      22.524280   18.868108   23.853317 H          1 MOL1         0.0752
      12    H6      21.436602   20.046081   24.576145 H          1 MOL1         0.0752
      13    C5      20.494120   18.759109   23.095993 C.3        1 MOL1        -0.1858
      14    H7      20.516132   17.700547   22.803922 H          1 MOL1         0.0752
      15    H8      19.479942   18.976054   23.453842 H          1 MOL1         0.0752
      16    C6      20.804544   19.641570   21.864672 C.3        1 MOL1        -0.1858
      17    H9      21.844392   19.470586   21.554431 H          1 MOL1         0.0752
      18    H10     20.732961   20.701883   22.143202 H          1 MOL1         0.0752
      19    C7      19.880171   19.360069   20.657112 C.3        1 MOL1        -0.1834
      20    H11     20.240568   19.938333   19.795183 H          1 MOL1         0.0752
      21    H12     19.953357   18.301258   20.372800 H          1 MOL1         0.0752
      22    C8      18.403163   19.726748   20.918845 C.3        1 MOL1        -0.2849
      23    H13     18.308458   20.773732   21.235076 H          1 MOL1         0.0764
      24    H14     17.806984   19.593659   20.006863 H          1 MOL1         0.0764
      25    H15     17.964456   19.090988   21.698023 H          1 MOL1         0.0764
@<TRIPOS>BOND
    1     1     2    1
    2     1     3    2
    3     1     4    1
    4     4     5    1
    5     4     6    1
    6     4     7    1
    7     7     8    1
    8     7     9    1
    9     7    10    1
   10    10    11    1
   11    10    12    1
   12    10    13    1
   13    13    14    1
   14    13    15    1
   15    13    16    1
   16    16    17    1
   17    16    18    1
   18    16    19    1
   19    19    20    1
   20    19    21    1
   21    19    22    1
   22    22    23    1
   23    22    24    1
   24    22    25    1
@<TRIPOS>SUBSTRUCTURE
       1 MOL1            1 RESIDUE      1      MOL     
@<SCITEGIC>MOL_PROPERTY
VM2 Rank
SciTegic.value.IntegerValue
70

@<SCITEGIC>MOL_PROPERTY
Conf_Id
SciTegic.value.IntegerValue
117

@<SCITEGIC>MOL_PROPERTY
Probability
SciTegic.value.DoubleValue
0.07

@<SCITEGIC>MOL_PROPERTY
Sum Probability
SciTegic.value.DoubleValue
98.76

@<SCITEGIC>MOL_PROPERTY
Delta G
SciTegic.value.DoubleValue
3.534

@<SCITEGIC>MOL_PROPERTY
G
SciTegic.value.DoubleValue
-4.428

@<SCITEGIC>MOL_PROPERTY
E
SciTegic.value.DoubleValue
-29.382

@<SCITEGIC>MOL_PROPERTY
-TS
SciTegic.value.DoubleValue
24.954

@<SCITEGIC>MOL_PROPERTY
U+W
SciTegic.value.DoubleValue
-49.950

@<SCITEGIC>MOL_PROPERTY
U
SciTegic.value.DoubleValue
10.718

@<SCITEGIC>MOL_PROPERTY
W
SciTegic.value.DoubleValue
-60.667

@<SCITEGIC>MOL_PROPERTY
W(PB)
SciTegic.value.DoubleValue
-63.101

@<SCITEGIC>MOL_PROPERTY
W(SA)
SciTegic.value.DoubleValue
2.433

@<SCITEGIC>MOL_PROPERTY
Valence
SciTegic.value.DoubleValue
8.800

@<SCITEGIC>MOL_PROPERTY
Coulomb
SciTegic.value.DoubleValue
1.201

@<SCITEGIC>MOL_PROPERTY
VdW
SciTegic.value.DoubleValue
0.718

@<SCITEGIC>MOL_PROPERTY
VdW6
SciTegic.value.DoubleValue
-10.234

@<SCITEGIC>MOL_PROPERTY
VdW12
SciTegic.value.DoubleValue
10.952

@<SCITEGIC>MOL_PROPERTY
Bond
SciTegic.value.DoubleValue
0.218

@<SCITEGIC>MOL_PROPERTY
Angle
SciTegic.value.DoubleValue
3.002

@<SCITEGIC>MOL_PROPERTY
Pdih
SciTegic.value.DoubleValue
5.578

@<SCITEGIC>MOL_PROPERTY
Idih
SciTegic.value.DoubleValue
0.001

@<SCITEGIC>MOL_PROPERTY
Tether
SciTegic.value.DoubleValue
0.000

@<TRIPOS>MOLECULE
guest-8_vm2.mol2 : vm2 ligand conformer 71
          25          24           1
SMALL
USER_CHARGES
 
@<TRIPOS>ATOM
       1    C1      20.558816   19.641016   26.753506 C.2        1 MOL1         0.6168
       2    O1      21.298583   20.446578   26.223786 O.co2      1 MOL1        -0.6703
       3    O2      19.894176   19.886395   27.741221 O.co2      1 MOL1        -0.6703
       4    C2      20.480054   18.234897   26.165532 C.3        1 MOL1        -0.1963
       5    H1      20.643268   17.528836   26.988005 H          1 MOL1         0.0750
       6    H2      21.315335   18.097856   25.469478 H          1 MOL1         0.0750
       7    C3      19.128361   17.911549   25.471903 C.3        1 MOL1        -0.1860
       8    H3      19.136988   16.865739   25.136407 H          1 MOL1         0.0752
       9    H4      18.323440   17.989121   26.215833 H          1 MOL1         0.0752
      10    C4      18.787536   18.828939   24.271799 C.3        1 MOL1        -0.1858
      11    H5      18.730687   19.873619   24.607452 H          1 MOL1         0.0752
      12    H6      17.784820   18.566133   23.908190 H          1 MOL1         0.0752
      13    C5      19.794322   18.714523   23.103921 C.3        1 MOL1        -0.1858
      14    H7      20.780804   19.058849   23.438538 H          1 MOL1         0.0752
      15    H8      19.900000   17.661317   22.810782 H          1 MOL1         0.0752
      16    C6      19.346044   19.548780   21.881499 C.3        1 MOL1        -0.1858
      17    H9      19.289044   20.609996   22.159953 H          1 MOL1         0.0752
      18    H10     18.329356   19.246896   21.595180 H          1 MOL1         0.0752
      19    C7      20.270385   19.385088   20.652389 C.3        1 MOL1        -0.1834
      20    H11     20.325331   18.325171   20.368089 H          1 MOL1         0.0752
      21    H12     19.819749   19.911931   19.800004 H          1 MOL1         0.0752
      22    C8      21.694724   19.936236   20.880444 C.3        1 MOL1        -0.2849
      23    H13     22.281590   19.878717   19.954628 H          1 MOL1         0.0764
      24    H14     21.663361   20.987139   21.196302 H          1 MOL1         0.0764
      25    H15     22.228428   19.362052   21.648069 H          1 MOL1         0.0764
@<TRIPOS>BOND
    1     1     2    1
    2     1     3    2
    3     1     4    1
    4     4     5    1
    5     4     6    1
    6     4     7    1
    7     7     8    1
    8     7     9    1
    9     7    10    1
   10    10    11    1
   11    10    12    1
   12    10    13    1
   13    13    14    1
   14    13    15    1
   15    13    16    1
   16    16    17    1
   17    16    18    1
   18    16    19    1
   19    19    20    1
   20    19    21    1
   21    19    22    1
   22    22    23    1
   23    22    24    1
   24    22    25    1
@<TRIPOS>SUBSTRUCTURE
       1 MOL1            1 RESIDUE      1      MOL     
@<SCITEGIC>MOL_PROPERTY
VM2 Rank
SciTegic.value.IntegerValue
71

@<SCITEGIC>MOL_PROPERTY
Conf_Id
SciTegic.value.IntegerValue
670

@<SCITEGIC>MOL_PROPERTY
Probability
SciTegic.value.DoubleValue
0.07

@<SCITEGIC>MOL_PROPERTY
Sum Probability
SciTegic.value.DoubleValue
98.82

@<SCITEGIC>MOL_PROPERTY
Delta G
SciTegic.value.DoubleValue
3.543

@<SCITEGIC>MOL_PROPERTY
G
SciTegic.value.DoubleValue
-4.420

@<SCITEGIC>MOL_PROPERTY
E
SciTegic.value.DoubleValue
-29.375

@<SCITEGIC>MOL_PROPERTY
-TS
SciTegic.value.DoubleValue
24.955

@<SCITEGIC>MOL_PROPERTY
U+W
SciTegic.value.DoubleValue
-49.942

@<SCITEGIC>MOL_PROPERTY
U
SciTegic.value.DoubleValue
10.717

@<SCITEGIC>MOL_PROPERTY
W
SciTegic.value.DoubleValue
-60.659

@<SCITEGIC>MOL_PROPERTY
W(PB)
SciTegic.value.DoubleValue
-63.085

@<SCITEGIC>MOL_PROPERTY
W(SA)
SciTegic.value.DoubleValue
2.426

@<SCITEGIC>MOL_PROPERTY
Valence
SciTegic.value.DoubleValue
8.799

@<SCITEGIC>MOL_PROPERTY
Coulomb
SciTegic.value.DoubleValue
1.200

@<SCITEGIC>MOL_PROPERTY
VdW
SciTegic.value.DoubleValue
0.718

@<SCITEGIC>MOL_PROPERTY
VdW6
SciTegic.value.DoubleValue
-10.234

@<SCITEGIC>MOL_PROPERTY
VdW12
SciTegic.value.DoubleValue
10.951

@<SCITEGIC>MOL_PROPERTY
Bond
SciTegic.value.DoubleValue
0.218

@<SCITEGIC>MOL_PROPERTY
Angle
SciTegic.value.DoubleValue
3.002

@<SCITEGIC>MOL_PROPERTY
Pdih
SciTegic.value.DoubleValue
5.579

@<SCITEGIC>MOL_PROPERTY
Idih
SciTegic.value.DoubleValue
0.001

@<SCITEGIC>MOL_PROPERTY
Tether
SciTegic.value.DoubleValue
0.000

@<TRIPOS>MOLECULE
guest-8_vm2.mol2 : vm2 ligand conformer 72
          25          24           1
SMALL
USER_CHARGES
 
@<TRIPOS>ATOM
       1    C1      20.295440   19.851686   26.695573 C.2        1 MOL1         0.6168
       2    O1      21.105212   20.609753   26.199091 O.co2      1 MOL1        -0.6703
       3    O2      19.384613   20.216293   27.413213 O.co2      1 MOL1        -0.6703
       4    C2      20.445818   18.356469   26.428990 C.3        1 MOL1        -0.1963
       5    H1      20.426009   17.848810   27.400330 H          1 MOL1         0.0750
       6    H2      21.439334   18.174063   26.003834 H          1 MOL1         0.0750
       7    C3      19.340719   17.760246   25.514696 C.3        1 MOL1        -0.1860
       8    H3      19.492234   16.675986   25.426686 H          1 MOL1         0.0752
       9    H4      18.366384   17.895947   26.004173 H          1 MOL1         0.0752
      10    C4      19.278599   18.383684   24.098724 C.3        1 MOL1        -0.1858
      11    H5      19.067768   19.457810   24.184609 H          1 MOL1         0.0752
      12    H6      18.429446   17.942109   23.559759 H          1 MOL1         0.0752
      13    C5      20.570717   18.163251   23.275071 C.3        1 MOL1        -0.1858
      14    H7      21.403768   18.714569   23.731360 H          1 MOL1         0.0752
      15    H8      20.841389   17.099306   23.309940 H          1 MOL1         0.0752
      16    C6      20.433988   18.588234   21.793627 C.3        1 MOL1        -0.1858
      17    H9      19.611527   18.031065   21.324682 H          1 MOL1         0.0752
      18    H10     21.349857   18.296625   21.261703 H          1 MOL1         0.0752
      19    C7      20.207397   20.105800   21.609077 C.3        1 MOL1        -0.1834
      20    H11     19.255859   20.404204   22.068466 H          1 MOL1         0.0752
      21    H12     21.000633   20.663996   22.125538 H          1 MOL1         0.0752
      22    C8      20.190498   20.498584   20.117937 C.3        1 MOL1        -0.2849
      23    H13     20.025436   21.577869   20.004236 H          1 MOL1         0.0764
      24    H14     21.144197   20.249051   19.634715 H          1 MOL1         0.0764
      25    H15     19.387489   19.974556   19.583233 H          1 MOL1         0.0764
@<TRIPOS>BOND
    1     1     2    1
    2     1     3    2
    3     1     4    1
    4     4     5    1
    5     4     6    1
    6     4     7    1
    7     7     8    1
    8     7     9    1
    9     7    10    1
   10    10    11    1
   11    10    12    1
   12    10    13    1
   13    13    14    1
   14    13    15    1
   15    13    16    1
   16    16    17    1
   17    16    18    1
   18    16    19    1
   19    19    20    1
   20    19    21    1
   21    19    22    1
   22    22    23    1
   23    22    24    1
   24    22    25    1
@<TRIPOS>SUBSTRUCTURE
       1 MOL1            1 RESIDUE      1      MOL     
@<SCITEGIC>MOL_PROPERTY
VM2 Rank
SciTegic.value.IntegerValue
72

@<SCITEGIC>MOL_PROPERTY
Conf_Id
SciTegic.value.IntegerValue
563

@<SCITEGIC>MOL_PROPERTY
Probability
SciTegic.value.DoubleValue
0.05

@<SCITEGIC>MOL_PROPERTY
Sum Probability
SciTegic.value.DoubleValue
98.88

@<SCITEGIC>MOL_PROPERTY
Delta G
SciTegic.value.DoubleValue
3.683

@<SCITEGIC>MOL_PROPERTY
G
SciTegic.value.DoubleValue
-4.279

@<SCITEGIC>MOL_PROPERTY
E
SciTegic.value.DoubleValue
-29.279

@<SCITEGIC>MOL_PROPERTY
-TS
SciTegic.value.DoubleValue
24.999

@<SCITEGIC>MOL_PROPERTY
U+W
SciTegic.value.DoubleValue
-49.846

@<SCITEGIC>MOL_PROPERTY
U
SciTegic.value.DoubleValue
10.631

@<SCITEGIC>MOL_PROPERTY
W
SciTegic.value.DoubleValue
-60.478

@<SCITEGIC>MOL_PROPERTY
W(PB)
SciTegic.value.DoubleValue
-62.904

@<SCITEGIC>MOL_PROPERTY
W(SA)
SciTegic.value.DoubleValue
2.426

@<SCITEGIC>MOL_PROPERTY
Valence
SciTegic.value.DoubleValue
8.788

@<SCITEGIC>MOL_PROPERTY
Coulomb
SciTegic.value.DoubleValue
1.197

@<SCITEGIC>MOL_PROPERTY
VdW
SciTegic.value.DoubleValue
0.647

@<SCITEGIC>MOL_PROPERTY
VdW6
SciTegic.value.DoubleValue
-10.379

@<SCITEGIC>MOL_PROPERTY
VdW12
SciTegic.value.DoubleValue
11.026

@<SCITEGIC>MOL_PROPERTY
Bond
SciTegic.value.DoubleValue
0.219

@<SCITEGIC>MOL_PROPERTY
Angle
SciTegic.value.DoubleValue
2.957

@<SCITEGIC>MOL_PROPERTY
Pdih
SciTegic.value.DoubleValue
5.611

@<SCITEGIC>MOL_PROPERTY
Idih
SciTegic.value.DoubleValue
0.001

@<SCITEGIC>MOL_PROPERTY
Tether
SciTegic.value.DoubleValue
0.000

@<TRIPOS>MOLECULE
guest-8_vm2.mol2 : vm2 ligand conformer 73
          25          24           1
SMALL
USER_CHARGES
 
@<TRIPOS>ATOM
       1    C1      19.900643   19.836940   26.651993 C.2        1 MOL1         0.6168
       2    O1      20.883134   20.504724   26.909713 O.co2      1 MOL1        -0.6703
       3    O2      18.800652   20.312658   26.449683 O.co2      1 MOL1        -0.6703
       4    C2      20.038881   18.315673   26.647204 C.3        1 MOL1        -0.1963
       5    H1      19.056980   17.869096   26.449145 H          1 MOL1         0.0750
       6    H2      20.313928   18.028200   27.668563 H          1 MOL1         0.0750
       7    C3      21.097482   17.748881   25.659675 C.3        1 MOL1        -0.1860
       8    H3      22.020648   18.342022   25.719198 H          1 MOL1         0.0752
       9    H4      21.366320   16.737869   25.994354 H          1 MOL1         0.0752
      10    C4      20.624931   17.648370   24.188052 C.3        1 MOL1        -0.1858
      11    H5      19.708725   17.044618   24.134342 H          1 MOL1         0.0752
      12    H6      21.389258   17.100312   23.620233 H          1 MOL1         0.0752
      13    C5      20.386427   19.015558   23.507946 C.3        1 MOL1        -0.1858
      14    H7      19.535886   19.523291   23.979953 H          1 MOL1         0.0752
      15    H8      21.265790   19.658046   23.652774 H          1 MOL1         0.0752
      16    C6      20.101598   18.860572   21.998173 C.3        1 MOL1        -0.1858
      17    H9      19.224992   18.213919   21.855217 H          1 MOL1         0.0752
      18    H10     20.950924   18.360460   21.512889 H          1 MOL1         0.0752
      19    C7      19.851959   20.224266   21.320389 C.3        1 MOL1        -0.1834
      20    H11     19.001769   20.726896   21.802204 H          1 MOL1         0.0752
      21    H12     20.727452   20.873283   21.460916 H          1 MOL1         0.0752
      22    C8      19.567293   20.066359   19.813174 C.3        1 MOL1        -0.2849
      23    H13     18.676809   19.446713   19.644497 H          1 MOL1         0.0764
      24    H14     19.392209   21.045097   19.347900 H          1 MOL1         0.0764
      25    H15     20.415661   19.594257   19.300570 H          1 MOL1         0.0764
@<TRIPOS>BOND
    1     1     2    1
    2     1     3    2
    3     1     4    1
    4     4     5    1
    5     4     6    1
    6     4     7    1
    7     7     8    1
    8     7     9    1
    9     7    10    1
   10    10    11    1
   11    10    12    1
   12    10    13    1
   13    13    14    1
   14    13    15    1
   15    13    16    1
   16    16    17    1
   17    16    18    1
   18    16    19    1
   19    19    20    1
   20    19    21    1
   21    19    22    1
   22    22    23    1
   23    22    24    1
   24    22    25    1
@<TRIPOS>SUBSTRUCTURE
       1 MOL1            1 RESIDUE      1      MOL     
@<SCITEGIC>MOL_PROPERTY
VM2 Rank
SciTegic.value.IntegerValue
73

@<SCITEGIC>MOL_PROPERTY
Conf_Id
SciTegic.value.IntegerValue
811

@<SCITEGIC>MOL_PROPERTY
Probability
SciTegic.value.DoubleValue
0.05

@<SCITEGIC>MOL_PROPERTY
Sum Probability
SciTegic.value.DoubleValue
98.93

@<SCITEGIC>MOL_PROPERTY
Delta G
SciTegic.value.DoubleValue
3.690

@<SCITEGIC>MOL_PROPERTY
G
SciTegic.value.DoubleValue
-4.272

@<SCITEGIC>MOL_PROPERTY
E
SciTegic.value.DoubleValue
-29.298

@<SCITEGIC>MOL_PROPERTY
-TS
SciTegic.value.DoubleValue
25.026

@<SCITEGIC>MOL_PROPERTY
U+W
SciTegic.value.DoubleValue
-49.866

@<SCITEGIC>MOL_PROPERTY
U
SciTegic.value.DoubleValue
10.903

@<SCITEGIC>MOL_PROPERTY
W
SciTegic.value.DoubleValue
-60.768

@<SCITEGIC>MOL_PROPERTY
W(PB)
SciTegic.value.DoubleValue
-63.223

@<SCITEGIC>MOL_PROPERTY
W(SA)
SciTegic.value.DoubleValue
2.454

@<SCITEGIC>MOL_PROPERTY
Valence
SciTegic.value.DoubleValue
9.445

@<SCITEGIC>MOL_PROPERTY
Coulomb
SciTegic.value.DoubleValue
0.779

@<SCITEGIC>MOL_PROPERTY
VdW
SciTegic.value.DoubleValue
0.679

@<SCITEGIC>MOL_PROPERTY
VdW6
SciTegic.value.DoubleValue
-10.008

@<SCITEGIC>MOL_PROPERTY
VdW12
SciTegic.value.DoubleValue
10.687

@<SCITEGIC>MOL_PROPERTY
Bond
SciTegic.value.DoubleValue
0.201

@<SCITEGIC>MOL_PROPERTY
Angle
SciTegic.value.DoubleValue
3.198

@<SCITEGIC>MOL_PROPERTY
Pdih
SciTegic.value.DoubleValue
6.039

@<SCITEGIC>MOL_PROPERTY
Idih
SciTegic.value.DoubleValue
0.006

@<SCITEGIC>MOL_PROPERTY
Tether
SciTegic.value.DoubleValue
0.000

@<TRIPOS>MOLECULE
guest-8_vm2.mol2 : vm2 ligand conformer 74
          25          24           1
SMALL
USER_CHARGES
 
@<TRIPOS>ATOM
       1    C1      20.686958   19.309070   26.709854 C.2        1 MOL1         0.6168
       2    O1      21.674136   19.820655   26.219290 O.co2      1 MOL1        -0.6703
       3    O2      20.727104   18.355399   27.462484 O.co2      1 MOL1        -0.6703
       4    C2      19.322974   19.913400   26.387851 C.3        1 MOL1        -0.1963
       5    H1      19.474460   20.898359   25.931772 H          1 MOL1         0.0750
       6    H2      18.810956   20.088344   27.341183 H          1 MOL1         0.0750
       7    C3      18.431206   19.021230   25.481517 C.3        1 MOL1        -0.1860
       8    H3      18.239937   18.071397   25.999748 H          1 MOL1         0.0752
       9    H4      17.452868   19.503365   25.352195 H          1 MOL1         0.0752
      10    C4      19.038241   18.716682   24.090020 C.3        1 MOL1        -0.1858
      11    H5      18.364753   18.031452   23.557664 H          1 MOL1         0.0752
      12    H6      19.988374   18.181574   24.218373 H          1 MOL1         0.0752
      13    C5      19.257600   19.982959   23.226895 C.3        1 MOL1        -0.1858
      14    H7      18.332906   20.575677   23.217825 H          1 MOL1         0.0752
      15    H8      20.031969   20.615634   23.680983 H          1 MOL1         0.0752
      16    C6      19.654830   19.667839   21.765086 C.3        1 MOL1        -0.1858
      17    H9      19.680386   20.609762   21.200353 H          1 MOL1         0.0752
      18    H10     18.878682   19.046423   21.297942 H          1 MOL1         0.0752
      19    C7      21.027638   18.969278   21.639322 C.3        1 MOL1        -0.1834
      20    H11     21.794357   19.564376   22.154629 H          1 MOL1         0.0752
      21    H12     20.999153   17.988893   22.132820 H          1 MOL1         0.0752
      22    C8      21.432312   18.777488   20.163681 C.3        1 MOL1        -0.2849
      23    H13     20.695412   18.161684   19.631608 H          1 MOL1         0.0764
      24    H14     21.508381   19.743720   19.648004 H          1 MOL1         0.0764
      25    H15     22.407005   18.277639   20.091876 H          1 MOL1         0.0764
@<TRIPOS>BOND
    1     1     2    1
    2     1     3    2
    3     1     4    1
    4     4     5    1
    5     4     6    1
    6     4     7    1
    7     7     8    1
    8     7     9    1
    9     7    10    1
   10    10    11    1
   11    10    12    1
   12    10    13    1
   13    13    14    1
   14    13    15    1
   15    13    16    1
   16    16    17    1
   17    16    18    1
   18    16    19    1
   19    19    20    1
   20    19    21    1
   21    19    22    1
   22    22    23    1
   23    22    24    1
   24    22    25    1
@<TRIPOS>SUBSTRUCTURE
       1 MOL1            1 RESIDUE      1      MOL     
@<SCITEGIC>MOL_PROPERTY
VM2 Rank
SciTegic.value.IntegerValue
74

@<SCITEGIC>MOL_PROPERTY
Conf_Id
SciTegic.value.IntegerValue
285

@<SCITEGIC>MOL_PROPERTY
Probability
SciTegic.value.DoubleValue
0.05

@<SCITEGIC>MOL_PROPERTY
Sum Probability
SciTegic.value.DoubleValue
98.98

@<SCITEGIC>MOL_PROPERTY
Delta G
SciTegic.value.DoubleValue
3.691

@<SCITEGIC>MOL_PROPERTY
G
SciTegic.value.DoubleValue
-4.271

@<SCITEGIC>MOL_PROPERTY
E
SciTegic.value.DoubleValue
-29.270

@<SCITEGIC>MOL_PROPERTY
-TS
SciTegic.value.DoubleValue
24.999

@<SCITEGIC>MOL_PROPERTY
U+W
SciTegic.value.DoubleValue
-49.838

@<SCITEGIC>MOL_PROPERTY
U
SciTegic.value.DoubleValue
10.633

@<SCITEGIC>MOL_PROPERTY
W
SciTegic.value.DoubleValue
-60.470

@<SCITEGIC>MOL_PROPERTY
W(PB)
SciTegic.value.DoubleValue
-62.867

@<SCITEGIC>MOL_PROPERTY
W(SA)
SciTegic.value.DoubleValue
2.397

@<SCITEGIC>MOL_PROPERTY
Valence
SciTegic.value.DoubleValue
8.788

@<SCITEGIC>MOL_PROPERTY
Coulomb
SciTegic.value.DoubleValue
1.198

@<SCITEGIC>MOL_PROPERTY
VdW
SciTegic.value.DoubleValue
0.647

@<SCITEGIC>MOL_PROPERTY
VdW6
SciTegic.value.DoubleValue
-10.380

@<SCITEGIC>MOL_PROPERTY
VdW12
SciTegic.value.DoubleValue
11.026

@<SCITEGIC>MOL_PROPERTY
Bond
SciTegic.value.DoubleValue
0.219

@<SCITEGIC>MOL_PROPERTY
Angle
SciTegic.value.DoubleValue
2.957

@<SCITEGIC>MOL_PROPERTY
Pdih
SciTegic.value.DoubleValue
5.610

@<SCITEGIC>MOL_PROPERTY
Idih
SciTegic.value.DoubleValue
0.001

@<SCITEGIC>MOL_PROPERTY
Tether
SciTegic.value.DoubleValue
0.000

@<TRIPOS>MOLECULE
guest-8_vm2.mol2 : vm2 ligand conformer 75
          25          24           1
SMALL
USER_CHARGES
 
@<TRIPOS>ATOM
       1    C1      20.637718   19.669031   26.642578 C.2        1 MOL1         0.6168
       2    O1      20.047850   20.694955   26.920389 O.co2      1 MOL1        -0.6703
       3    O2      21.829878   19.622706   26.410569 O.co2      1 MOL1        -0.6703
       4    C2      19.854325   18.357679   26.649538 C.3        1 MOL1        -0.1963
       5    H1      19.507107   18.211825   27.678923 H          1 MOL1         0.0750
       6    H2      20.540845   17.531115   26.429835 H          1 MOL1         0.0750
       7    C3      18.630777   18.310776   25.691498 C.3        1 MOL1        -0.1860
       8    H3      17.958947   17.514040   26.038317 H          1 MOL1         0.0752
       9    H4      18.057294   19.244847   25.770382 H          1 MOL1         0.0752
      10    C4      18.976873   18.023804   24.209287 C.3        1 MOL1        -0.1858
      11    H5      18.036891   17.864134   23.663464 H          1 MOL1         0.0752
      12    H6      19.539504   17.083073   24.136434 H          1 MOL1         0.0752
      13    C5      19.767297   19.156564   23.515956 C.3        1 MOL1        -0.1858
      14    H7      19.256884   20.115735   23.678789 H          1 MOL1         0.0752
      15    H8      20.765138   19.243076   23.964102 H          1 MOL1         0.0752
      16    C6      19.919716   18.902027   22.000520 C.3        1 MOL1        -0.1858
      17    H9      18.925942   18.822018   21.539024 H          1 MOL1         0.0752
      18    H10     20.425810   17.940246   21.839647 H          1 MOL1         0.0752
      19    C7      20.718821   20.026743   21.309277 C.3        1 MOL1        -0.1834
      20    H11     20.214762   20.990205   21.467781 H          1 MOL1         0.0752
      21    H12     21.714422   20.108579   21.767195 H          1 MOL1         0.0752
      22    C8      20.869744   19.769717   19.796389 C.3        1 MOL1        -0.2849
      23    H13     19.888254   19.714831   19.307476 H          1 MOL1         0.0764
      24    H14     21.440157   20.578561   19.321560 H          1 MOL1         0.0764
      25    H15     21.399296   18.826365   19.609206 H          1 MOL1         0.0764
@<TRIPOS>BOND
    1     1     2    1
    2     1     3    2
    3     1     4    1
    4     4     5    1
    5     4     6    1
    6     4     7    1
    7     7     8    1
    8     7     9    1
    9     7    10    1
   10    10    11    1
   11    10    12    1
   12    10    13    1
   13    13    14    1
   14    13    15    1
   15    13    16    1
   16    16    17    1
   17    16    18    1
   18    16    19    1
   19    19    20    1
   20    19    21    1
   21    19    22    1
   22    22    23    1
   23    22    24    1
   24    22    25    1
@<TRIPOS>SUBSTRUCTURE
       1 MOL1            1 RESIDUE      1      MOL     
@<SCITEGIC>MOL_PROPERTY
VM2 Rank
SciTegic.value.IntegerValue
75

@<SCITEGIC>MOL_PROPERTY
Conf_Id
SciTegic.value.IntegerValue
81

@<SCITEGIC>MOL_PROPERTY
Probability
SciTegic.value.DoubleValue
0.05

@<SCITEGIC>MOL_PROPERTY
Sum Probability
SciTegic.value.DoubleValue
99.03

@<SCITEGIC>MOL_PROPERTY
Delta G
SciTegic.value.DoubleValue
3.709

@<SCITEGIC>MOL_PROPERTY
G
SciTegic.value.DoubleValue
-4.253

@<SCITEGIC>MOL_PROPERTY
E
SciTegic.value.DoubleValue
-29.280

@<SCITEGIC>MOL_PROPERTY
-TS
SciTegic.value.DoubleValue
25.026

@<SCITEGIC>MOL_PROPERTY
U+W
SciTegic.value.DoubleValue
-49.847

@<SCITEGIC>MOL_PROPERTY
U
SciTegic.value.DoubleValue
10.903

@<SCITEGIC>MOL_PROPERTY
W
SciTegic.value.DoubleValue
-60.751

@<SCITEGIC>MOL_PROPERTY
W(PB)
SciTegic.value.DoubleValue
-63.220

@<SCITEGIC>MOL_PROPERTY
W(SA)
SciTegic.value.DoubleValue
2.469

@<SCITEGIC>MOL_PROPERTY
Valence
SciTegic.value.DoubleValue
9.445

@<SCITEGIC>MOL_PROPERTY
Coulomb
SciTegic.value.DoubleValue
0.779

@<SCITEGIC>MOL_PROPERTY
VdW
SciTegic.value.DoubleValue
0.679

@<SCITEGIC>MOL_PROPERTY
VdW6
SciTegic.value.DoubleValue
-10.008

@<SCITEGIC>MOL_PROPERTY
VdW12
SciTegic.value.DoubleValue
10.687

@<SCITEGIC>MOL_PROPERTY
Bond
SciTegic.value.DoubleValue
0.201

@<SCITEGIC>MOL_PROPERTY
Angle
SciTegic.value.DoubleValue
3.198

@<SCITEGIC>MOL_PROPERTY
Pdih
SciTegic.value.DoubleValue
6.039

@<SCITEGIC>MOL_PROPERTY
Idih
SciTegic.value.DoubleValue
0.006

@<SCITEGIC>MOL_PROPERTY
Tether
SciTegic.value.DoubleValue
0.000

@<TRIPOS>MOLECULE
guest-8_vm2.mol2 : vm2 ligand conformer 76
          25          24           1
SMALL
USER_CHARGES
 
@<TRIPOS>ATOM
       1    C1      20.271916   19.968290   26.978143 C.2        1 MOL1         0.6168
       2    O1      21.202452   19.812868   27.744114 O.co2      1 MOL1        -0.6703
       3    O2      19.231744   20.516415   27.285303 O.co2      1 MOL1        -0.6703
       4    C2      20.408023   19.423994   25.560744 C.3        1 MOL1        -0.1963
       5    H1      21.465381   19.476794   25.275370 H          1 MOL1         0.0750
       6    H2      19.851703   20.092905   24.894579 H          1 MOL1         0.0750
       7    C3      19.887027   17.971098   25.423405 C.3        1 MOL1        -0.1860
       8    H3      20.363282   17.351841   26.196151 H          1 MOL1         0.0752
       9    H4      18.809184   17.952341   25.635944 H          1 MOL1         0.0752
      10    C4      20.155075   17.324178   24.041196 C.3        1 MOL1        -0.1858
      11    H5      19.785546   16.290412   24.082730 H          1 MOL1         0.0752
      12    H6      21.236547   17.247293   23.863780 H          1 MOL1         0.0752
      13    C5      19.464378   18.036188   22.850496 C.3        1 MOL1        -0.1858
      14    H7      19.140386   17.273384   22.129294 H          1 MOL1         0.0752
      15    H8      18.550571   18.541462   23.191955 H          1 MOL1         0.0752
      16    C6      20.388785   19.033538   22.112719 C.3        1 MOL1        -0.1858
      17    H9      21.267189   18.498447   21.726841 H          1 MOL1         0.0752
      18    H10     20.764704   19.793382   22.807836 H          1 MOL1         0.0752
      19    C7      19.659578   19.729366   20.944248 C.3        1 MOL1        -0.1834
      20    H11     19.290748   18.975083   20.235424 H          1 MOL1         0.0752
      21    H12     18.780099   20.267028   21.324876 H          1 MOL1         0.0752
      22    C8      20.584024   20.718065   20.205632 C.3        1 MOL1        -0.2849
      23    H13     21.457817   20.201295   19.787553 H          1 MOL1         0.0764
      24    H14     20.049559   21.203422   19.378698 H          1 MOL1         0.0764
      25    H15     20.942261   21.502906   20.884652 H          1 MOL1         0.0764
@<TRIPOS>BOND
    1     1     2    1
    2     1     3    2
    3     1     4    1
    4     4     5    1
    5     4     6    1
    6     4     7    1
    7     7     8    1
    8     7     9    1
    9     7    10    1
   10    10    11    1
   11    10    12    1
   12    10    13    1
   13    13    14    1
   14    13    15    1
   15    13    16    1
   16    16    17    1
   17    16    18    1
   18    16    19    1
   19    19    20    1
   20    19    21    1
   21    19    22    1
   22    22    23    1
   23    22    24    1
   24    22    25    1
@<TRIPOS>SUBSTRUCTURE
       1 MOL1            1 RESIDUE      1      MOL     
@<SCITEGIC>MOL_PROPERTY
VM2 Rank
SciTegic.value.IntegerValue
76

@<SCITEGIC>MOL_PROPERTY
Conf_Id
SciTegic.value.IntegerValue
934

@<SCITEGIC>MOL_PROPERTY
Probability
SciTegic.value.DoubleValue
0.05

@<SCITEGIC>MOL_PROPERTY
Sum Probability
SciTegic.value.DoubleValue
99.08

@<SCITEGIC>MOL_PROPERTY
Delta G
SciTegic.value.DoubleValue
3.722

@<SCITEGIC>MOL_PROPERTY
G
SciTegic.value.DoubleValue
-4.240

@<SCITEGIC>MOL_PROPERTY
E
SciTegic.value.DoubleValue
-29.021

@<SCITEGIC>MOL_PROPERTY
-TS
SciTegic.value.DoubleValue
24.781

@<SCITEGIC>MOL_PROPERTY
U+W
SciTegic.value.DoubleValue
-49.589

@<SCITEGIC>MOL_PROPERTY
U
SciTegic.value.DoubleValue
10.016

@<SCITEGIC>MOL_PROPERTY
W
SciTegic.value.DoubleValue
-59.605

@<SCITEGIC>MOL_PROPERTY
W(PB)
SciTegic.value.DoubleValue
-62.067

@<SCITEGIC>MOL_PROPERTY
W(SA)
SciTegic.value.DoubleValue
2.462

@<SCITEGIC>MOL_PROPERTY
Valence
SciTegic.value.DoubleValue
10.523

@<SCITEGIC>MOL_PROPERTY
Coulomb
SciTegic.value.DoubleValue
-1.441

@<SCITEGIC>MOL_PROPERTY
VdW
SciTegic.value.DoubleValue
0.934

@<SCITEGIC>MOL_PROPERTY
VdW6
SciTegic.value.DoubleValue
-9.399

@<SCITEGIC>MOL_PROPERTY
VdW12
SciTegic.value.DoubleValue
10.333

@<SCITEGIC>MOL_PROPERTY
Bond
SciTegic.value.DoubleValue
0.199

@<SCITEGIC>MOL_PROPERTY
Angle
SciTegic.value.DoubleValue
2.988

@<SCITEGIC>MOL_PROPERTY
Pdih
SciTegic.value.DoubleValue
7.335

@<SCITEGIC>MOL_PROPERTY
Idih
SciTegic.value.DoubleValue
0.001

@<SCITEGIC>MOL_PROPERTY
Tether
SciTegic.value.DoubleValue
0.000

@<TRIPOS>MOLECULE
guest-8_vm2.mol2 : vm2 ligand conformer 77
          25          24           1
SMALL
USER_CHARGES
 
@<TRIPOS>ATOM
       1    C1      20.392945   19.481317   27.136492 C.2        1 MOL1         0.6168
       2    O1      21.428908   20.116056   27.162228 O.co2      1 MOL1        -0.6703
       3    O2      20.001752   18.793973   28.059222 O.co2      1 MOL1        -0.6703
       4    C2      19.547265   19.533630   25.869257 C.3        1 MOL1        -0.1963
       5    H1      19.671452   20.528245   25.426276 H          1 MOL1         0.0750
       6    H2      18.494124   19.434178   26.157642 H          1 MOL1         0.0750
       7    C3      19.928822   18.431246   24.847742 C.3        1 MOL1        -0.1860
       8    H3      20.976484   18.558582   24.544542 H          1 MOL1         0.0752
       9    H4      19.873240   17.453686   25.346107 H          1 MOL1         0.0752
      10    C4      19.012257   18.401823   23.598867 C.3        1 MOL1        -0.1858
      11    H5      17.984639   18.181221   23.917895 H          1 MOL1         0.0752
      12    H6      19.311214   17.561781   22.958208 H          1 MOL1         0.0752
      13    C5      19.001001   19.705914   22.758640 C.3        1 MOL1        -0.1858
      14    H7      18.328268   19.567560   21.902265 H          1 MOL1         0.0752
      15    H8      18.553261   20.514465   23.350845 H          1 MOL1         0.0752
      16    C6      20.389251   20.172910   22.247025 C.3        1 MOL1        -0.1858
      17    H9      21.016938   20.450104   23.104220 H          1 MOL1         0.0752
      18    H10     20.256492   21.095220   21.665577 H          1 MOL1         0.0752
      19    C7      21.151577   19.141350   21.379278 C.3        1 MOL1        -0.1834
      20    H11     22.127423   19.566072   21.106867 H          1 MOL1         0.0752
      21    H12     21.366023   18.238599   21.966362 H          1 MOL1         0.0752
      22    C8      20.399223   18.755781   20.087249 C.3        1 MOL1        -0.2849
      23    H13     20.157921   19.646352   19.492620 H          1 MOL1         0.0764
      24    H14     21.015107   18.091328   19.467646 H          1 MOL1         0.0764
      25    H15     19.464035   18.228222   20.313063 H          1 MOL1         0.0764
@<TRIPOS>BOND
    1     1     2    1
    2     1     3    2
    3     1     4    1
    4     4     5    1
    5     4     6    1
    6     4     7    1
    7     7     8    1
    8     7     9    1
    9     7    10    1
   10    10    11    1
   11    10    12    1
   12    10    13    1
   13    13    14    1
   14    13    15    1
   15    13    16    1
   16    16    17    1
   17    16    18    1
   18    16    19    1
   19    19    20    1
   20    19    21    1
   21    19    22    1
   22    22    23    1
   23    22    24    1
   24    22    25    1
@<TRIPOS>SUBSTRUCTURE
       1 MOL1            1 RESIDUE      1      MOL     
@<SCITEGIC>MOL_PROPERTY
VM2 Rank
SciTegic.value.IntegerValue
77

@<SCITEGIC>MOL_PROPERTY
Conf_Id
SciTegic.value.IntegerValue
1092

@<SCITEGIC>MOL_PROPERTY
Probability
SciTegic.value.DoubleValue
0.05

@<SCITEGIC>MOL_PROPERTY
Sum Probability
SciTegic.value.DoubleValue
99.13

@<SCITEGIC>MOL_PROPERTY
Delta G
SciTegic.value.DoubleValue
3.736

@<SCITEGIC>MOL_PROPERTY
G
SciTegic.value.DoubleValue
-4.226

@<SCITEGIC>MOL_PROPERTY
E
SciTegic.value.DoubleValue
-29.677

@<SCITEGIC>MOL_PROPERTY
-TS
SciTegic.value.DoubleValue
25.450

@<SCITEGIC>MOL_PROPERTY
U+W
SciTegic.value.DoubleValue
-50.244

@<SCITEGIC>MOL_PROPERTY
U
SciTegic.value.DoubleValue
9.324

@<SCITEGIC>MOL_PROPERTY
W
SciTegic.value.DoubleValue
-59.568

@<SCITEGIC>MOL_PROPERTY
W(PB)
SciTegic.value.DoubleValue
-61.965

@<SCITEGIC>MOL_PROPERTY
W(SA)
SciTegic.value.DoubleValue
2.397

@<SCITEGIC>MOL_PROPERTY
Valence
SciTegic.value.DoubleValue
9.360

@<SCITEGIC>MOL_PROPERTY
Coulomb
SciTegic.value.DoubleValue
-0.854

@<SCITEGIC>MOL_PROPERTY
VdW
SciTegic.value.DoubleValue
0.818

@<SCITEGIC>MOL_PROPERTY
VdW6
SciTegic.value.DoubleValue
-11.207

@<SCITEGIC>MOL_PROPERTY
VdW12
SciTegic.value.DoubleValue
12.025

@<SCITEGIC>MOL_PROPERTY
Bond
SciTegic.value.DoubleValue
0.279

@<SCITEGIC>MOL_PROPERTY
Angle
SciTegic.value.DoubleValue
3.545

@<SCITEGIC>MOL_PROPERTY
Pdih
SciTegic.value.DoubleValue
5.535

@<SCITEGIC>MOL_PROPERTY
Idih
SciTegic.value.DoubleValue
0.001

@<SCITEGIC>MOL_PROPERTY
Tether
SciTegic.value.DoubleValue
0.000

@<TRIPOS>MOLECULE
guest-8_vm2.mol2 : vm2 ligand conformer 78
          25          24           1
SMALL
USER_CHARGES
 
@<TRIPOS>ATOM
       1    C1      19.754297   18.823735   27.017392 C.2        1 MOL1         0.6168
       2    O1      20.505505   18.271785   27.797007 O.co2      1 MOL1        -0.6703
       3    O2      18.663401   19.259734   27.328193 O.co2      1 MOL1        -0.6703
       4    C2      20.216127   18.999686   25.575323 C.3        1 MOL1        -0.1963
       5    H1      19.329630   18.938517   24.934160 H          1 MOL1         0.0750
       6    H2      20.867820   18.155481   25.320672 H          1 MOL1         0.0750
       7    C3      20.958288   20.339879   25.342333 C.3        1 MOL1        -0.1860
       8    H3      20.265641   21.172886   25.525658 H          1 MOL1         0.0752
       9    H4      21.757345   20.434476   26.090661 H          1 MOL1         0.0752
      10    C4      21.585262   20.486439   23.932979 C.3        1 MOL1        -0.1858
      11    H5      22.352903   19.715665   23.779343 H          1 MOL1         0.0752
      12    H6      22.117750   21.447008   23.906264 H          1 MOL1         0.0752
      13    C5      20.564238   20.467993   22.767234 C.3        1 MOL1        -0.1858
      14    H7      19.590217   20.840216   23.113169 H          1 MOL1         0.0752
      15    H8      20.904051   21.172518   21.995778 H          1 MOL1         0.0752
      16    C6      20.407697   19.075572   22.111330 C.3        1 MOL1        -0.1858
      17    H9      20.103563   18.332589   22.857882 H          1 MOL1         0.0752
      18    H10     21.379603   18.746947   21.718619 H          1 MOL1         0.0752
      19    C7      19.374153   19.098007   20.965672 C.3        1 MOL1        -0.1834
      20    H11     18.399488   19.425534   21.353225 H          1 MOL1         0.0752
      21    H12     19.678505   19.831158   20.205888 H          1 MOL1         0.0752
      22    C8      19.224032   17.711170   20.308539 C.3        1 MOL1        -0.2849
      23    H13     18.888943   16.964160   21.040024 H          1 MOL1         0.0764
      24    H14     18.485796   17.745527   19.496828 H          1 MOL1         0.0764
      25    H15     20.178323   17.371993   19.884695 H          1 MOL1         0.0764
@<TRIPOS>BOND
    1     1     2    1
    2     1     3    2
    3     1     4    1
    4     4     5    1
    5     4     6    1
    6     4     7    1
    7     7     8    1
    8     7     9    1
    9     7    10    1
   10    10    11    1
   11    10    12    1
   12    10    13    1
   13    13    14    1
   14    13    15    1
   15    13    16    1
   16    16    17    1
   17    16    18    1
   18    16    19    1
   19    19    20    1
   20    19    21    1
   21    19    22    1
   22    22    23    1
   23    22    24    1
   24    22    25    1
@<TRIPOS>SUBSTRUCTURE
       1 MOL1            1 RESIDUE      1      MOL     
@<SCITEGIC>MOL_PROPERTY
VM2 Rank
SciTegic.value.IntegerValue
78

@<SCITEGIC>MOL_PROPERTY
Conf_Id
SciTegic.value.IntegerValue
614

@<SCITEGIC>MOL_PROPERTY
Probability
SciTegic.value.DoubleValue
0.05

@<SCITEGIC>MOL_PROPERTY
Sum Probability
SciTegic.value.DoubleValue
99.17

@<SCITEGIC>MOL_PROPERTY
Delta G
SciTegic.value.DoubleValue
3.762

@<SCITEGIC>MOL_PROPERTY
G
SciTegic.value.DoubleValue
-4.200

@<SCITEGIC>MOL_PROPERTY
E
SciTegic.value.DoubleValue
-28.981

@<SCITEGIC>MOL_PROPERTY
-TS
SciTegic.value.DoubleValue
24.781

@<SCITEGIC>MOL_PROPERTY
U+W
SciTegic.value.DoubleValue
-49.549

@<SCITEGIC>MOL_PROPERTY
U
SciTegic.value.DoubleValue
10.016

@<SCITEGIC>MOL_PROPERTY
W
SciTegic.value.DoubleValue
-59.565

@<SCITEGIC>MOL_PROPERTY
W(PB)
SciTegic.value.DoubleValue
-62.019

@<SCITEGIC>MOL_PROPERTY
W(SA)
SciTegic.value.DoubleValue
2.454

@<SCITEGIC>MOL_PROPERTY
Valence
SciTegic.value.DoubleValue
10.523

@<SCITEGIC>MOL_PROPERTY
Coulomb
SciTegic.value.DoubleValue
-1.441

@<SCITEGIC>MOL_PROPERTY
VdW
SciTegic.value.DoubleValue
0.934

@<SCITEGIC>MOL_PROPERTY
VdW6
SciTegic.value.DoubleValue
-9.398

@<SCITEGIC>MOL_PROPERTY
VdW12
SciTegic.value.DoubleValue
10.333

@<SCITEGIC>MOL_PROPERTY
Bond
SciTegic.value.DoubleValue
0.199

@<SCITEGIC>MOL_PROPERTY
Angle
SciTegic.value.DoubleValue
2.988

@<SCITEGIC>MOL_PROPERTY
Pdih
SciTegic.value.DoubleValue
7.334

@<SCITEGIC>MOL_PROPERTY
Idih
SciTegic.value.DoubleValue
0.001

@<SCITEGIC>MOL_PROPERTY
Tether
SciTegic.value.DoubleValue
0.000

@<TRIPOS>MOLECULE
guest-8_vm2.mol2 : vm2 ligand conformer 79
          25          24           1
SMALL
USER_CHARGES
 
@<TRIPOS>ATOM
       1    C1      20.369865   19.516939   27.135474 C.2        1 MOL1         0.6168
       2    O1      21.372161   20.203661   27.159809 O.co2      1 MOL1        -0.6703
       3    O2      19.559241   19.477147   28.040023 O.co2      1 MOL1        -0.6703
       4    C2      20.104187   18.673803   25.893565 C.3        1 MOL1        -0.1963
       5    H1      19.575036   17.765355   26.204824 H          1 MOL1         0.0750
       6    H2      21.073588   18.363502   25.487501 H          1 MOL1         0.0750
       7    C3      19.281263   19.431033   24.819446 C.3        1 MOL1        -0.1860
       8    H3      18.354069   19.799160   25.279742 H          1 MOL1         0.0752
       9    H4      19.833984   20.322515   24.494635 H          1 MOL1         0.0752
      10    C4      18.911540   18.557343   23.594448 C.3        1 MOL1        -0.1858
      11    H5      18.284261   19.147341   22.913336 H          1 MOL1         0.0752
      12    H6      18.281541   17.722846   23.930835 H          1 MOL1         0.0752
      13    C5      20.118007   17.981363   22.807398 C.3        1 MOL1        -0.1858
      14    H7      20.656922   17.266581   23.442685 H          1 MOL1         0.0752
      15    H8      19.738588   17.390164   21.963826 H          1 MOL1         0.0752
      16    C6      21.125291   19.036545   22.279155 C.3        1 MOL1        -0.1858
      17    H9      21.927169   18.515876   21.738547 H          1 MOL1         0.0752
      18    H10     21.612855   19.530059   23.130234 H          1 MOL1         0.0752
      19    C7      20.518837   20.118249   21.351594 C.3        1 MOL1        -0.1834
      20    H11     19.768093   20.705677   21.896505 H          1 MOL1         0.0752
      21    H12     21.312612   20.824070   21.071217 H          1 MOL1         0.0752
      22    C8      19.892608   19.537917   20.065089 C.3        1 MOL1        -0.2849
      23    H13     19.022835   18.909361   20.293778 H          1 MOL1         0.0764
      24    H14     19.554713   20.346118   19.403759 H          1 MOL1         0.0764
      25    H15     20.621417   18.930590   19.512894 H          1 MOL1         0.0764
@<TRIPOS>BOND
    1     1     2    1
    2     1     3    2
    3     1     4    1
    4     4     5    1
    5     4     6    1
    6     4     7    1
    7     7     8    1
    8     7     9    1
    9     7    10    1
   10    10    11    1
   11    10    12    1
   12    10    13    1
   13    13    14    1
   14    13    15    1
   15    13    16    1
   16    16    17    1
   17    16    18    1
   18    16    19    1
   19    19    20    1
   20    19    21    1
   21    19    22    1
   22    22    23    1
   23    22    24    1
   24    22    25    1
@<TRIPOS>SUBSTRUCTURE
       1 MOL1            1 RESIDUE      1      MOL     
@<SCITEGIC>MOL_PROPERTY
VM2 Rank
SciTegic.value.IntegerValue
79

@<SCITEGIC>MOL_PROPERTY
Conf_Id
SciTegic.value.IntegerValue
537

@<SCITEGIC>MOL_PROPERTY
Probability
SciTegic.value.DoubleValue
0.04

@<SCITEGIC>MOL_PROPERTY
Sum Probability
SciTegic.value.DoubleValue
99.22

@<SCITEGIC>MOL_PROPERTY
Delta G
SciTegic.value.DoubleValue
3.780

@<SCITEGIC>MOL_PROPERTY
G
SciTegic.value.DoubleValue
-4.183

@<SCITEGIC>MOL_PROPERTY
E
SciTegic.value.DoubleValue
-29.633

@<SCITEGIC>MOL_PROPERTY
-TS
SciTegic.value.DoubleValue
25.450

@<SCITEGIC>MOL_PROPERTY
U+W
SciTegic.value.DoubleValue
-50.200

@<SCITEGIC>MOL_PROPERTY
U
SciTegic.value.DoubleValue
9.324

@<SCITEGIC>MOL_PROPERTY
W
SciTegic.value.DoubleValue
-59.524

@<SCITEGIC>MOL_PROPERTY
W(PB)
SciTegic.value.DoubleValue
-61.905

@<SCITEGIC>MOL_PROPERTY
W(SA)
SciTegic.value.DoubleValue
2.381

@<SCITEGIC>MOL_PROPERTY
Valence
SciTegic.value.DoubleValue
9.360

@<SCITEGIC>MOL_PROPERTY
Coulomb
SciTegic.value.DoubleValue
-0.855

@<SCITEGIC>MOL_PROPERTY
VdW
SciTegic.value.DoubleValue
0.818

@<SCITEGIC>MOL_PROPERTY
VdW6
SciTegic.value.DoubleValue
-11.207

@<SCITEGIC>MOL_PROPERTY
VdW12
SciTegic.value.DoubleValue
12.025

@<SCITEGIC>MOL_PROPERTY
Bond
SciTegic.value.DoubleValue
0.279

@<SCITEGIC>MOL_PROPERTY
Angle
SciTegic.value.DoubleValue
3.545

@<SCITEGIC>MOL_PROPERTY
Pdih
SciTegic.value.DoubleValue
5.535

@<SCITEGIC>MOL_PROPERTY
Idih
SciTegic.value.DoubleValue
0.001

@<SCITEGIC>MOL_PROPERTY
Tether
SciTegic.value.DoubleValue
0.000

@<TRIPOS>MOLECULE
guest-8_vm2.mol2 : vm2 ligand conformer 80
          25          24           1
SMALL
USER_CHARGES
 
@<TRIPOS>ATOM
       1    C1      19.551437   19.158665   26.967116 C.2        1 MOL1         0.6168
       2    O1      20.043658   19.019524   28.069473 O.co2      1 MOL1        -0.6703
       3    O2      18.465428   19.668479   26.774119 O.co2      1 MOL1        -0.6703
       4    C2      20.350530   18.686827   25.757802 C.3        1 MOL1        -0.1963
       5    H1      19.639568   18.347645   24.998043 H          1 MOL1         0.0750
       6    H2      20.936011   17.810551   26.060513 H          1 MOL1         0.0750
       7    C3      21.290666   19.785323   25.194543 C.3        1 MOL1        -0.1860
       8    H3      20.714735   20.689360   24.952843 H          1 MOL1         0.0752
       9    H4      21.989790   20.073007   25.991981 H          1 MOL1         0.0752
      10    C4      22.107700   19.323666   23.961104 C.3        1 MOL1        -0.1858
      11    H5      22.282912   18.239989   24.004188 H          1 MOL1         0.0752
      12    H6      23.101519   19.788730   24.015768 H          1 MOL1         0.0752
      13    C5      21.488448   19.708236   22.593881 C.3        1 MOL1        -0.1858
      14    H7      21.410983   20.801797   22.523316 H          1 MOL1         0.0752
      15    H8      22.183556   19.397262   21.802068 H          1 MOL1         0.0752
      16    C6      20.104138   19.078244   22.322041 C.3        1 MOL1        -0.1858
      17    H9      19.369953   19.480895   23.031957 H          1 MOL1         0.0752
      18    H10     20.154687   17.992985   22.484142 H          1 MOL1         0.0752
      19    C7      19.618795   19.362874   20.885015 C.3        1 MOL1        -0.1834
      20    H11     19.570984   20.448002   20.718720 H          1 MOL1         0.0752
      21    H12     20.342082   18.960389   20.162349 H          1 MOL1         0.0752
      22    C8      18.232198   18.742163   20.620905 C.3        1 MOL1        -0.2849
      23    H13     17.481400   19.150730   21.309959 H          1 MOL1         0.0764
      24    H14     17.902248   18.954063   19.595594 H          1 MOL1         0.0764
      25    H15     18.258856   17.652236   20.750128 H          1 MOL1         0.0764
@<TRIPOS>BOND
    1     1     2    1
    2     1     3    2
    3     1     4    1
    4     4     5    1
    5     4     6    1
    6     4     7    1
    7     7     8    1
    8     7     9    1
    9     7    10    1
   10    10    11    1
   11    10    12    1
   12    10    13    1
   13    13    14    1
   14    13    15    1
   15    13    16    1
   16    16    17    1
   17    16    18    1
   18    16    19    1
   19    19    20    1
   20    19    21    1
   21    19    22    1
   22    22    23    1
   23    22    24    1
   24    22    25    1
@<TRIPOS>SUBSTRUCTURE
       1 MOL1            1 RESIDUE      1      MOL     
@<SCITEGIC>MOL_PROPERTY
VM2 Rank
SciTegic.value.IntegerValue
80

@<SCITEGIC>MOL_PROPERTY
Conf_Id
SciTegic.value.IntegerValue
767

@<SCITEGIC>MOL_PROPERTY
Probability
SciTegic.value.DoubleValue
0.04

@<SCITEGIC>MOL_PROPERTY
Sum Probability
SciTegic.value.DoubleValue
99.26

@<SCITEGIC>MOL_PROPERTY
Delta G
SciTegic.value.DoubleValue
3.841

@<SCITEGIC>MOL_PROPERTY
G
SciTegic.value.DoubleValue
-4.121

@<SCITEGIC>MOL_PROPERTY
E
SciTegic.value.DoubleValue
-28.910

@<SCITEGIC>MOL_PROPERTY
-TS
SciTegic.value.DoubleValue
24.789

@<SCITEGIC>MOL_PROPERTY
U+W
SciTegic.value.DoubleValue
-49.477

@<SCITEGIC>MOL_PROPERTY
U
SciTegic.value.DoubleValue
10.344

@<SCITEGIC>MOL_PROPERTY
W
SciTegic.value.DoubleValue
-59.821

@<SCITEGIC>MOL_PROPERTY
W(PB)
SciTegic.value.DoubleValue
-62.262

@<SCITEGIC>MOL_PROPERTY
W(SA)
SciTegic.value.DoubleValue
2.440

@<SCITEGIC>MOL_PROPERTY
Valence
SciTegic.value.DoubleValue
10.527

@<SCITEGIC>MOL_PROPERTY
Coulomb
SciTegic.value.DoubleValue
-1.067

@<SCITEGIC>MOL_PROPERTY
VdW
SciTegic.value.DoubleValue
0.883

@<SCITEGIC>MOL_PROPERTY
VdW6
SciTegic.value.DoubleValue
-9.455

@<SCITEGIC>MOL_PROPERTY
VdW12
SciTegic.value.DoubleValue
10.339

@<SCITEGIC>MOL_PROPERTY
Bond
SciTegic.value.DoubleValue
0.207

@<SCITEGIC>MOL_PROPERTY
Angle
SciTegic.value.DoubleValue
3.010

@<SCITEGIC>MOL_PROPERTY
Pdih
SciTegic.value.DoubleValue
7.310

@<SCITEGIC>MOL_PROPERTY
Idih
SciTegic.value.DoubleValue
0.001

@<SCITEGIC>MOL_PROPERTY
Tether
SciTegic.value.DoubleValue
0.000

@<TRIPOS>MOLECULE
guest-8_vm2.mol2 : vm2 ligand conformer 81
          25          24           1
SMALL
USER_CHARGES
 
@<TRIPOS>ATOM
       1    C1      20.767374   19.235853   26.953163 C.2        1 MOL1         0.6168
       2    O1      21.775202   19.879100   26.736158 O.co2      1 MOL1        -0.6703
       3    O2      20.322342   19.036598   28.066302 O.co2      1 MOL1        -0.6703
       4    C2      20.006939   18.665088   25.761698 C.3        1 MOL1        -0.1963
       5    H1      19.544201   17.722128   26.076314 H          1 MOL1         0.0750
       6    H2      20.737525   18.417668   24.985314 H          1 MOL1         0.0750
       7    C3      18.922632   19.634985   25.221891 C.3        1 MOL1        -0.1860
       8    H3      18.211270   19.832999   26.035648 H          1 MOL1         0.0752
       9    H4      19.373804   20.604298   24.968362 H          1 MOL1         0.0752
      10    C4      18.142394   19.071889   24.006900 C.3        1 MOL1        -0.1858
      11    H5      17.099251   19.407578   24.085105 H          1 MOL1         0.0752
      12    H6      18.106715   17.974817   24.052416 H          1 MOL1         0.0752
      13    C5      18.676379   19.529711   22.626347 C.3        1 MOL1        -0.1858
      14    H7      18.008133   19.132166   21.850297 H          1 MOL1         0.0752
      15    H8      18.613262   20.624184   22.555623 H          1 MOL1         0.0752
      16    C6      20.122618   19.079466   22.321765 C.3        1 MOL1        -0.1858
      17    H9      20.213489   17.996769   22.483406 H          1 MOL1         0.0752
      18    H10     20.816144   19.572785   23.015156 H          1 MOL1         0.0752
      19    C7      20.534826   19.421082   20.874352 C.3        1 MOL1        -0.1834
      20    H11     19.851744   18.929364   20.167957 H          1 MOL1         0.0752
      21    H12     20.441251   20.503308   20.708607 H          1 MOL1         0.0752
      22    C8      21.982295   18.980228   20.577424 C.3        1 MOL1        -0.2849
      23    H13     22.096620   17.895870   20.705678 H          1 MOL1         0.0764
      24    H14     22.259058   19.230587   19.545071 H          1 MOL1         0.0764
      25    H15     22.691122   19.481464   21.249545 H          1 MOL1         0.0764
@<TRIPOS>BOND
    1     1     2    1
    2     1     3    2
    3     1     4    1
    4     4     5    1
    5     4     6    1
    6     4     7    1
    7     7     8    1
    8     7     9    1
    9     7    10    1
   10    10    11    1
   11    10    12    1
   12    10    13    1
   13    13    14    1
   14    13    15    1
   15    13    16    1
   16    16    17    1
   17    16    18    1
   18    16    19    1
   19    19    20    1
   20    19    21    1
   21    19    22    1
   22    22    23    1
   23    22    24    1
   24    22    25    1
@<TRIPOS>SUBSTRUCTURE
       1 MOL1            1 RESIDUE      1      MOL     
@<SCITEGIC>MOL_PROPERTY
VM2 Rank
SciTegic.value.IntegerValue
81

@<SCITEGIC>MOL_PROPERTY
Conf_Id
SciTegic.value.IntegerValue
985

@<SCITEGIC>MOL_PROPERTY
Probability
SciTegic.value.DoubleValue
0.04

@<SCITEGIC>MOL_PROPERTY
Sum Probability
SciTegic.value.DoubleValue
99.30

@<SCITEGIC>MOL_PROPERTY
Delta G
SciTegic.value.DoubleValue
3.860

@<SCITEGIC>MOL_PROPERTY
G
SciTegic.value.DoubleValue
-4.102

@<SCITEGIC>MOL_PROPERTY
E
SciTegic.value.DoubleValue
-28.891

@<SCITEGIC>MOL_PROPERTY
-TS
SciTegic.value.DoubleValue
24.789

@<SCITEGIC>MOL_PROPERTY
U+W
SciTegic.value.DoubleValue
-49.459

@<SCITEGIC>MOL_PROPERTY
U
SciTegic.value.DoubleValue
10.344

@<SCITEGIC>MOL_PROPERTY
W
SciTegic.value.DoubleValue
-59.802

@<SCITEGIC>MOL_PROPERTY
W(PB)
SciTegic.value.DoubleValue
-62.244

@<SCITEGIC>MOL_PROPERTY
W(SA)
SciTegic.value.DoubleValue
2.441

@<SCITEGIC>MOL_PROPERTY
Valence
SciTegic.value.DoubleValue
10.527

@<SCITEGIC>MOL_PROPERTY
Coulomb
SciTegic.value.DoubleValue
-1.067

@<SCITEGIC>MOL_PROPERTY
VdW
SciTegic.value.DoubleValue
0.883

@<SCITEGIC>MOL_PROPERTY
VdW6
SciTegic.value.DoubleValue
-9.455

@<SCITEGIC>MOL_PROPERTY
VdW12
SciTegic.value.DoubleValue
10.339

@<SCITEGIC>MOL_PROPERTY
Bond
SciTegic.value.DoubleValue
0.207

@<SCITEGIC>MOL_PROPERTY
Angle
SciTegic.value.DoubleValue
3.010

@<SCITEGIC>MOL_PROPERTY
Pdih
SciTegic.value.DoubleValue
7.309

@<SCITEGIC>MOL_PROPERTY
Idih
SciTegic.value.DoubleValue
0.001

@<SCITEGIC>MOL_PROPERTY
Tether
SciTegic.value.DoubleValue
0.000

@<TRIPOS>MOLECULE
guest-8_vm2.mol2 : vm2 ligand conformer 82
          25          24           1
SMALL
USER_CHARGES
 
@<TRIPOS>ATOM
       1    C1      20.348114   19.822045   27.087664 C.2        1 MOL1         0.6168
       2    O1      21.474267   20.266051   27.193873 O.co2      1 MOL1        -0.6703
       3    O2      19.369597   20.341330   27.587209 O.co2      1 MOL1        -0.6703
       4    C2      20.149190   18.552786   26.266913 C.3        1 MOL1        -0.1963
       5    H1      19.319851   17.988055   26.709372 H          1 MOL1         0.0750
       6    H2      21.051167   17.937150   26.366963 H          1 MOL1         0.0750
       7    C3      19.863216   18.842404   24.772801 C.3        1 MOL1        -0.1860
       8    H3      18.961541   19.464646   24.689337 H          1 MOL1         0.0752
       9    H4      20.698660   19.423176   24.360219 H          1 MOL1         0.0752
      10    C4      19.677980   17.541205   23.960584 C.3        1 MOL1        -0.1858
      11    H5      18.924087   16.914879   24.456835 H          1 MOL1         0.0752
      12    H6      20.613925   16.966101   23.974424 H          1 MOL1         0.0752
      13    C5      19.233581   17.764744   22.493258 C.3        1 MOL1        -0.1858
      14    H7      19.085811   16.775561   22.038792 H          1 MOL1         0.0752
      15    H8      18.250401   18.254194   22.467494 H          1 MOL1         0.0752
      16    C6      20.247565   18.548834   21.621802 C.3        1 MOL1        -0.1858
      17    H9      20.235979   18.125422   20.608132 H          1 MOL1         0.0752
      18    H10     21.267072   18.400342   22.003161 H          1 MOL1         0.0752
      19    C7      19.926505   20.057734   21.515989 C.3        1 MOL1        -0.1834
      20    H11     18.926653   20.190946   21.080434 H          1 MOL1         0.0752
      21    H12     19.898566   20.517189   22.511380 H          1 MOL1         0.0752
      22    C8      20.962986   20.796867   20.645908 C.3        1 MOL1        -0.2849
      23    H13     20.986708   20.385965   19.628118 H          1 MOL1         0.0764
      24    H14     20.717511   21.864437   20.574860 H          1 MOL1         0.0764
      25    H15     21.969596   20.708477   21.075175 H          1 MOL1         0.0764
@<TRIPOS>BOND
    1     1     2    1
    2     1     3    2
    3     1     4    1
    4     4     5    1
    5     4     6    1
    6     4     7    1
    7     7     8    1
    8     7     9    1
    9     7    10    1
   10    10    11    1
   11    10    12    1
   12    10    13    1
   13    13    14    1
   14    13    15    1
   15    13    16    1
   16    16    17    1
   17    16    18    1
   18    16    19    1
   19    19    20    1
   20    19    21    1
   21    19    22    1
   22    22    23    1
   23    22    24    1
   24    22    25    1
@<TRIPOS>SUBSTRUCTURE
       1 MOL1            1 RESIDUE      1      MOL     
@<SCITEGIC>MOL_PROPERTY
VM2 Rank
SciTegic.value.IntegerValue
82

@<SCITEGIC>MOL_PROPERTY
Conf_Id
SciTegic.value.IntegerValue
7

@<SCITEGIC>MOL_PROPERTY
Probability
SciTegic.value.DoubleValue
0.04

@<SCITEGIC>MOL_PROPERTY
Sum Probability
SciTegic.value.DoubleValue
99.33

@<SCITEGIC>MOL_PROPERTY
Delta G
SciTegic.value.DoubleValue
3.865

@<SCITEGIC>MOL_PROPERTY
G
SciTegic.value.DoubleValue
-4.098

@<SCITEGIC>MOL_PROPERTY
E
SciTegic.value.DoubleValue
-28.879

@<SCITEGIC>MOL_PROPERTY
-TS
SciTegic.value.DoubleValue
24.782

@<SCITEGIC>MOL_PROPERTY
U+W
SciTegic.value.DoubleValue
-49.447

@<SCITEGIC>MOL_PROPERTY
U
SciTegic.value.DoubleValue
10.480

@<SCITEGIC>MOL_PROPERTY
W
SciTegic.value.DoubleValue
-59.927

@<SCITEGIC>MOL_PROPERTY
W(PB)
SciTegic.value.DoubleValue
-62.373

@<SCITEGIC>MOL_PROPERTY
W(SA)
SciTegic.value.DoubleValue
2.445

@<SCITEGIC>MOL_PROPERTY
Valence
SciTegic.value.DoubleValue
10.552

@<SCITEGIC>MOL_PROPERTY
Coulomb
SciTegic.value.DoubleValue
-0.995

@<SCITEGIC>MOL_PROPERTY
VdW
SciTegic.value.DoubleValue
0.923

@<SCITEGIC>MOL_PROPERTY
VdW6
SciTegic.value.DoubleValue
-9.371

@<SCITEGIC>MOL_PROPERTY
VdW12
SciTegic.value.DoubleValue
10.295

@<SCITEGIC>MOL_PROPERTY
Bond
SciTegic.value.DoubleValue
0.194

@<SCITEGIC>MOL_PROPERTY
Angle
SciTegic.value.DoubleValue
2.991

@<SCITEGIC>MOL_PROPERTY
Pdih
SciTegic.value.DoubleValue
7.366

@<SCITEGIC>MOL_PROPERTY
Idih
SciTegic.value.DoubleValue
0.001

@<SCITEGIC>MOL_PROPERTY
Tether
SciTegic.value.DoubleValue
0.000

@<TRIPOS>MOLECULE
guest-8_vm2.mol2 : vm2 ligand conformer 83
          25          24           1
SMALL
USER_CHARGES
 
@<TRIPOS>ATOM
       1    C1      19.742517   19.604664   27.188318 C.2        1 MOL1         0.6168
       2    O1      20.588423   19.958996   27.985562 O.co2      1 MOL1        -0.6703
       3    O2      18.615353   20.057551   27.156525 O.co2      1 MOL1        -0.6703
       4    C2      20.122950   18.547696   26.157670 C.3        1 MOL1        -0.1963
       5    H1      19.227275   17.958089   25.928098 H          1 MOL1         0.0750
       6    H2      20.849635   17.868089   26.618729 H          1 MOL1         0.0750
       7    C3      20.708019   19.156825   24.859810 C.3        1 MOL1        -0.1860
       8    H3      19.976424   19.851035   24.429037 H          1 MOL1         0.0752
       9    H4      21.596479   19.752953   25.109922 H          1 MOL1         0.0752
      10    C4      21.090423   18.063239   23.834445 C.3        1 MOL1        -0.1858
      11    H5      20.225906   17.420305   23.619487 H          1 MOL1         0.0752
      12    H6      21.848109   17.413623   24.293720 H          1 MOL1         0.0752
      13    C5      21.668257   18.635405   22.515163 C.3        1 MOL1        -0.1858
      14    H7      22.160433   19.599824   22.700997 H          1 MOL1         0.0752
      15    H8      22.460750   17.958685   22.167512 H          1 MOL1         0.0752
      16    C6      20.639248   18.776448   21.365250 C.3        1 MOL1        -0.1858
      17    H9      20.223624   17.788496   21.124339 H          1 MOL1         0.0752
      18    H10     21.172417   19.113463   20.465807 H          1 MOL1         0.0752
      19    C7      19.485461   19.759292   21.660980 C.3        1 MOL1        -0.1834
      20    H11     18.867191   19.372020   22.481428 H          1 MOL1         0.0752
      21    H12     19.894308   20.724913   21.988810 H          1 MOL1         0.0752
      22    C8      18.592348   19.973885   20.422276 C.3        1 MOL1        -0.2849
      23    H13     18.150292   19.026052   20.088312 H          1 MOL1         0.0764
      24    H14     17.773222   20.667657   20.651910 H          1 MOL1         0.0764
      25    H15     19.169755   20.395633   19.589195 H          1 MOL1         0.0764
@<TRIPOS>BOND
    1     1     2    1
    2     1     3    2
    3     1     4    1
    4     4     5    1
    5     4     6    1
    6     4     7    1
    7     7     8    1
    8     7     9    1
    9     7    10    1
   10    10    11    1
   11    10    12    1
   12    10    13    1
   13    13    14    1
   14    13    15    1
   15    13    16    1
   16    16    17    1
   17    16    18    1
   18    16    19    1
   19    19    20    1
   20    19    21    1
   21    19    22    1
   22    22    23    1
   23    22    24    1
   24    22    25    1
@<TRIPOS>SUBSTRUCTURE
       1 MOL1            1 RESIDUE      1      MOL     
@<SCITEGIC>MOL_PROPERTY
VM2 Rank
SciTegic.value.IntegerValue
83

@<SCITEGIC>MOL_PROPERTY
Conf_Id
SciTegic.value.IntegerValue
720

@<SCITEGIC>MOL_PROPERTY
Probability
SciTegic.value.DoubleValue
0.04

@<SCITEGIC>MOL_PROPERTY
Sum Probability
SciTegic.value.DoubleValue
99.37

@<SCITEGIC>MOL_PROPERTY
Delta G
SciTegic.value.DoubleValue
3.907

@<SCITEGIC>MOL_PROPERTY
G
SciTegic.value.DoubleValue
-4.055

@<SCITEGIC>MOL_PROPERTY
E
SciTegic.value.DoubleValue
-28.830

@<SCITEGIC>MOL_PROPERTY
-TS
SciTegic.value.DoubleValue
24.775

@<SCITEGIC>MOL_PROPERTY
U+W
SciTegic.value.DoubleValue
-49.398

@<SCITEGIC>MOL_PROPERTY
U
SciTegic.value.DoubleValue
10.175

@<SCITEGIC>MOL_PROPERTY
W
SciTegic.value.DoubleValue
-59.573

@<SCITEGIC>MOL_PROPERTY
W(PB)
SciTegic.value.DoubleValue
-62.030

@<SCITEGIC>MOL_PROPERTY
W(SA)
SciTegic.value.DoubleValue
2.457

@<SCITEGIC>MOL_PROPERTY
Valence
SciTegic.value.DoubleValue
10.554

@<SCITEGIC>MOL_PROPERTY
Coulomb
SciTegic.value.DoubleValue
-1.316

@<SCITEGIC>MOL_PROPERTY
VdW
SciTegic.value.DoubleValue
0.936

@<SCITEGIC>MOL_PROPERTY
VdW6
SciTegic.value.DoubleValue
-9.356

@<SCITEGIC>MOL_PROPERTY
VdW12
SciTegic.value.DoubleValue
10.292

@<SCITEGIC>MOL_PROPERTY
Bond
SciTegic.value.DoubleValue
0.194

@<SCITEGIC>MOL_PROPERTY
Angle
SciTegic.value.DoubleValue
2.996

@<SCITEGIC>MOL_PROPERTY
Pdih
SciTegic.value.DoubleValue
7.363

@<SCITEGIC>MOL_PROPERTY
Idih
SciTegic.value.DoubleValue
0.001

@<SCITEGIC>MOL_PROPERTY
Tether
SciTegic.value.DoubleValue
0.000

@<TRIPOS>MOLECULE
guest-8_vm2.mol2 : vm2 ligand conformer 84
          25          24           1
SMALL
USER_CHARGES
 
@<TRIPOS>ATOM
       1    C1      20.035965   19.048121   27.508430 C.2        1 MOL1         0.6168
       2    O1      21.080381   19.118415   28.125618 O.co2      1 MOL1        -0.6703
       3    O2      18.954309   19.338457   27.980006 O.co2      1 MOL1        -0.6703
       4    C2      20.088176   18.590784   26.055098 C.3        1 MOL1        -0.1963
       5    H1      19.158248   18.053479   25.833447 H          1 MOL1         0.0750
       6    H2      20.910115   17.872004   25.953371 H          1 MOL1         0.0750
       7    C3      20.277748   19.763565   25.061757 C.3        1 MOL1        -0.1860
       8    H3      19.453934   20.480348   25.184620 H          1 MOL1         0.0752
       9    H4      21.205834   20.298901   25.305809 H          1 MOL1         0.0752
      10    C4      20.327325   19.274010   23.598099 C.3        1 MOL1        -0.1858
      11    H5      19.397666   18.737149   23.369616 H          1 MOL1         0.0752
      12    H6      21.154430   18.561438   23.476024 H          1 MOL1         0.0752
      13    C5      20.504322   20.446980   22.608582 C.3        1 MOL1        -0.1858
      14    H7      19.628649   21.107847   22.665796 H          1 MOL1         0.0752
      15    H8      21.366836   21.050846   22.922023 H          1 MOL1         0.0752
      16    C6      20.725905   20.012192   21.137911 C.3        1 MOL1        -0.1858
      17    H9      21.652049   19.427401   21.053244 H          1 MOL1         0.0752
      18    H10     20.893382   20.922747   20.546550 H          1 MOL1         0.0752
      19    C7      19.542801   19.237812   20.504865 C.3        1 MOL1        -0.1834
      20    H11     18.596655   19.533590   20.978752 H          1 MOL1         0.0752
      21    H12     19.458740   19.527885   19.448411 H          1 MOL1         0.0752
      22    C8      19.716067   17.703664   20.565634 C.3        1 MOL1        -0.2849
      23    H13     19.788592   17.341130   21.597211 H          1 MOL1         0.0764
      24    H14     18.861449   17.201961   20.093696 H          1 MOL1         0.0764
      25    H15     20.623927   17.392178   20.032884 H          1 MOL1         0.0764
@<TRIPOS>BOND
    1     1     2    1
    2     1     3    2
    3     1     4    1
    4     4     5    1
    5     4     6    1
    6     4     7    1
    7     7     8    1
    8     7     9    1
    9     7    10    1
   10    10    11    1
   11    10    12    1
   12    10    13    1
   13    13    14    1
   14    13    15    1
   15    13    16    1
   16    16    17    1
   17    16    18    1
   18    16    19    1
   19    19    20    1
   20    19    21    1
   21    19    22    1
   22    22    23    1
   23    22    24    1
   24    22    25    1
@<TRIPOS>SUBSTRUCTURE
       1 MOL1            1 RESIDUE      1      MOL     
@<SCITEGIC>MOL_PROPERTY
VM2 Rank
SciTegic.value.IntegerValue
84

@<SCITEGIC>MOL_PROPERTY
Conf_Id
SciTegic.value.IntegerValue
1106

@<SCITEGIC>MOL_PROPERTY
Probability
SciTegic.value.DoubleValue
0.03

@<SCITEGIC>MOL_PROPERTY
Sum Probability
SciTegic.value.DoubleValue
99.40

@<SCITEGIC>MOL_PROPERTY
Delta G
SciTegic.value.DoubleValue
3.933

@<SCITEGIC>MOL_PROPERTY
G
SciTegic.value.DoubleValue
-4.029

@<SCITEGIC>MOL_PROPERTY
E
SciTegic.value.DoubleValue
-28.762

@<SCITEGIC>MOL_PROPERTY
-TS
SciTegic.value.DoubleValue
24.733

@<SCITEGIC>MOL_PROPERTY
U+W
SciTegic.value.DoubleValue
-49.330

@<SCITEGIC>MOL_PROPERTY
U
SciTegic.value.DoubleValue
9.707

@<SCITEGIC>MOL_PROPERTY
W
SciTegic.value.DoubleValue
-59.037

@<SCITEGIC>MOL_PROPERTY
W(PB)
SciTegic.value.DoubleValue
-61.493

@<SCITEGIC>MOL_PROPERTY
W(SA)
SciTegic.value.DoubleValue
2.456

@<SCITEGIC>MOL_PROPERTY
Valence
SciTegic.value.DoubleValue
10.529

@<SCITEGIC>MOL_PROPERTY
Coulomb
SciTegic.value.DoubleValue
-1.841

@<SCITEGIC>MOL_PROPERTY
VdW
SciTegic.value.DoubleValue
1.019

@<SCITEGIC>MOL_PROPERTY
VdW6
SciTegic.value.DoubleValue
-9.201

@<SCITEGIC>MOL_PROPERTY
VdW12
SciTegic.value.DoubleValue
10.221

@<SCITEGIC>MOL_PROPERTY
Bond
SciTegic.value.DoubleValue
0.191

@<SCITEGIC>MOL_PROPERTY
Angle
SciTegic.value.DoubleValue
3.009

@<SCITEGIC>MOL_PROPERTY
Pdih
SciTegic.value.DoubleValue
7.328

@<SCITEGIC>MOL_PROPERTY
Idih
SciTegic.value.DoubleValue
0.001

@<SCITEGIC>MOL_PROPERTY
Tether
SciTegic.value.DoubleValue
0.000

@<TRIPOS>MOLECULE
guest-8_vm2.mol2 : vm2 ligand conformer 85
          25          24           1
SMALL
USER_CHARGES
 
@<TRIPOS>ATOM
       1    C1      19.896310   19.194522   27.509670 C.2        1 MOL1         0.6168
       2    O1      20.861319   19.384859   28.223252 O.co2      1 MOL1        -0.6703
       3    O2      18.759468   19.489159   27.821809 O.co2      1 MOL1        -0.6703
       4    C2      20.127421   18.570944   26.137876 C.3        1 MOL1        -0.1963
       5    H1      19.245669   17.970501   25.883735 H          1 MOL1         0.0750
       6    H2      20.977364   17.882365   26.215433 H          1 MOL1         0.0750
       7    C3      20.392228   19.625083   25.034812 C.3        1 MOL1        -0.1860
       8    H3      19.537968   20.314037   24.978972 H          1 MOL1         0.0752
       9    H4      21.269744   20.226379   25.310319 H          1 MOL1         0.0752
      10    C4      20.621702   18.969180   23.655942 C.3        1 MOL1        -0.1858
      11    H5      19.747283   18.362020   23.393344 H          1 MOL1         0.0752
      12    H6      21.476083   18.281311   23.716636 H          1 MOL1         0.0752
      13    C5      20.891493   20.025785   22.558884 C.3        1 MOL1        -0.1858
      14    H7      20.070981   20.755225   22.520196 H          1 MOL1         0.0752
      15    H8      21.790180   20.590709   22.841971 H          1 MOL1         0.0752
      16    C6      21.120834   19.409384   21.155360 C.3        1 MOL1        -0.1858
      17    H9      21.549374   18.401999   21.246820 H          1 MOL1         0.0752
      18    H10     21.880990   20.010967   20.638513 H          1 MOL1         0.0752
      19    C7      19.863316   19.372479   20.251928 C.3        1 MOL1        -0.1834
      20    H11     19.493322   20.394947   20.094127 H          1 MOL1         0.0752
      21    H12     20.156228   18.995822   19.262230 H          1 MOL1         0.0752
      22    C8      18.718909   18.492605   20.796467 C.3        1 MOL1        -0.2849
      23    H13     17.913914   18.407805   20.055153 H          1 MOL1         0.0764
      24    H14     19.075413   17.480319   21.026997 H          1 MOL1         0.0764
      25    H15     18.285451   18.926125   21.706301 H          1 MOL1         0.0764
@<TRIPOS>BOND
    1     1     2    1
    2     1     3    2
    3     1     4    1
    4     4     5    1
    5     4     6    1
    6     4     7    1
    7     7     8    1
    8     7     9    1
    9     7    10    1
   10    10    11    1
   11    10    12    1
   12    10    13    1
   13    13    14    1
   14    13    15    1
   15    13    16    1
   16    16    17    1
   17    16    18    1
   18    16    19    1
   19    19    20    1
   20    19    21    1
   21    19    22    1
   22    22    23    1
   23    22    24    1
   24    22    25    1
@<TRIPOS>SUBSTRUCTURE
       1 MOL1            1 RESIDUE      1      MOL     
@<SCITEGIC>MOL_PROPERTY
VM2 Rank
SciTegic.value.IntegerValue
85

@<SCITEGIC>MOL_PROPERTY
Conf_Id
SciTegic.value.IntegerValue
1082

@<SCITEGIC>MOL_PROPERTY
Probability
SciTegic.value.DoubleValue
0.03

@<SCITEGIC>MOL_PROPERTY
Sum Probability
SciTegic.value.DoubleValue
99.44

@<SCITEGIC>MOL_PROPERTY
Delta G
SciTegic.value.DoubleValue
3.935

@<SCITEGIC>MOL_PROPERTY
G
SciTegic.value.DoubleValue
-4.027

@<SCITEGIC>MOL_PROPERTY
E
SciTegic.value.DoubleValue
-28.762

@<SCITEGIC>MOL_PROPERTY
-TS
SciTegic.value.DoubleValue
24.735

@<SCITEGIC>MOL_PROPERTY
U+W
SciTegic.value.DoubleValue
-49.330

@<SCITEGIC>MOL_PROPERTY
U
SciTegic.value.DoubleValue
9.739

@<SCITEGIC>MOL_PROPERTY
W
SciTegic.value.DoubleValue
-59.069

@<SCITEGIC>MOL_PROPERTY
W(PB)
SciTegic.value.DoubleValue
-61.524

@<SCITEGIC>MOL_PROPERTY
W(SA)
SciTegic.value.DoubleValue
2.454

@<SCITEGIC>MOL_PROPERTY
Valence
SciTegic.value.DoubleValue
10.506

@<SCITEGIC>MOL_PROPERTY
Coulomb
SciTegic.value.DoubleValue
-1.761

@<SCITEGIC>MOL_PROPERTY
VdW
SciTegic.value.DoubleValue
0.994

@<SCITEGIC>MOL_PROPERTY
VdW6
SciTegic.value.DoubleValue
-9.209

@<SCITEGIC>MOL_PROPERTY
VdW12
SciTegic.value.DoubleValue
10.203

@<SCITEGIC>MOL_PROPERTY
Bond
SciTegic.value.DoubleValue
0.193

@<SCITEGIC>MOL_PROPERTY
Angle
SciTegic.value.DoubleValue
2.980

@<SCITEGIC>MOL_PROPERTY
Pdih
SciTegic.value.DoubleValue
7.333

@<SCITEGIC>MOL_PROPERTY
Idih
SciTegic.value.DoubleValue
0.001

@<SCITEGIC>MOL_PROPERTY
Tether
SciTegic.value.DoubleValue
0.000

@<TRIPOS>MOLECULE
guest-8_vm2.mol2 : vm2 ligand conformer 86
          25          24           1
SMALL
USER_CHARGES
 
@<TRIPOS>ATOM
       1    C1      19.895628   19.793036   27.092928 C.2        1 MOL1         0.6168
       2    O1      20.811221   20.433751   27.570287 O.co2      1 MOL1        -0.6703
       3    O2      18.724790   20.089803   27.226016 O.co2      1 MOL1        -0.6703
       4    C2      20.235781   18.558313   26.265899 C.3        1 MOL1        -0.1963
       5    H1      19.422160   17.832882   26.385700 H          1 MOL1         0.0750
       6    H2      21.140272   18.104519   26.688345 H          1 MOL1         0.0750
       7    C3      20.448115   18.879889   24.766053 C.3        1 MOL1        -0.1860
       8    H3      19.536183   19.348790   24.373628 H          1 MOL1         0.0752
       9    H4      21.260926   19.611912   24.662852 H          1 MOL1         0.0752
      10    C4      20.779074   17.611764   23.947849 C.3        1 MOL1        -0.1858
      11    H5      19.924678   16.922019   23.982319 H          1 MOL1         0.0752
      12    H6      21.617880   17.087414   24.425726 H          1 MOL1         0.0752
      13    C5      21.157528   17.888025   22.471042 C.3        1 MOL1        -0.1858
      14    H7      22.069365   18.498890   22.423441 H          1 MOL1         0.0752
      15    H8      21.419843   16.925116   22.011854 H          1 MOL1         0.0752
      16    C6      20.032052   18.535032   21.624234 C.3        1 MOL1        -0.1858
      17    H9      19.048849   18.258220   22.028668 H          1 MOL1         0.0752
      18    H10     20.074310   18.115067   20.609944 H          1 MOL1         0.0752
      19    C7      20.155436   20.072407   21.513297 C.3        1 MOL1        -0.1834
      20    H11     20.147429   20.533130   22.508462 H          1 MOL1         0.0752
      21    H12     21.119829   20.331462   21.055044 H          1 MOL1         0.0752
      22    C8      19.013374   20.671980   20.668396 C.3        1 MOL1        -0.2849
      23    H13     19.118945   21.762038   20.593288 H          1 MOL1         0.0764
      24    H14     19.018842   20.259907   19.650818 H          1 MOL1         0.0764
      25    H15     18.036417   20.456528   21.120592 H          1 MOL1         0.0764
@<TRIPOS>BOND
    1     1     2    1
    2     1     3    2
    3     1     4    1
    4     4     5    1
    5     4     6    1
    6     4     7    1
    7     7     8    1
    8     7     9    1
    9     7    10    1
   10    10    11    1
   11    10    12    1
   12    10    13    1
   13    13    14    1
   14    13    15    1
   15    13    16    1
   16    16    17    1
   17    16    18    1
   18    16    19    1
   19    19    20    1
   20    19    21    1
   21    19    22    1
   22    22    23    1
   23    22    24    1
   24    22    25    1
@<TRIPOS>SUBSTRUCTURE
       1 MOL1            1 RESIDUE      1      MOL     
@<SCITEGIC>MOL_PROPERTY
VM2 Rank
SciTegic.value.IntegerValue
86

@<SCITEGIC>MOL_PROPERTY
Conf_Id
SciTegic.value.IntegerValue
802

@<SCITEGIC>MOL_PROPERTY
Probability
SciTegic.value.DoubleValue
0.03

@<SCITEGIC>MOL_PROPERTY
Sum Probability
SciTegic.value.DoubleValue
99.47

@<SCITEGIC>MOL_PROPERTY
Delta G
SciTegic.value.DoubleValue
3.938

@<SCITEGIC>MOL_PROPERTY
G
SciTegic.value.DoubleValue
-4.024

@<SCITEGIC>MOL_PROPERTY
E
SciTegic.value.DoubleValue
-28.806

@<SCITEGIC>MOL_PROPERTY
-TS
SciTegic.value.DoubleValue
24.782

@<SCITEGIC>MOL_PROPERTY
U+W
SciTegic.value.DoubleValue
-49.373

@<SCITEGIC>MOL_PROPERTY
U
SciTegic.value.DoubleValue
10.480

@<SCITEGIC>MOL_PROPERTY
W
SciTegic.value.DoubleValue
-59.854

@<SCITEGIC>MOL_PROPERTY
W(PB)
SciTegic.value.DoubleValue
-62.311

@<SCITEGIC>MOL_PROPERTY
W(SA)
SciTegic.value.DoubleValue
2.457

@<SCITEGIC>MOL_PROPERTY
Valence
SciTegic.value.DoubleValue
10.552

@<SCITEGIC>MOL_PROPERTY
Coulomb
SciTegic.value.DoubleValue
-0.995

@<SCITEGIC>MOL_PROPERTY
VdW
SciTegic.value.DoubleValue
0.923

@<SCITEGIC>MOL_PROPERTY
VdW6
SciTegic.value.DoubleValue
-9.371

@<SCITEGIC>MOL_PROPERTY
VdW12
SciTegic.value.DoubleValue
10.294

@<SCITEGIC>MOL_PROPERTY
Bond
SciTegic.value.DoubleValue
0.194

@<SCITEGIC>MOL_PROPERTY
Angle
SciTegic.value.DoubleValue
2.991

@<SCITEGIC>MOL_PROPERTY
Pdih
SciTegic.value.DoubleValue
7.366

@<SCITEGIC>MOL_PROPERTY
Idih
SciTegic.value.DoubleValue
0.001

@<SCITEGIC>MOL_PROPERTY
Tether
SciTegic.value.DoubleValue
0.000

@<TRIPOS>MOLECULE
guest-8_vm2.mol2 : vm2 ligand conformer 87
          25          24           1
SMALL
USER_CHARGES
 
@<TRIPOS>ATOM
       1    C1      20.526238   19.654805   27.179265 C.2        1 MOL1         0.6168
       2    O1      21.585453   20.247609   27.122143 O.co2      1 MOL1        -0.6703
       3    O2      19.660717   19.899571   27.996374 O.co2      1 MOL1        -0.6703
       4    C2      20.259932   18.556483   26.156076 C.3        1 MOL1        -0.1963
       5    H1      19.636581   17.790493   26.632733 H          1 MOL1         0.0750
       6    H2      21.217904   18.085471   25.905052 H          1 MOL1         0.0750
       7    C3      19.572279   19.084206   24.872943 C.3        1 MOL1        -0.1860
       8    H3      18.621090   19.562616   25.144328 H          1 MOL1         0.0752
       9    H4      20.199327   19.865361   24.426478 H          1 MOL1         0.0752
      10    C4      19.308871   17.949307   23.855026 C.3        1 MOL1        -0.1858
      11    H5      18.650917   17.209106   24.330651 H          1 MOL1         0.0752
      12    H6      20.243096   17.421469   23.619292 H          1 MOL1         0.0752
      13    C5      18.632639   18.441229   22.550229 C.3        1 MOL1        -0.1858
      14    H7      17.925053   17.668524   22.219915 H          1 MOL1         0.0752
      15    H8      18.025987   19.335342   22.748750 H          1 MOL1         0.0752
      16    C6      19.608554   18.710533   21.377148 C.3        1 MOL1        -0.1858
      17    H9      19.016238   18.975582   20.490719 H          1 MOL1         0.0752
      18    H10     20.140980   17.783221   21.125262 H          1 MOL1         0.0752
      19    C7      20.634258   19.832763   21.647698 C.3        1 MOL1        -0.1834
      20    H11     20.113406   20.738941   21.986234 H          1 MOL1         0.0752
      21    H12     21.315509   19.528615   22.453156 H          1 MOL1         0.0752
      22    C8      21.464058   20.157495   20.389098 C.3        1 MOL1        -0.2849
      23    H13     20.818651   20.501065   19.570134 H          1 MOL1         0.0764
      24    H14     22.193255   20.950245   20.600846 H          1 MOL1         0.0764
      25    H15     22.015392   19.273165   20.043665 H          1 MOL1         0.0764
@<TRIPOS>BOND
    1     1     2    1
    2     1     3    2
    3     1     4    1
    4     4     5    1
    5     4     6    1
    6     4     7    1
    7     7     8    1
    8     7     9    1
    9     7    10    1
   10    10    11    1
   11    10    12    1
   12    10    13    1
   13    13    14    1
   14    13    15    1
   15    13    16    1
   16    16    17    1
   17    16    18    1
   18    16    19    1
   19    19    20    1
   20    19    21    1
   21    19    22    1
   22    22    23    1
   23    22    24    1
   24    22    25    1
@<TRIPOS>SUBSTRUCTURE
       1 MOL1            1 RESIDUE      1      MOL     
@<SCITEGIC>MOL_PROPERTY
VM2 Rank
SciTegic.value.IntegerValue
87

@<SCITEGIC>MOL_PROPERTY
Conf_Id
SciTegic.value.IntegerValue
717

@<SCITEGIC>MOL_PROPERTY
Probability
SciTegic.value.DoubleValue
0.03

@<SCITEGIC>MOL_PROPERTY
Sum Probability
SciTegic.value.DoubleValue
99.51

@<SCITEGIC>MOL_PROPERTY
Delta G
SciTegic.value.DoubleValue
3.946

@<SCITEGIC>MOL_PROPERTY
G
SciTegic.value.DoubleValue
-4.017

@<SCITEGIC>MOL_PROPERTY
E
SciTegic.value.DoubleValue
-28.792

@<SCITEGIC>MOL_PROPERTY
-TS
SciTegic.value.DoubleValue
24.775

@<SCITEGIC>MOL_PROPERTY
U+W
SciTegic.value.DoubleValue
-49.359

@<SCITEGIC>MOL_PROPERTY
U
SciTegic.value.DoubleValue
10.175

@<SCITEGIC>MOL_PROPERTY
W
SciTegic.value.DoubleValue
-59.534

@<SCITEGIC>MOL_PROPERTY
W(PB)
SciTegic.value.DoubleValue
-62.004

@<SCITEGIC>MOL_PROPERTY
W(SA)
SciTegic.value.DoubleValue
2.470

@<SCITEGIC>MOL_PROPERTY
Valence
SciTegic.value.DoubleValue
10.554

@<SCITEGIC>MOL_PROPERTY
Coulomb
SciTegic.value.DoubleValue
-1.316

@<SCITEGIC>MOL_PROPERTY
VdW
SciTegic.value.DoubleValue
0.936

@<SCITEGIC>MOL_PROPERTY
VdW6
SciTegic.value.DoubleValue
-9.356

@<SCITEGIC>MOL_PROPERTY
VdW12
SciTegic.value.DoubleValue
10.292

@<SCITEGIC>MOL_PROPERTY
Bond
SciTegic.value.DoubleValue
0.194

@<SCITEGIC>MOL_PROPERTY
Angle
SciTegic.value.DoubleValue
2.996

@<SCITEGIC>MOL_PROPERTY
Pdih
SciTegic.value.DoubleValue
7.363

@<SCITEGIC>MOL_PROPERTY
Idih
SciTegic.value.DoubleValue
0.001

@<SCITEGIC>MOL_PROPERTY
Tether
SciTegic.value.DoubleValue
0.000

@<TRIPOS>MOLECULE
guest-8_vm2.mol2 : vm2 ligand conformer 88
          25          24           1
SMALL
USER_CHARGES
 
@<TRIPOS>ATOM
       1    C1      20.433363   19.228795   27.503440 C.2        1 MOL1         0.6168
       2    O1      21.530489   19.665885   27.789650 O.co2      1 MOL1        -0.6703
       3    O2      19.468749   19.296083   28.239416 O.co2      1 MOL1        -0.6703
       4    C2      20.251687   18.578873   26.136445 C.3        1 MOL1        -0.1963
       5    H1      19.497960   17.788167   26.232574 H          1 MOL1         0.0750
       6    H2      21.196389   18.094737   25.861210 H          1 MOL1         0.0750
       7    C3      19.829977   19.589238   25.041272 C.3        1 MOL1        -0.1860
       8    H3      18.889847   20.074773   25.337761 H          1 MOL1         0.0752
       9    H4      20.588423   20.380910   24.966753 H          1 MOL1         0.0752
      10    C4      19.653893   18.907431   23.667123 C.3        1 MOL1        -0.1858
      11    H5      18.895372   18.116763   23.746516 H          1 MOL1         0.0752
      12    H6      20.592026   18.415785   23.383568 H          1 MOL1         0.0752
      13    C5      19.226933   19.919565   22.578076 C.3        1 MOL1        -0.1858
      14    H7      18.270491   20.366154   22.882534 H          1 MOL1         0.0752
      15    H8      19.947007   20.747286   22.521600 H          1 MOL1         0.0752
      16    C6      19.045617   19.276907   21.179311 C.3        1 MOL1        -0.1858
      17    H9      18.203484   19.776200   20.680926 H          1 MOL1         0.0752
      18    H10     18.750822   18.223360   21.279161 H          1 MOL1         0.0752
      19    C7      20.276542   19.398780   20.247176 C.3        1 MOL1        -0.1834
      20    H11     20.011259   18.986369   19.263960 H          1 MOL1         0.0752
      21    H12     20.509784   20.459748   20.082303 H          1 MOL1         0.0752
      22    C8      21.535750   18.672442   20.764091 C.3        1 MOL1        -0.2849
      23    H13     21.316288   17.623372   21.001267 H          1 MOL1         0.0764
      24    H14     22.327802   18.689634   20.004410 H          1 MOL1         0.0764
      25    H15     21.931264   19.158929   21.664383 H          1 MOL1         0.0764
@<TRIPOS>BOND
    1     1     2    1
    2     1     3    2
    3     1     4    1
    4     4     5    1
    5     4     6    1
    6     4     7    1
    7     7     8    1
    8     7     9    1
    9     7    10    1
   10    10    11    1
   11    10    12    1
   12    10    13    1
   13    13    14    1
   14    13    15    1
   15    13    16    1
   16    16    17    1
   17    16    18    1
   18    16    19    1
   19    19    20    1
   20    19    21    1
   21    19    22    1
   22    22    23    1
   23    22    24    1
   24    22    25    1
@<TRIPOS>SUBSTRUCTURE
       1 MOL1            1 RESIDUE      1      MOL     
@<SCITEGIC>MOL_PROPERTY
VM2 Rank
SciTegic.value.IntegerValue
88

@<SCITEGIC>MOL_PROPERTY
Conf_Id
SciTegic.value.IntegerValue
521

@<SCITEGIC>MOL_PROPERTY
Probability
SciTegic.value.DoubleValue
0.03

@<SCITEGIC>MOL_PROPERTY
Sum Probability
SciTegic.value.DoubleValue
99.54

@<SCITEGIC>MOL_PROPERTY
Delta G
SciTegic.value.DoubleValue
3.949

@<SCITEGIC>MOL_PROPERTY
G
SciTegic.value.DoubleValue
-4.013

@<SCITEGIC>MOL_PROPERTY
E
SciTegic.value.DoubleValue
-28.749

@<SCITEGIC>MOL_PROPERTY
-TS
SciTegic.value.DoubleValue
24.736

@<SCITEGIC>MOL_PROPERTY
U+W
SciTegic.value.DoubleValue
-49.317

@<SCITEGIC>MOL_PROPERTY
U
SciTegic.value.DoubleValue
9.739

@<SCITEGIC>MOL_PROPERTY
W
SciTegic.value.DoubleValue
-59.056

@<SCITEGIC>MOL_PROPERTY
W(PB)
SciTegic.value.DoubleValue
-61.488

@<SCITEGIC>MOL_PROPERTY
W(SA)
SciTegic.value.DoubleValue
2.432

@<SCITEGIC>MOL_PROPERTY
Valence
SciTegic.value.DoubleValue
10.506

@<SCITEGIC>MOL_PROPERTY
Coulomb
SciTegic.value.DoubleValue
-1.761

@<SCITEGIC>MOL_PROPERTY
VdW
SciTegic.value.DoubleValue
0.994

@<SCITEGIC>MOL_PROPERTY
VdW6
SciTegic.value.DoubleValue
-9.209

@<SCITEGIC>MOL_PROPERTY
VdW12
SciTegic.value.DoubleValue
10.204

@<SCITEGIC>MOL_PROPERTY
Bond
SciTegic.value.DoubleValue
0.193

@<SCITEGIC>MOL_PROPERTY
Angle
SciTegic.value.DoubleValue
2.979

@<SCITEGIC>MOL_PROPERTY
Pdih
SciTegic.value.DoubleValue
7.333

@<SCITEGIC>MOL_PROPERTY
Idih
SciTegic.value.DoubleValue
0.001

@<SCITEGIC>MOL_PROPERTY
Tether
SciTegic.value.DoubleValue
0.000

@<TRIPOS>MOLECULE
guest-8_vm2.mol2 : vm2 ligand conformer 89
          25          24           1
SMALL
USER_CHARGES
 
@<TRIPOS>ATOM
       1    C1      20.174993   19.657135   27.490340 C.2        1 MOL1         0.6168
       2    O1      21.093601   19.175957   28.123816 O.co2      1 MOL1        -0.6703
       3    O2      19.080471   19.891101   27.963564 O.co2      1 MOL1        -0.6703
       4    C2      20.401435   19.963791   26.014284 C.3        1 MOL1        -0.1963
       5    H1      21.452287   20.248332   25.882675 H          1 MOL1         0.0750
       6    H2      19.793455   20.837568   25.750725 H          1 MOL1         0.0750
       7    C3      20.051150   18.770706   25.091284 C.3        1 MOL1        -0.1860
       8    H3      20.658616   17.900766   25.377078 H          1 MOL1         0.0752
       9    H4      18.999745   18.489969   25.243848 H          1 MOL1         0.0752
      10    C4      20.289074   19.106901   23.603069 C.3        1 MOL1        -0.1858
      11    H5      21.341644   19.382417   23.451575 H          1 MOL1         0.0752
      12    H6      19.681094   19.979803   23.332713 H          1 MOL1         0.0752
      13    C5      19.927376   17.919331   22.683732 C.3        1 MOL1        -0.1858
      14    H7      20.446824   17.020040   23.041893 H          1 MOL1         0.0752
      15    H8      18.852594   17.707771   22.766851 H          1 MOL1         0.0752
      16    C6      20.296611   18.131242   21.193841 C.3        1 MOL1        -0.1858
      17    H9      20.045134   17.206316   20.657056 H          1 MOL1         0.0752
      18    H10     21.383549   18.250868   21.088254 H          1 MOL1         0.0752
      19    C7      19.558177   19.304854   20.502826 C.3        1 MOL1        -0.1834
      20    H11     19.343230   19.020784   19.463400 H          1 MOL1         0.0752
      21    H12     18.583455   19.475714   20.980288 H          1 MOL1         0.0752
      22    C8      20.380111   20.612982   20.479245 C.3        1 MOL1        -0.2849
      23    H13     19.821537   21.408006   19.968625 H          1 MOL1         0.0764
      24    H14     20.615695   20.965883   21.489593 H          1 MOL1         0.0764
      25    H15     21.326428   20.469507   19.941699 H          1 MOL1         0.0764
@<TRIPOS>BOND
    1     1     2    1
    2     1     3    2
    3     1     4    1
    4     4     5    1
    5     4     6    1
    6     4     7    1
    7     7     8    1
    8     7     9    1
    9     7    10    1
   10    10    11    1
   11    10    12    1
   12    10    13    1
   13    13    14    1
   14    13    15    1
   15    13    16    1
   16    16    17    1
   17    16    18    1
   18    16    19    1
   19    19    20    1
   20    19    21    1
   21    19    22    1
   22    22    23    1
   23    22    24    1
   24    22    25    1
@<TRIPOS>SUBSTRUCTURE
       1 MOL1            1 RESIDUE      1      MOL     
@<SCITEGIC>MOL_PROPERTY
VM2 Rank
SciTegic.value.IntegerValue
89

@<SCITEGIC>MOL_PROPERTY
Conf_Id
SciTegic.value.IntegerValue
251

@<SCITEGIC>MOL_PROPERTY
Probability
SciTegic.value.DoubleValue
0.03

@<SCITEGIC>MOL_PROPERTY
Sum Probability
SciTegic.value.DoubleValue
99.57

@<SCITEGIC>MOL_PROPERTY
Delta G
SciTegic.value.DoubleValue
3.951

@<SCITEGIC>MOL_PROPERTY
G
SciTegic.value.DoubleValue
-4.012

@<SCITEGIC>MOL_PROPERTY
E
SciTegic.value.DoubleValue
-28.745

@<SCITEGIC>MOL_PROPERTY
-TS
SciTegic.value.DoubleValue
24.733

@<SCITEGIC>MOL_PROPERTY
U+W
SciTegic.value.DoubleValue
-49.313

@<SCITEGIC>MOL_PROPERTY
U
SciTegic.value.DoubleValue
9.708

@<SCITEGIC>MOL_PROPERTY
W
SciTegic.value.DoubleValue
-59.020

@<SCITEGIC>MOL_PROPERTY
W(PB)
SciTegic.value.DoubleValue
-61.481

@<SCITEGIC>MOL_PROPERTY
W(SA)
SciTegic.value.DoubleValue
2.461

@<SCITEGIC>MOL_PROPERTY
Valence
SciTegic.value.DoubleValue
10.529

@<SCITEGIC>MOL_PROPERTY
Coulomb
SciTegic.value.DoubleValue
-1.840

@<SCITEGIC>MOL_PROPERTY
VdW
SciTegic.value.DoubleValue
1.019

@<SCITEGIC>MOL_PROPERTY
VdW6
SciTegic.value.DoubleValue
-9.202

@<SCITEGIC>MOL_PROPERTY
VdW12
SciTegic.value.DoubleValue
10.221

@<SCITEGIC>MOL_PROPERTY
Bond
SciTegic.value.DoubleValue
0.191

@<SCITEGIC>MOL_PROPERTY
Angle
SciTegic.value.DoubleValue
3.009

@<SCITEGIC>MOL_PROPERTY
Pdih
SciTegic.value.DoubleValue
7.327

@<SCITEGIC>MOL_PROPERTY
Idih
SciTegic.value.DoubleValue
0.001

@<SCITEGIC>MOL_PROPERTY
Tether
SciTegic.value.DoubleValue
0.000

@<TRIPOS>MOLECULE
guest-8_vm2.mol2 : vm2 ligand conformer 90
          25          24           1
SMALL
USER_CHARGES
 
@<TRIPOS>ATOM
       1    C1      19.922818   19.368523   27.142501 C.2        1 MOL1         0.6168
       2    O1      20.892539   19.094884   27.822176 O.co2      1 MOL1        -0.6703
       3    O2      18.819956   18.890031   27.320954 O.co2      1 MOL1        -0.6703
       4    C2      20.097114   20.384681   26.017257 C.3        1 MOL1        -0.1963
       5    H1      20.665013   21.229422   26.424442 H          1 MOL1         0.0750
       6    H2      19.109500   20.771137   25.737838 H          1 MOL1         0.0750
       7    C3      20.825840   19.825543   24.767609 C.3        1 MOL1        -0.1860
       8    H3      21.036679   20.659289   24.085783 H          1 MOL1         0.0752
       9    H4      21.796396   19.407171   25.067977 H          1 MOL1         0.0752
      10    C4      19.996284   18.748327   24.028577 C.3        1 MOL1        -0.1858
      11    H5      19.038627   19.175229   23.703226 H          1 MOL1         0.0752
      12    H6      19.744905   17.941898   24.730835 H          1 MOL1         0.0752
      13    C5      20.734759   18.123419   22.818282 C.3        1 MOL1        -0.1858
      14    H7      21.643272   17.622210   23.178634 H          1 MOL1         0.0752
      15    H8      20.107345   17.329487   22.392391 H          1 MOL1         0.0752
      16    C6      21.130645   19.118615   21.695424 C.3        1 MOL1        -0.1858
      17    H9      21.623527   18.558162   20.889542 H          1 MOL1         0.0752
      18    H10     21.888362   19.815157   22.077317 H          1 MOL1         0.0752
      19    C7      19.959215   19.932180   21.092121 C.3        1 MOL1        -0.1834
      20    H11     19.505371   20.569314   21.862735 H          1 MOL1         0.0752
      21    H12     20.362042   20.615110   20.331702 H          1 MOL1         0.0752
      22    C8      18.873830   19.047796   20.441100 C.3        1 MOL1        -0.2849
      23    H13     18.369001   18.422147   21.187884 H          1 MOL1         0.0764
      24    H14     18.110316   19.670146   19.956901 H          1 MOL1         0.0764
      25    H15     19.309033   18.390030   19.677638 H          1 MOL1         0.0764
@<TRIPOS>BOND
    1     1     2    1
    2     1     3    2
    3     1     4    1
    4     4     5    1
    5     4     6    1
    6     4     7    1
    7     7     8    1
    8     7     9    1
    9     7    10    1
   10    10    11    1
   11    10    12    1
   12    10    13    1
   13    13    14    1
   14    13    15    1
   15    13    16    1
   16    16    17    1
   17    16    18    1
   18    16    19    1
   19    19    20    1
   20    19    21    1
   21    19    22    1
   22    22    23    1
   23    22    24    1
   24    22    25    1
@<TRIPOS>SUBSTRUCTURE
       1 MOL1            1 RESIDUE      1      MOL     
@<SCITEGIC>MOL_PROPERTY
VM2 Rank
SciTegic.value.IntegerValue
90

@<SCITEGIC>MOL_PROPERTY
Conf_Id
SciTegic.value.IntegerValue
280

@<SCITEGIC>MOL_PROPERTY
Probability
SciTegic.value.DoubleValue
0.02

@<SCITEGIC>MOL_PROPERTY
Sum Probability
SciTegic.value.DoubleValue
99.59

@<SCITEGIC>MOL_PROPERTY
Delta G
SciTegic.value.DoubleValue
4.271

@<SCITEGIC>MOL_PROPERTY
G
SciTegic.value.DoubleValue
-3.691

@<SCITEGIC>MOL_PROPERTY
E
SciTegic.value.DoubleValue
-29.153

@<SCITEGIC>MOL_PROPERTY
-TS
SciTegic.value.DoubleValue
25.462

@<SCITEGIC>MOL_PROPERTY
U+W
SciTegic.value.DoubleValue
-49.720

@<SCITEGIC>MOL_PROPERTY
U
SciTegic.value.DoubleValue
10.166

@<SCITEGIC>MOL_PROPERTY
W
SciTegic.value.DoubleValue
-59.886

@<SCITEGIC>MOL_PROPERTY
W(PB)
SciTegic.value.DoubleValue
-62.280

@<SCITEGIC>MOL_PROPERTY
W(SA)
SciTegic.value.DoubleValue
2.394

@<SCITEGIC>MOL_PROPERTY
Valence
SciTegic.value.DoubleValue
9.218

@<SCITEGIC>MOL_PROPERTY
Coulomb
SciTegic.value.DoubleValue
0.150

@<SCITEGIC>MOL_PROPERTY
VdW
SciTegic.value.DoubleValue
0.798

@<SCITEGIC>MOL_PROPERTY
VdW6
SciTegic.value.DoubleValue
-11.032

@<SCITEGIC>MOL_PROPERTY
VdW12
SciTegic.value.DoubleValue
11.831

@<SCITEGIC>MOL_PROPERTY
Bond
SciTegic.value.DoubleValue
0.256

@<SCITEGIC>MOL_PROPERTY
Angle
SciTegic.value.DoubleValue
3.425

@<SCITEGIC>MOL_PROPERTY
Pdih
SciTegic.value.DoubleValue
5.536

@<SCITEGIC>MOL_PROPERTY
Idih
SciTegic.value.DoubleValue
0.001

@<SCITEGIC>MOL_PROPERTY
Tether
SciTegic.value.DoubleValue
0.000

@<TRIPOS>MOLECULE
guest-8_vm2.mol2 : vm2 ligand conformer 91
          25          24           1
SMALL
USER_CHARGES
 
@<TRIPOS>ATOM
       1    C1      19.951496   19.791714   26.708026 C.2        1 MOL1         0.6168
       2    O1      20.208179   19.332485   27.803859 O.co2      1 MOL1        -0.6703
       3    O2      18.871248   20.264552   26.413900 O.co2      1 MOL1        -0.6703
       4    C2      21.056619   19.799164   25.655577 C.3        1 MOL1        -0.1963
       5    H1      21.947455   20.236480   26.121025 H          1 MOL1         0.0750
       6    H2      20.765325   20.476981   24.844935 H          1 MOL1         0.0750
       7    C3      21.406854   18.394029   25.094050 C.3        1 MOL1        -0.1860
       8    H3      22.254491   18.482435   24.402256 H          1 MOL1         0.0752
       9    H4      21.757979   17.761775   25.921159 H          1 MOL1         0.0752
      10    C4      20.229043   17.675447   24.386179 C.3        1 MOL1        -0.1858
      11    H5      19.439576   17.471444   25.122502 H          1 MOL1         0.0752
      12    H6      20.574470   16.693707   24.034882 H          1 MOL1         0.0752
      13    C5      19.607429   18.445387   23.194124 C.3        1 MOL1        -0.1858
      14    H7      18.783442   17.844962   22.785786 H          1 MOL1         0.0752
      15    H8      19.154159   19.376777   23.556716 H          1 MOL1         0.0752
      16    C6      20.619461   18.748041   22.062138 C.3        1 MOL1        -0.1858
      17    H9      21.134452   17.818257   21.785048 H          1 MOL1         0.0752
      18    H10     21.392521   19.438418   22.424036 H          1 MOL1         0.0752
      19    C7      19.961112   19.344244   20.796304 C.3        1 MOL1        -0.1834
      20    H11     20.721313   19.423077   20.006989 H          1 MOL1         0.0752
      21    H12     19.191777   18.656668   20.418719 H          1 MOL1         0.0752
      22    C8      19.341560   20.738937   21.031843 C.3        1 MOL1        -0.2849
      23    H13     20.086968   21.436680   21.435094 H          1 MOL1         0.0764
      24    H14     18.963177   21.155457   20.089425 H          1 MOL1         0.0764
      25    H15     18.500732   20.689795   21.735024 H          1 MOL1         0.0764
@<TRIPOS>BOND
    1     1     2    1
    2     1     3    2
    3     1     4    1
    4     4     5    1
    5     4     6    1
    6     4     7    1
    7     7     8    1
    8     7     9    1
    9     7    10    1
   10    10    11    1
   11    10    12    1
   12    10    13    1
   13    13    14    1
   14    13    15    1
   15    13    16    1
   16    16    17    1
   17    16    18    1
   18    16    19    1
   19    19    20    1
   20    19    21    1
   21    19    22    1
   22    22    23    1
   23    22    24    1
   24    22    25    1
@<TRIPOS>SUBSTRUCTURE
       1 MOL1            1 RESIDUE      1      MOL     
@<SCITEGIC>MOL_PROPERTY
VM2 Rank
SciTegic.value.IntegerValue
91

@<SCITEGIC>MOL_PROPERTY
Conf_Id
SciTegic.value.IntegerValue
843

@<SCITEGIC>MOL_PROPERTY
Probability
SciTegic.value.DoubleValue
0.02

@<SCITEGIC>MOL_PROPERTY
Sum Probability
SciTegic.value.DoubleValue
99.61

@<SCITEGIC>MOL_PROPERTY
Delta G
SciTegic.value.DoubleValue
4.301

@<SCITEGIC>MOL_PROPERTY
G
SciTegic.value.DoubleValue
-3.661

@<SCITEGIC>MOL_PROPERTY
E
SciTegic.value.DoubleValue
-29.034

@<SCITEGIC>MOL_PROPERTY
-TS
SciTegic.value.DoubleValue
25.373

@<SCITEGIC>MOL_PROPERTY
U+W
SciTegic.value.DoubleValue
-49.602

@<SCITEGIC>MOL_PROPERTY
U
SciTegic.value.DoubleValue
10.962

@<SCITEGIC>MOL_PROPERTY
W
SciTegic.value.DoubleValue
-60.564

@<SCITEGIC>MOL_PROPERTY
W(PB)
SciTegic.value.DoubleValue
-62.939

@<SCITEGIC>MOL_PROPERTY
W(SA)
SciTegic.value.DoubleValue
2.375

@<SCITEGIC>MOL_PROPERTY
Valence
SciTegic.value.DoubleValue
9.203

@<SCITEGIC>MOL_PROPERTY
Coulomb
SciTegic.value.DoubleValue
1.167

@<SCITEGIC>MOL_PROPERTY
VdW
SciTegic.value.DoubleValue
0.592

@<SCITEGIC>MOL_PROPERTY
VdW6
SciTegic.value.DoubleValue
-11.372

@<SCITEGIC>MOL_PROPERTY
VdW12
SciTegic.value.DoubleValue
11.964

@<SCITEGIC>MOL_PROPERTY
Bond
SciTegic.value.DoubleValue
0.260

@<SCITEGIC>MOL_PROPERTY
Angle
SciTegic.value.DoubleValue
3.321

@<SCITEGIC>MOL_PROPERTY
Pdih
SciTegic.value.DoubleValue
5.621

@<SCITEGIC>MOL_PROPERTY
Idih
SciTegic.value.DoubleValue
0.001

@<SCITEGIC>MOL_PROPERTY
Tether
SciTegic.value.DoubleValue
0.000

@<TRIPOS>MOLECULE
guest-8_vm2.mol2 : vm2 ligand conformer 92
          25          24           1
SMALL
USER_CHARGES
 
@<TRIPOS>ATOM
       1    C1      20.029706   19.141832   26.983927 C.2        1 MOL1         0.6168
       2    O1      20.898946   19.388630   27.797004 O.co2      1 MOL1        -0.6703
       3    O2      18.876070   19.505488   27.102339 O.co2      1 MOL1        -0.6703
       4    C2      20.403855   18.305390   25.763573 C.3        1 MOL1        -0.1963
       5    H1      19.484017   17.936885   25.295349 H          1 MOL1         0.0750
       6    H2      20.943664   17.422829   26.125772 H          1 MOL1         0.0750
       7    C3      21.282587   19.055974   24.726013 C.3        1 MOL1        -0.1860
       8    H3      22.220254   19.358906   25.211871 H          1 MOL1         0.0752
       9    H4      21.568734   18.362317   23.924798 H          1 MOL1         0.0752
      10    C4      20.613145   20.312370   24.111855 C.3        1 MOL1        -0.1858
      11    H5      21.319132   20.788073   23.418693 H          1 MOL1         0.0752
      12    H6      20.439683   21.049421   24.907819 H          1 MOL1         0.0752
      13    C5      19.270298   20.053086   23.379593 C.3        1 MOL1        -0.1858
      14    H7      18.514810   19.739198   24.112332 H          1 MOL1         0.0752
      15    H8      18.906134   21.004439   22.968914 H          1 MOL1         0.0752
      16    C6      19.329659   19.006241   22.238788 C.3        1 MOL1        -0.1858
      17    H9      18.319773   18.890945   21.822391 H          1 MOL1         0.0752
      18    H10     19.604830   18.024245   22.645111 H          1 MOL1         0.0752
      19    C7      20.300779   19.391291   21.100152 C.3        1 MOL1        -0.1834
      20    H11     20.048252   20.390757   20.720237 H          1 MOL1         0.0752
      21    H12     21.328343   19.444098   21.483473 H          1 MOL1         0.0752
      22    C8      20.247955   18.373697   19.942756 C.3        1 MOL1        -0.2849
      23    H13     19.240192   18.322004   19.510299 H          1 MOL1         0.0764
      24    H14     20.945030   18.659497   19.144390 H          1 MOL1         0.0764
      25    H15     20.523984   17.369631   20.290589 H          1 MOL1         0.0764
@<TRIPOS>BOND
    1     1     2    1
    2     1     3    2
    3     1     4    1
    4     4     5    1
    5     4     6    1
    6     4     7    1
    7     7     8    1
    8     7     9    1
    9     7    10    1
   10    10    11    1
   11    10    12    1
   12    10    13    1
   13    13    14    1
   14    13    15    1
   15    13    16    1
   16    16    17    1
   17    16    18    1
   18    16    19    1
   19    19    20    1
   20    19    21    1
   21    19    22    1
   22    22    23    1
   23    22    24    1
   24    22    25    1
@<TRIPOS>SUBSTRUCTURE
       1 MOL1            1 RESIDUE      1      MOL     
@<SCITEGIC>MOL_PROPERTY
VM2 Rank
SciTegic.value.IntegerValue
92

@<SCITEGIC>MOL_PROPERTY
Conf_Id
SciTegic.value.IntegerValue
436

@<SCITEGIC>MOL_PROPERTY
Probability
SciTegic.value.DoubleValue
0.02

@<SCITEGIC>MOL_PROPERTY
Sum Probability
SciTegic.value.DoubleValue
99.63

@<SCITEGIC>MOL_PROPERTY
Delta G
SciTegic.value.DoubleValue
4.313

@<SCITEGIC>MOL_PROPERTY
G
SciTegic.value.DoubleValue
-3.650

@<SCITEGIC>MOL_PROPERTY
E
SciTegic.value.DoubleValue
-29.213

@<SCITEGIC>MOL_PROPERTY
-TS
SciTegic.value.DoubleValue
25.564

@<SCITEGIC>MOL_PROPERTY
U+W
SciTegic.value.DoubleValue
-49.781

@<SCITEGIC>MOL_PROPERTY
U
SciTegic.value.DoubleValue
10.242

@<SCITEGIC>MOL_PROPERTY
W
SciTegic.value.DoubleValue
-60.023

@<SCITEGIC>MOL_PROPERTY
W(PB)
SciTegic.value.DoubleValue
-62.388

@<SCITEGIC>MOL_PROPERTY
W(SA)
SciTegic.value.DoubleValue
2.365

@<SCITEGIC>MOL_PROPERTY
Valence
SciTegic.value.DoubleValue
9.192

@<SCITEGIC>MOL_PROPERTY
Coulomb
SciTegic.value.DoubleValue
0.540

@<SCITEGIC>MOL_PROPERTY
VdW
SciTegic.value.DoubleValue
0.509

@<SCITEGIC>MOL_PROPERTY
VdW6
SciTegic.value.DoubleValue
-11.540

@<SCITEGIC>MOL_PROPERTY
VdW12
SciTegic.value.DoubleValue
12.049

@<SCITEGIC>MOL_PROPERTY
Bond
SciTegic.value.DoubleValue
0.268

@<SCITEGIC>MOL_PROPERTY
Angle
SciTegic.value.DoubleValue
3.482

@<SCITEGIC>MOL_PROPERTY
Pdih
SciTegic.value.DoubleValue
5.442

@<SCITEGIC>MOL_PROPERTY
Idih
SciTegic.value.DoubleValue
0.001

@<SCITEGIC>MOL_PROPERTY
Tether
SciTegic.value.DoubleValue
0.000

@<TRIPOS>MOLECULE
guest-8_vm2.mol2 : vm2 ligand conformer 93
          25          24           1
SMALL
USER_CHARGES
 
@<TRIPOS>ATOM
       1    C1      19.650224   19.251998   26.727749 C.2        1 MOL1         0.6168
       2    O1      20.209397   19.334416   27.803927 O.co2      1 MOL1        -0.6703
       3    O2      18.671513   19.906843   26.427207 O.co2      1 MOL1        -0.6703
       4    C2      20.191688   18.250081   25.711884 C.3        1 MOL1        -0.1963
       5    H1      19.437178   18.098372   24.931419 H          1 MOL1         0.0750
       6    H2      20.302047   17.289428   26.228066 H          1 MOL1         0.0750
       7    C3      21.553205   18.656326   25.084499 C.3        1 MOL1        -0.1860
       8    H3      22.300877   18.734286   25.885783 H          1 MOL1         0.0752
       9    H4      21.901816   17.850952   24.425162 H          1 MOL1         0.0752
      10    C4      21.523799   19.994748   24.301911 C.3        1 MOL1        -0.1858
      11    H5      22.529253   20.195230   23.907688 H          1 MOL1         0.0752
      12    H6      21.305359   20.813590   25.001073 H          1 MOL1         0.0752
      13    C5      20.505762   20.054556   23.135620 C.3        1 MOL1        -0.1858
      14    H7      19.486821   19.972734   23.534970 H          1 MOL1         0.0752
      15    H8      20.570971   21.046841   22.669440 H          1 MOL1         0.0752
      16    C6      20.745036   18.972951   22.053920 C.3        1 MOL1        -0.1858
      17    H9      20.575050   17.974346   22.477130 H          1 MOL1         0.0752
      18    H10     21.797691   19.006102   21.741972 H          1 MOL1         0.0752
      19    C7      19.853300   19.150902   20.803179 C.3        1 MOL1        -0.1834
      20    H11     20.022400   20.143995   20.364570 H          1 MOL1         0.0752
      21    H12     20.161193   18.419488   20.043328 H          1 MOL1         0.0752
      22    C8      18.349076   18.961181   21.096103 C.3        1 MOL1        -0.2849
      23    H13     18.159568   17.984559   21.560201 H          1 MOL1         0.0764
      24    H14     17.970932   19.740896   21.769098 H          1 MOL1         0.0764
      25    H15     17.767132   19.012872   20.166864 H          1 MOL1         0.0764
@<TRIPOS>BOND
    1     1     2    1
    2     1     3    2
    3     1     4    1
    4     4     5    1
    5     4     6    1
    6     4     7    1
    7     7     8    1
    8     7     9    1
    9     7    10    1
   10    10    11    1
   11    10    12    1
   12    10    13    1
   13    13    14    1
   14    13    15    1
   15    13    16    1
   16    16    17    1
   17    16    18    1
   18    16    19    1
   19    19    20    1
   20    19    21    1
   21    19    22    1
   22    22    23    1
   23    22    24    1
   24    22    25    1
@<TRIPOS>SUBSTRUCTURE
       1 MOL1            1 RESIDUE      1      MOL     
@<SCITEGIC>MOL_PROPERTY
VM2 Rank
SciTegic.value.IntegerValue
93

@<SCITEGIC>MOL_PROPERTY
Conf_Id
SciTegic.value.IntegerValue
724

@<SCITEGIC>MOL_PROPERTY
Probability
SciTegic.value.DoubleValue
0.02

@<SCITEGIC>MOL_PROPERTY
Sum Probability
SciTegic.value.DoubleValue
99.65

@<SCITEGIC>MOL_PROPERTY
Delta G
SciTegic.value.DoubleValue
4.339

@<SCITEGIC>MOL_PROPERTY
G
SciTegic.value.DoubleValue
-3.623

@<SCITEGIC>MOL_PROPERTY
E
SciTegic.value.DoubleValue
-28.996

@<SCITEGIC>MOL_PROPERTY
-TS
SciTegic.value.DoubleValue
25.373

@<SCITEGIC>MOL_PROPERTY
U+W
SciTegic.value.DoubleValue
-49.563

@<SCITEGIC>MOL_PROPERTY
U
SciTegic.value.DoubleValue
10.961

@<SCITEGIC>MOL_PROPERTY
W
SciTegic.value.DoubleValue
-60.524

@<SCITEGIC>MOL_PROPERTY
W(PB)
SciTegic.value.DoubleValue
-62.909

@<SCITEGIC>MOL_PROPERTY
W(SA)
SciTegic.value.DoubleValue
2.385

@<SCITEGIC>MOL_PROPERTY
Valence
SciTegic.value.DoubleValue
9.203

@<SCITEGIC>MOL_PROPERTY
Coulomb
SciTegic.value.DoubleValue
1.166

@<SCITEGIC>MOL_PROPERTY
VdW
SciTegic.value.DoubleValue
0.592

@<SCITEGIC>MOL_PROPERTY
VdW6
SciTegic.value.DoubleValue
-11.371

@<SCITEGIC>MOL_PROPERTY
VdW12
SciTegic.value.DoubleValue
11.963

@<SCITEGIC>MOL_PROPERTY
Bond
SciTegic.value.DoubleValue
0.260

@<SCITEGIC>MOL_PROPERTY
Angle
SciTegic.value.DoubleValue
3.321

@<SCITEGIC>MOL_PROPERTY
Pdih
SciTegic.value.DoubleValue
5.622

@<SCITEGIC>MOL_PROPERTY
Idih
SciTegic.value.DoubleValue
0.001

@<SCITEGIC>MOL_PROPERTY
Tether
SciTegic.value.DoubleValue
0.000

@<TRIPOS>MOLECULE
guest-8_vm2.mol2 : vm2 ligand conformer 94
          25          24           1
SMALL
USER_CHARGES
 
@<TRIPOS>ATOM
       1    C1      20.536449   18.918120   26.724264 C.2        1 MOL1         0.6168
       2    O1      21.731270   19.139512   26.747221 O.co2      1 MOL1        -0.6703
       3    O2      20.049424   17.828513   26.953818 O.co2      1 MOL1        -0.6703
       4    C2      19.595975   20.079830   26.415575 C.3        1 MOL1        -0.1963
       5    H1      19.929486   20.938869   27.009476 H          1 MOL1         0.0750
       6    H2      18.590718   19.820265   26.768863 H          1 MOL1         0.0750
       7    C3      19.553150   20.471933   24.915977 C.3        1 MOL1        -0.1860
       8    H3      18.963472   21.391439   24.802526 H          1 MOL1         0.0752
       9    H4      20.572573   20.704169   24.580229 H          1 MOL1         0.0752
      10    C4      18.941047   19.360195   24.030839 C.3        1 MOL1        -0.1858
      11    H5      17.951368   19.093498   24.425674 H          1 MOL1         0.0752
      12    H6      19.549826   18.448956   24.100192 H          1 MOL1         0.0752
      13    C5      18.781430   19.772418   22.545948 C.3        1 MOL1        -0.1858
      14    H7      18.291889   18.954090   22.001836 H          1 MOL1         0.0752
      15    H8      18.090094   20.623854   22.486626 H          1 MOL1         0.0752
      16    C6      20.098891   20.152701   21.819591 C.3        1 MOL1        -0.1858
      17    H9      20.503358   21.073616   22.259530 H          1 MOL1         0.0752
      18    H10     19.863927   20.401362   20.775839 H          1 MOL1         0.0752
      19    C7      21.199402   19.063263   21.837341 C.3        1 MOL1        -0.1834
      20    H11     22.087160   19.453531   21.321184 H          1 MOL1         0.0752
      21    H12     21.513406   18.860050   22.870105 H          1 MOL1         0.0752
      22    C8      20.765963   17.747517   21.155424 C.3        1 MOL1        -0.2849
      23    H13     19.946236   17.266298   21.703570 H          1 MOL1         0.0764
      24    H14     20.432058   17.930100   20.125823 H          1 MOL1         0.0764
      25    H15     21.603623   17.039174   21.119606 H          1 MOL1         0.0764
@<TRIPOS>BOND
    1     1     2    1
    2     1     3    2
    3     1     4    1
    4     4     5    1
    5     4     6    1
    6     4     7    1
    7     7     8    1
    8     7     9    1
    9     7    10    1
   10    10    11    1
   11    10    12    1
   12    10    13    1
   13    13    14    1
   14    13    15    1
   15    13    16    1
   16    16    17    1
   17    16    18    1
   18    16    19    1
   19    19    20    1
   20    19    21    1
   21    19    22    1
   22    22    23    1
   23    22    24    1
   24    22    25    1
@<TRIPOS>SUBSTRUCTURE
       1 MOL1            1 RESIDUE      1      MOL     
@<SCITEGIC>MOL_PROPERTY
VM2 Rank
SciTegic.value.IntegerValue
94

@<SCITEGIC>MOL_PROPERTY
Conf_Id
SciTegic.value.IntegerValue
502

@<SCITEGIC>MOL_PROPERTY
Probability
SciTegic.value.DoubleValue
0.01

@<SCITEGIC>MOL_PROPERTY
Sum Probability
SciTegic.value.DoubleValue
99.66

@<SCITEGIC>MOL_PROPERTY
Delta G
SciTegic.value.DoubleValue
4.429

@<SCITEGIC>MOL_PROPERTY
G
SciTegic.value.DoubleValue
-3.533

@<SCITEGIC>MOL_PROPERTY
E
SciTegic.value.DoubleValue
-29.008

@<SCITEGIC>MOL_PROPERTY
-TS
SciTegic.value.DoubleValue
25.474

@<SCITEGIC>MOL_PROPERTY
U+W
SciTegic.value.DoubleValue
-49.575

@<SCITEGIC>MOL_PROPERTY
U
SciTegic.value.DoubleValue
11.216

@<SCITEGIC>MOL_PROPERTY
W
SciTegic.value.DoubleValue
-60.791

@<SCITEGIC>MOL_PROPERTY
W(PB)
SciTegic.value.DoubleValue
-63.164

@<SCITEGIC>MOL_PROPERTY
W(SA)
SciTegic.value.DoubleValue
2.373

@<SCITEGIC>MOL_PROPERTY
Valence
SciTegic.value.DoubleValue
9.147

@<SCITEGIC>MOL_PROPERTY
Coulomb
SciTegic.value.DoubleValue
1.469

@<SCITEGIC>MOL_PROPERTY
VdW
SciTegic.value.DoubleValue
0.600

@<SCITEGIC>MOL_PROPERTY
VdW6
SciTegic.value.DoubleValue
-11.294

@<SCITEGIC>MOL_PROPERTY
VdW12
SciTegic.value.DoubleValue
11.894

@<SCITEGIC>MOL_PROPERTY
Bond
SciTegic.value.DoubleValue
0.253

@<SCITEGIC>MOL_PROPERTY
Angle
SciTegic.value.DoubleValue
3.362

@<SCITEGIC>MOL_PROPERTY
Pdih
SciTegic.value.DoubleValue
5.531

@<SCITEGIC>MOL_PROPERTY
Idih
SciTegic.value.DoubleValue
0.001

@<SCITEGIC>MOL_PROPERTY
Tether
SciTegic.value.DoubleValue
0.000

@<TRIPOS>MOLECULE
guest-8_vm2.mol2 : vm2 ligand conformer 95
          25          24           1
SMALL
USER_CHARGES
 
@<TRIPOS>ATOM
       1    C1      20.389448   19.652226   26.857444 C.2        1 MOL1         0.6168
       2    O1      21.460488   20.150084   26.570999 O.co2      1 MOL1        -0.6703
       3    O2      20.182852   19.052935   27.894637 O.co2      1 MOL1        -0.6703
       4    C2      19.231161   19.811134   25.876526 C.3        1 MOL1        -0.1963
       5    H1      19.492360   20.585839   25.146523 H          1 MOL1         0.0750
       6    H2      18.374444   20.194297   26.442851 H          1 MOL1         0.0750
       7    C3      18.825150   18.496301   25.156469 C.3        1 MOL1        -0.1860
       8    H3      18.504918   17.765987   25.912293 H          1 MOL1         0.0752
       9    H4      17.944103   18.684129   24.529521 H          1 MOL1         0.0752
      10    C4      19.950785   17.860367   24.299958 C.3        1 MOL1        -0.1858
      11    H5      19.565619   16.941751   23.836967 H          1 MOL1         0.0752
      12    H6      20.767007   17.543480   24.963616 H          1 MOL1         0.0752
      13    C5      20.540701   18.770467   23.193058 C.3        1 MOL1        -0.1858
      14    H7      21.022941   19.646324   23.647045 H          1 MOL1         0.0752
      15    H8      21.339674   18.211788   22.689720 H          1 MOL1         0.0752
      16    C6      19.495739   19.229351   22.146299 C.3        1 MOL1        -0.1858
      17    H9      18.701855   19.795816   22.649470 H          1 MOL1         0.0752
      18    H10     19.014973   18.351964   21.692942 H          1 MOL1         0.0752
      19    C7      20.091410   20.126049   21.035763 C.3        1 MOL1        -0.1834
      20    H11     19.268757   20.518647   20.422341 H          1 MOL1         0.0752
      21    H12     20.584431   20.997821   21.487711 H          1 MOL1         0.0752
      22    C8      21.085266   19.385086   20.114846 C.3        1 MOL1        -0.2849
      23    H13     21.986076   19.078063   20.660451 H          1 MOL1         0.0764
      24    H14     20.623995   18.489494   19.678699 H          1 MOL1         0.0764
      25    H15     21.403103   20.036706   19.290683 H          1 MOL1         0.0764
@<TRIPOS>BOND
    1     1     2    1
    2     1     3    2
    3     1     4    1
    4     4     5    1
    5     4     6    1
    6     4     7    1
    7     7     8    1
    8     7     9    1
    9     7    10    1
   10    10    11    1
   11    10    12    1
   12    10    13    1
   13    13    14    1
   14    13    15    1
   15    13    16    1
   16    16    17    1
   17    16    18    1
   18    16    19    1
   19    19    20    1
   20    19    21    1
   21    19    22    1
   22    22    23    1
   23    22    24    1
   24    22    25    1
@<TRIPOS>SUBSTRUCTURE
       1 MOL1            1 RESIDUE      1      MOL     
@<SCITEGIC>MOL_PROPERTY
VM2 Rank
SciTegic.value.IntegerValue
95

@<SCITEGIC>MOL_PROPERTY
Conf_Id
SciTegic.value.IntegerValue
505

@<SCITEGIC>MOL_PROPERTY
Probability
SciTegic.value.DoubleValue
0.01

@<SCITEGIC>MOL_PROPERTY
Sum Probability
SciTegic.value.DoubleValue
99.68

@<SCITEGIC>MOL_PROPERTY
Delta G
SciTegic.value.DoubleValue
4.446

@<SCITEGIC>MOL_PROPERTY
G
SciTegic.value.DoubleValue
-3.517

@<SCITEGIC>MOL_PROPERTY
E
SciTegic.value.DoubleValue
-28.840

@<SCITEGIC>MOL_PROPERTY
-TS
SciTegic.value.DoubleValue
25.324

@<SCITEGIC>MOL_PROPERTY
U+W
SciTegic.value.DoubleValue
-49.408

@<SCITEGIC>MOL_PROPERTY
U
SciTegic.value.DoubleValue
10.879

@<SCITEGIC>MOL_PROPERTY
W
SciTegic.value.DoubleValue
-60.287

@<SCITEGIC>MOL_PROPERTY
W(PB)
SciTegic.value.DoubleValue
-62.677

@<SCITEGIC>MOL_PROPERTY
W(SA)
SciTegic.value.DoubleValue
2.390

@<SCITEGIC>MOL_PROPERTY
Valence
SciTegic.value.DoubleValue
9.320

@<SCITEGIC>MOL_PROPERTY
Coulomb
SciTegic.value.DoubleValue
0.828

@<SCITEGIC>MOL_PROPERTY
VdW
SciTegic.value.DoubleValue
0.731

@<SCITEGIC>MOL_PROPERTY
VdW6
SciTegic.value.DoubleValue
-11.182

@<SCITEGIC>MOL_PROPERTY
VdW12
SciTegic.value.DoubleValue
11.912

@<SCITEGIC>MOL_PROPERTY
Bond
SciTegic.value.DoubleValue
0.267

@<SCITEGIC>MOL_PROPERTY
Angle
SciTegic.value.DoubleValue
3.459

@<SCITEGIC>MOL_PROPERTY
Pdih
SciTegic.value.DoubleValue
5.593

@<SCITEGIC>MOL_PROPERTY
Idih
SciTegic.value.DoubleValue
0.001

@<SCITEGIC>MOL_PROPERTY
Tether
SciTegic.value.DoubleValue
0.000

@<TRIPOS>MOLECULE
guest-8_vm2.mol2 : vm2 ligand conformer 96
          25          24           1
SMALL
USER_CHARGES
 
@<TRIPOS>ATOM
       1    C1      20.295643   19.158742   26.980826 C.2        1 MOL1         0.6168
       2    O1      21.396287   19.665881   27.073214 O.co2      1 MOL1        -0.6703
       3    O2      19.421032   19.294599   27.814001 O.co2      1 MOL1        -0.6703
       4    C2      20.002608   18.279822   25.768178 C.3        1 MOL1        -0.1963
       5    H1      19.587535   17.336469   26.141403 H          1 MOL1         0.0750
       6    H2      20.950734   18.030238   25.278386 H          1 MOL1         0.0750
       7    C3      19.012172   18.911407   24.752198 C.3        1 MOL1        -0.1860
       8    H3      18.797977   18.185912   23.956734 H          1 MOL1         0.0752
       9    H4      18.055068   19.093668   25.259917 H          1 MOL1         0.0752
      10    C4      19.502580   20.241675   24.124697 C.3        1 MOL1        -0.1858
      11    H5      19.599425   20.995914   24.917564 H          1 MOL1         0.0752
      12    H6      18.726220   20.623015   23.448657 H          1 MOL1         0.0752
      13    C5      20.850272   20.153722   23.361372 C.3        1 MOL1        -0.1858
      14    H7      21.081306   21.142979   22.943834 H          1 MOL1         0.0752
      15    H8      21.656112   19.939240   24.076085 H          1 MOL1         0.0752
      16    C6      20.897941   19.106142   22.220692 C.3        1 MOL1        -0.1858
      17    H9      20.759003   18.097767   22.631799 H          1 MOL1         0.0752
      18    H10     21.904436   19.119288   21.780980 H          1 MOL1         0.0752
      19    C7      19.859854   19.363216   21.105290 C.3        1 MOL1        -0.1834
      20    H11     18.842996   19.285862   21.512264 H          1 MOL1         0.0752
      21    H12     19.974769   20.386064   20.721086 H          1 MOL1         0.0752
      22    C8      20.014612   18.358795   19.945532 C.3        1 MOL1        -0.2849
      23    H13     19.876257   17.328354   20.298206 H          1 MOL1         0.0764
      24    H14     19.268696   18.552667   19.163864 H          1 MOL1         0.0764
      25    H15     21.010549   18.434683   19.489873 H          1 MOL1         0.0764
@<TRIPOS>BOND
    1     1     2    1
    2     1     3    2
    3     1     4    1
    4     4     5    1
    5     4     6    1
    6     4     7    1
    7     7     8    1
    8     7     9    1
    9     7    10    1
   10    10    11    1
   11    10    12    1
   12    10    13    1
   13    13    14    1
   14    13    15    1
   15    13    16    1
   16    16    17    1
   17    16    18    1
   18    16    19    1
   19    19    20    1
   20    19    21    1
   21    19    22    1
   22    22    23    1
   23    22    24    1
   24    22    25    1
@<TRIPOS>SUBSTRUCTURE
       1 MOL1            1 RESIDUE      1      MOL     
@<SCITEGIC>MOL_PROPERTY
VM2 Rank
SciTegic.value.IntegerValue
96

@<SCITEGIC>MOL_PROPERTY
Conf_Id
SciTegic.value.IntegerValue
556

@<SCITEGIC>MOL_PROPERTY
Probability
SciTegic.value.DoubleValue
0.01

@<SCITEGIC>MOL_PROPERTY
Sum Probability
SciTegic.value.DoubleValue
99.69

@<SCITEGIC>MOL_PROPERTY
Delta G
SciTegic.value.DoubleValue
4.467

@<SCITEGIC>MOL_PROPERTY
G
SciTegic.value.DoubleValue
-3.495

@<SCITEGIC>MOL_PROPERTY
E
SciTegic.value.DoubleValue
-29.059

@<SCITEGIC>MOL_PROPERTY
-TS
SciTegic.value.DoubleValue
25.564

@<SCITEGIC>MOL_PROPERTY
U+W
SciTegic.value.DoubleValue
-49.627

@<SCITEGIC>MOL_PROPERTY
U
SciTegic.value.DoubleValue
10.242

@<SCITEGIC>MOL_PROPERTY
W
SciTegic.value.DoubleValue
-59.869

@<SCITEGIC>MOL_PROPERTY
W(PB)
SciTegic.value.DoubleValue
-62.253

@<SCITEGIC>MOL_PROPERTY
W(SA)
SciTegic.value.DoubleValue
2.384

@<SCITEGIC>MOL_PROPERTY
Valence
SciTegic.value.DoubleValue
9.192

@<SCITEGIC>MOL_PROPERTY
Coulomb
SciTegic.value.DoubleValue
0.540

@<SCITEGIC>MOL_PROPERTY
VdW
SciTegic.value.DoubleValue
0.509

@<SCITEGIC>MOL_PROPERTY
VdW6
SciTegic.value.DoubleValue
-11.540

@<SCITEGIC>MOL_PROPERTY
VdW12
SciTegic.value.DoubleValue
12.050

@<SCITEGIC>MOL_PROPERTY
Bond
SciTegic.value.DoubleValue
0.268

@<SCITEGIC>MOL_PROPERTY
Angle
SciTegic.value.DoubleValue
3.481

@<SCITEGIC>MOL_PROPERTY
Pdih
SciTegic.value.DoubleValue
5.442

@<SCITEGIC>MOL_PROPERTY
Idih
SciTegic.value.DoubleValue
0.001

@<SCITEGIC>MOL_PROPERTY
Tether
SciTegic.value.DoubleValue
0.000

@<TRIPOS>MOLECULE
guest-8_vm2.mol2 : vm2 ligand conformer 97
          25          24           1
SMALL
USER_CHARGES
 
@<TRIPOS>ATOM
       1    C1      19.871074   19.619113   26.863339 C.2        1 MOL1         0.6168
       2    O1      20.176150   19.052699   27.894700 O.co2      1 MOL1        -0.6703
       3    O2      18.739022   19.975978   26.602290 O.co2      1 MOL1        -0.6703
       4    C2      20.976820   19.922777   25.856266 C.3        1 MOL1        -0.1963
       5    H1      21.790529   20.412844   26.403270 H          1 MOL1         0.0750
       6    H2      20.602341   20.656762   25.133541 H          1 MOL1         0.0750
       7    C3      21.530379   18.669273   25.125230 C.3        1 MOL1        -0.1860
       8    H3      22.365693   18.966843   24.478478 H          1 MOL1         0.0752
       9    H4      21.958309   17.986865   25.872474 H          1 MOL1         0.0752
      10    C4      20.475568   17.893806   24.293904 C.3        1 MOL1        -0.1858
      11    H5      19.721854   17.476492   24.975697 H          1 MOL1         0.0752
      12    H6      20.963902   17.031063   23.820858 H          1 MOL1         0.0752
      13    C5      19.749188   18.719652   23.202178 C.3        1 MOL1        -0.1858
      14    H7      19.016573   18.062948   22.716535 H          1 MOL1         0.0752
      15    H8      19.169823   19.527586   23.668400 H          1 MOL1         0.0752
      16    C6      20.702797   19.306396   22.132323 C.3        1 MOL1        -0.1858
      17    H9      21.280738   18.496723   21.666612 H          1 MOL1         0.0752
      18    H10     21.429520   19.970001   22.617933 H          1 MOL1         0.0752
      19    C7      19.972364   20.118463   21.037243 C.3        1 MOL1        -0.1834
      20    H11     19.383151   20.921152   21.501817 H          1 MOL1         0.0752
      21    H12     20.723981   20.611549   20.405486 H          1 MOL1         0.0752
      22    C8      19.059640   19.255842   20.138528 C.3        1 MOL1        -0.2849
      23    H13     18.218073   18.837608   20.704435 H          1 MOL1         0.0764
      24    H14     18.642498   19.860576   19.322954 H          1 MOL1         0.0764
      25    H15     19.620748   18.425509   19.690439 H          1 MOL1         0.0764
@<TRIPOS>BOND
    1     1     2    1
    2     1     3    2
    3     1     4    1
    4     4     5    1
    5     4     6    1
    6     4     7    1
    7     7     8    1
    8     7     9    1
    9     7    10    1
   10    10    11    1
   11    10    12    1
   12    10    13    1
   13    13    14    1
   14    13    15    1
   15    13    16    1
   16    16    17    1
   17    16    18    1
   18    16    19    1
   19    19    20    1
   20    19    21    1
   21    19    22    1
   22    22    23    1
   23    22    24    1
   24    22    25    1
@<TRIPOS>SUBSTRUCTURE
       1 MOL1            1 RESIDUE      1      MOL     
@<SCITEGIC>MOL_PROPERTY
VM2 Rank
SciTegic.value.IntegerValue
97

@<SCITEGIC>MOL_PROPERTY
Conf_Id
SciTegic.value.IntegerValue
517

@<SCITEGIC>MOL_PROPERTY
Probability
SciTegic.value.DoubleValue
0.01

@<SCITEGIC>MOL_PROPERTY
Sum Probability
SciTegic.value.DoubleValue
99.70

@<SCITEGIC>MOL_PROPERTY
Delta G
SciTegic.value.DoubleValue
4.485

@<SCITEGIC>MOL_PROPERTY
G
SciTegic.value.DoubleValue
-3.477

@<SCITEGIC>MOL_PROPERTY
E
SciTegic.value.DoubleValue
-28.801

@<SCITEGIC>MOL_PROPERTY
-TS
SciTegic.value.DoubleValue
25.324

@<SCITEGIC>MOL_PROPERTY
U+W
SciTegic.value.DoubleValue
-49.369

@<SCITEGIC>MOL_PROPERTY
U
SciTegic.value.DoubleValue
10.879

@<SCITEGIC>MOL_PROPERTY
W
SciTegic.value.DoubleValue
-60.247

@<SCITEGIC>MOL_PROPERTY
W(PB)
SciTegic.value.DoubleValue
-62.651

@<SCITEGIC>MOL_PROPERTY
W(SA)
SciTegic.value.DoubleValue
2.404

@<SCITEGIC>MOL_PROPERTY
Valence
SciTegic.value.DoubleValue
9.320

@<SCITEGIC>MOL_PROPERTY
Coulomb
SciTegic.value.DoubleValue
0.828

@<SCITEGIC>MOL_PROPERTY
VdW
SciTegic.value.DoubleValue
0.731

@<SCITEGIC>MOL_PROPERTY
VdW6
SciTegic.value.DoubleValue
-11.182

@<SCITEGIC>MOL_PROPERTY
VdW12
SciTegic.value.DoubleValue
11.912

@<SCITEGIC>MOL_PROPERTY
Bond
SciTegic.value.DoubleValue
0.267

@<SCITEGIC>MOL_PROPERTY
Angle
SciTegic.value.DoubleValue
3.459

@<SCITEGIC>MOL_PROPERTY
Pdih
SciTegic.value.DoubleValue
5.593

@<SCITEGIC>MOL_PROPERTY
Idih
SciTegic.value.DoubleValue
0.001

@<SCITEGIC>MOL_PROPERTY
Tether
SciTegic.value.DoubleValue
0.000

@<TRIPOS>MOLECULE
guest-8_vm2.mol2 : vm2 ligand conformer 98
          25          24           1
SMALL
USER_CHARGES
 
@<TRIPOS>ATOM
       1    C1      20.647936   18.948359   26.930180 C.2        1 MOL1         0.6168
       2    O1      21.749557   19.436447   27.088120 O.co2      1 MOL1        -0.6703
       3    O2      19.991971   18.462196   27.830268 O.co2      1 MOL1        -0.6703
       4    C2      20.045379   18.967682   25.530061 C.3        1 MOL1        -0.1963
       5    H1      19.397007   18.089678   25.425628 H          1 MOL1         0.0750
       6    H2      20.867999   18.858703   24.814338 H          1 MOL1         0.0750
       7    C3      19.246064   20.262808   25.238558 C.3        1 MOL1        -0.1860
       8    H3      18.520907   20.419507   26.049108 H          1 MOL1         0.0752
       9    H4      19.929598   21.122580   25.267327 H          1 MOL1         0.0752
      10    C4      18.481991   20.252240   23.890550 C.3        1 MOL1        -0.1858
      11    H5      17.929263   21.198747   23.816278 H          1 MOL1         0.0752
      12    H6      17.719421   19.461495   23.895681 H          1 MOL1         0.0752
      13    C5      19.385544   20.121057   22.638009 C.3        1 MOL1        -0.1858
      14    H7      18.956303   20.733326   21.833328 H          1 MOL1         0.0752
      15    H8      20.375196   20.545260   22.850621 H          1 MOL1         0.0752
      16    C6      19.507879   18.665248   22.121642 C.3        1 MOL1        -0.1858
      17    H9      18.501069   18.277565   21.915187 H          1 MOL1         0.0752
      18    H10     19.933119   18.014840   22.894872 H          1 MOL1         0.0752
      19    C7      20.352215   18.541769   20.832084 C.3        1 MOL1        -0.1834
      20    H11     20.271883   17.512613   20.455818 H          1 MOL1         0.0752
      21    H12     19.935179   19.191398   20.050228 H          1 MOL1         0.0752
      22    C8      21.844465   18.876192   21.046529 C.3        1 MOL1        -0.2849
      23    H13     21.985099   19.931055   21.312834 H          1 MOL1         0.0764
      24    H14     22.274297   18.258994   21.846184 H          1 MOL1         0.0764
      25    H15     22.416036   18.686460   20.128840 H          1 MOL1         0.0764
@<TRIPOS>BOND
    1     1     2    1
    2     1     3    2
    3     1     4    1
    4     4     5    1
    5     4     6    1
    6     4     7    1
    7     7     8    1
    8     7     9    1
    9     7    10    1
   10    10    11    1
   11    10    12    1
   12    10    13    1
   13    13    14    1
   14    13    15    1
   15    13    16    1
   16    16    17    1
   17    16    18    1
   18    16    19    1
   19    19    20    1
   20    19    21    1
   21    19    22    1
   22    22    23    1
   23    22    24    1
   24    22    25    1
@<TRIPOS>SUBSTRUCTURE
       1 MOL1            1 RESIDUE      1      MOL     
@<SCITEGIC>MOL_PROPERTY
VM2 Rank
SciTegic.value.IntegerValue
98

@<SCITEGIC>MOL_PROPERTY
Conf_Id
SciTegic.value.IntegerValue
249

@<SCITEGIC>MOL_PROPERTY
Probability
SciTegic.value.DoubleValue
0.01

@<SCITEGIC>MOL_PROPERTY
Sum Probability
SciTegic.value.DoubleValue
99.72

@<SCITEGIC>MOL_PROPERTY
Delta G
SciTegic.value.DoubleValue
4.495

@<SCITEGIC>MOL_PROPERTY
G
SciTegic.value.DoubleValue
-3.467

@<SCITEGIC>MOL_PROPERTY
E
SciTegic.value.DoubleValue
-28.325

@<SCITEGIC>MOL_PROPERTY
-TS
SciTegic.value.DoubleValue
24.858

@<SCITEGIC>MOL_PROPERTY
U+W
SciTegic.value.DoubleValue
-48.892

@<SCITEGIC>MOL_PROPERTY
U
SciTegic.value.DoubleValue
11.037

@<SCITEGIC>MOL_PROPERTY
W
SciTegic.value.DoubleValue
-59.929

@<SCITEGIC>MOL_PROPERTY
W(PB)
SciTegic.value.DoubleValue
-62.331

@<SCITEGIC>MOL_PROPERTY
W(SA)
SciTegic.value.DoubleValue
2.401

@<SCITEGIC>MOL_PROPERTY
Valence
SciTegic.value.DoubleValue
11.015

@<SCITEGIC>MOL_PROPERTY
Coulomb
SciTegic.value.DoubleValue
-0.980

@<SCITEGIC>MOL_PROPERTY
VdW
SciTegic.value.DoubleValue
1.002

@<SCITEGIC>MOL_PROPERTY
VdW6
SciTegic.value.DoubleValue
-10.121

@<SCITEGIC>MOL_PROPERTY
VdW12
SciTegic.value.DoubleValue
11.123

@<SCITEGIC>MOL_PROPERTY
Bond
SciTegic.value.DoubleValue
0.236

@<SCITEGIC>MOL_PROPERTY
Angle
SciTegic.value.DoubleValue
3.218

@<SCITEGIC>MOL_PROPERTY
Pdih
SciTegic.value.DoubleValue
7.560

@<SCITEGIC>MOL_PROPERTY
Idih
SciTegic.value.DoubleValue
0.001

@<SCITEGIC>MOL_PROPERTY
Tether
SciTegic.value.DoubleValue
0.000

@<TRIPOS>MOLECULE
guest-8_vm2.mol2 : vm2 ligand conformer 99
          25          24           1
SMALL
USER_CHARGES
 
@<TRIPOS>ATOM
       1    C1      19.969509   19.219478   26.986959 C.2        1 MOL1         0.6168
       2    O1      20.670428   18.540968   27.712117 O.co2      1 MOL1        -0.6703
       3    O2      18.766000   19.079545   26.892420 O.co2      1 MOL1        -0.6703
       4    C2      20.635402   20.326240   26.174121 C.3        1 MOL1        -0.1963
       5    H1      21.255106   20.909318   26.865229 H          1 MOL1         0.0750
       6    H2      19.859740   21.006873   25.805774 H          1 MOL1         0.0750
       7    C3      21.517809   19.811788   25.003735 C.3        1 MOL1        -0.1860
       8    H3      21.999833   20.667597   24.512238 H          1 MOL1         0.0752
       9    H4      22.329632   19.199339   25.419856 H          1 MOL1         0.0752
      10    C4      20.759452   18.976030   23.942999 C.3        1 MOL1        -0.1858
      11    H5      20.300988   18.098543   24.419085 H          1 MOL1         0.0752
      12    H6      21.496546   18.591108   23.226989 H          1 MOL1         0.0752
      13    C5      19.676527   19.780432   23.183020 C.3        1 MOL1        -0.1858
      14    H7      18.934082   20.154408   23.899583 H          1 MOL1         0.0752
      15    H8      20.127912   20.666615   22.718564 H          1 MOL1         0.0752
      16    C6      18.922570   18.947764   22.115076 C.3        1 MOL1        -0.1858
      17    H9      18.132342   19.572861   21.677597 H          1 MOL1         0.0752
      18    H10     18.408016   18.114811   22.613287 H          1 MOL1         0.0752
      19    C7      19.798338   18.380341   20.970243 C.3        1 MOL1        -0.1834
      20    H11     20.523580   17.658759   21.368513 H          1 MOL1         0.0752
      21    H12     19.152790   17.812978   20.285853 H          1 MOL1         0.0752
      22    C8      20.536965   19.471415   20.165310 C.3        1 MOL1        -0.2849
      23    H13     19.832325   20.218455   19.777521 H          1 MOL1         0.0764
      24    H14     21.281426   19.987717   20.784412 H          1 MOL1         0.0764
      25    H15     21.064744   19.027889   19.311209 H          1 MOL1         0.0764
@<TRIPOS>BOND
    1     1     2    1
    2     1     3    2
    3     1     4    1
    4     4     5    1
    5     4     6    1
    6     4     7    1
    7     7     8    1
    8     7     9    1
    9     7    10    1
   10    10    11    1
   11    10    12    1
   12    10    13    1
   13    13    14    1
   14    13    15    1
   15    13    16    1
   16    16    17    1
   17    16    18    1
   18    16    19    1
   19    19    20    1
   20    19    21    1
   21    19    22    1
   22    22    23    1
   23    22    24    1
   24    22    25    1
@<TRIPOS>SUBSTRUCTURE
       1 MOL1            1 RESIDUE      1      MOL     
@<SCITEGIC>MOL_PROPERTY
VM2 Rank
SciTegic.value.IntegerValue
99

@<SCITEGIC>MOL_PROPERTY
Conf_Id
SciTegic.value.IntegerValue
1112

@<SCITEGIC>MOL_PROPERTY
Probability
SciTegic.value.DoubleValue
0.01

@<SCITEGIC>MOL_PROPERTY
Sum Probability
SciTegic.value.DoubleValue
99.73

@<SCITEGIC>MOL_PROPERTY
Delta G
SciTegic.value.DoubleValue
4.507

@<SCITEGIC>MOL_PROPERTY
G
SciTegic.value.DoubleValue
-3.456

@<SCITEGIC>MOL_PROPERTY
E
SciTegic.value.DoubleValue
-28.659

@<SCITEGIC>MOL_PROPERTY
-TS
SciTegic.value.DoubleValue
25.203

@<SCITEGIC>MOL_PROPERTY
U+W
SciTegic.value.DoubleValue
-49.226

@<SCITEGIC>MOL_PROPERTY
U
SciTegic.value.DoubleValue
11.036

@<SCITEGIC>MOL_PROPERTY
W
SciTegic.value.DoubleValue
-60.263

@<SCITEGIC>MOL_PROPERTY
W(PB)
SciTegic.value.DoubleValue
-62.659

@<SCITEGIC>MOL_PROPERTY
W(SA)
SciTegic.value.DoubleValue
2.396

@<SCITEGIC>MOL_PROPERTY
Valence
SciTegic.value.DoubleValue
9.325

@<SCITEGIC>MOL_PROPERTY
Coulomb
SciTegic.value.DoubleValue
0.929

@<SCITEGIC>MOL_PROPERTY
VdW
SciTegic.value.DoubleValue
0.783

@<SCITEGIC>MOL_PROPERTY
VdW6
SciTegic.value.DoubleValue
-11.027

@<SCITEGIC>MOL_PROPERTY
VdW12
SciTegic.value.DoubleValue
11.810

@<SCITEGIC>MOL_PROPERTY
Bond
SciTegic.value.DoubleValue
0.268

@<SCITEGIC>MOL_PROPERTY
Angle
SciTegic.value.DoubleValue
3.515

@<SCITEGIC>MOL_PROPERTY
Pdih
SciTegic.value.DoubleValue
5.540

@<SCITEGIC>MOL_PROPERTY
Idih
SciTegic.value.DoubleValue
0.001

@<SCITEGIC>MOL_PROPERTY
Tether
SciTegic.value.DoubleValue
0.000

@<TRIPOS>MOLECULE
guest-8_vm2.mol2 : vm2 ligand conformer 100
          25          24           1
SMALL
USER_CHARGES
 
@<TRIPOS>ATOM
       1    C1      19.950617   19.660501   26.883080 C.2        1 MOL1         0.6168
       2    O1      20.869677   20.413236   27.140618 O.co2      1 MOL1        -0.6703
       3    O2      18.781309   19.988214   26.933913 O.co2      1 MOL1        -0.6703
       4    C2      20.276968   18.208280   26.539872 C.3        1 MOL1        -0.1963
       5    H1      19.340402   17.658157   26.388282 H          1 MOL1         0.0750
       6    H2      20.750577   17.780963   27.431261 H          1 MOL1         0.0750
       7    C3      21.222175   18.010145   25.321301 C.3        1 MOL1        -0.1860
       8    H3      22.051879   18.729100   25.368957 H          1 MOL1         0.0752
       9    H4      21.680165   17.015540   25.407605 H          1 MOL1         0.0752
      10    C4      20.529062   18.089716   23.938118 C.3        1 MOL1        -0.1858
      11    H5      19.701391   17.368686   23.897701 H          1 MOL1         0.0752
      12    H6      21.256610   17.766969   23.183113 H          1 MOL1         0.0752
      13    C5      20.007264   19.501238   23.575200 C.3        1 MOL1        -0.1858
      14    H7      19.231554   19.795112   24.292659 H          1 MOL1         0.0752
      15    H8      20.817956   20.236041   23.673255 H          1 MOL1         0.0752
      16    C6      19.394434   19.587899   22.156645 C.3        1 MOL1        -0.1858
      17    H9      18.902456   20.564585   22.052040 H          1 MOL1         0.0752
      18    H10     18.605841   18.830678   22.049099 H          1 MOL1         0.0752
      19    C7      20.431433   19.428934   21.021391 C.3        1 MOL1        -0.1834
      20    H11     21.248066   20.150408   21.162006 H          1 MOL1         0.0752
      21    H12     20.879591   18.427492   21.053039 H          1 MOL1         0.0752
      22    C8      19.790061   19.645837   19.635862 C.3        1 MOL1        -0.2849
      23    H13     19.365014   20.654679   19.552686 H          1 MOL1         0.0764
      24    H14     20.537489   19.526755   18.840739 H          1 MOL1         0.0764
      25    H15     18.986536   18.919294   19.457396 H          1 MOL1         0.0764
@<TRIPOS>BOND
    1     1     2    1
    2     1     3    2
    3     1     4    1
    4     4     5    1
    5     4     6    1
    6     4     7    1
    7     7     8    1
    8     7     9    1
    9     7    10    1
   10    10    11    1
   11    10    12    1
   12    10    13    1
   13    13    14    1
   14    13    15    1
   15    13    16    1
   16    16    17    1
   17    16    18    1
   18    16    19    1
   19    19    20    1
   20    19    21    1
   21    19    22    1
   22    22    23    1
   23    22    24    1
   24    22    25    1
@<TRIPOS>SUBSTRUCTURE
       1 MOL1            1 RESIDUE      1      MOL     
@<SCITEGIC>MOL_PROPERTY
VM2 Rank
SciTegic.value.IntegerValue
100

@<SCITEGIC>MOL_PROPERTY
Conf_Id
SciTegic.value.IntegerValue
726

@<SCITEGIC>MOL_PROPERTY
Probability
SciTegic.value.DoubleValue
0.01

@<SCITEGIC>MOL_PROPERTY
Sum Probability
SciTegic.value.DoubleValue
99.74

@<SCITEGIC>MOL_PROPERTY
Delta G
SciTegic.value.DoubleValue
4.582

@<SCITEGIC>MOL_PROPERTY
G
SciTegic.value.DoubleValue
-3.380

@<SCITEGIC>MOL_PROPERTY
E
SciTegic.value.DoubleValue
-28.383

@<SCITEGIC>MOL_PROPERTY
-TS
SciTegic.value.DoubleValue
25.003

@<SCITEGIC>MOL_PROPERTY
U+W
SciTegic.value.DoubleValue
-48.951

@<SCITEGIC>MOL_PROPERTY
U
SciTegic.value.DoubleValue
11.422

@<SCITEGIC>MOL_PROPERTY
W
SciTegic.value.DoubleValue
-60.373

@<SCITEGIC>MOL_PROPERTY
W(PB)
SciTegic.value.DoubleValue
-62.797

@<SCITEGIC>MOL_PROPERTY
W(SA)
SciTegic.value.DoubleValue
2.424

@<SCITEGIC>MOL_PROPERTY
Valence
SciTegic.value.DoubleValue
10.135

@<SCITEGIC>MOL_PROPERTY
Coulomb
SciTegic.value.DoubleValue
0.369

@<SCITEGIC>MOL_PROPERTY
VdW
SciTegic.value.DoubleValue
0.918

@<SCITEGIC>MOL_PROPERTY
VdW6
SciTegic.value.DoubleValue
-10.482

@<SCITEGIC>MOL_PROPERTY
VdW12
SciTegic.value.DoubleValue
11.400

@<SCITEGIC>MOL_PROPERTY
Bond
SciTegic.value.DoubleValue
0.245

@<SCITEGIC>MOL_PROPERTY
Angle
SciTegic.value.DoubleValue
3.539

@<SCITEGIC>MOL_PROPERTY
Pdih
SciTegic.value.DoubleValue
6.346

@<SCITEGIC>MOL_PROPERTY
Idih
SciTegic.value.DoubleValue
0.006

@<SCITEGIC>MOL_PROPERTY
Tether
SciTegic.value.DoubleValue
0.000

@<TRIPOS>MOLECULE
guest-8_vm2.mol2 : vm2 ligand conformer 101
          25          24           1
SMALL
USER_CHARGES
 
@<TRIPOS>ATOM
       1    C1      19.860743   19.700315   26.743044 C.2        1 MOL1         0.6168
       2    O1      20.852310   20.195353   27.242462 O.co2      1 MOL1        -0.6703
       3    O2      18.832972   20.316696   26.540585 O.co2      1 MOL1        -0.6703
       4    C2      19.882954   18.209170   26.412570 C.3        1 MOL1        -0.1963
       5    H1      18.900914   17.916420   26.021815 H          1 MOL1         0.0750
       6    H2      20.010771   17.683639   27.365942 H          1 MOL1         0.0750
       7    C3      21.005975   17.763472   25.434240 C.3        1 MOL1        -0.1860
       8    H3      21.960074   18.225333   25.723947 H          1 MOL1         0.0752
       9    H4      21.147302   16.680450   25.550336 H          1 MOL1         0.0752
      10    C4      20.711917   18.043847   23.939598 C.3        1 MOL1        -0.1858
      11    H5      19.763859   17.565376   23.660948 H          1 MOL1         0.0752
      12    H6      21.493185   17.558240   23.339150 H          1 MOL1         0.0752
      13    C5      20.670271   19.548387   23.579269 C.3        1 MOL1        -0.1858
      14    H7      19.785405   20.017406   24.028122 H          1 MOL1         0.0752
      15    H8      21.545427   20.047743   24.017065 H          1 MOL1         0.0752
      16    C6      20.661286   19.813520   22.054873 C.3        1 MOL1        -0.1858
      17    H9      21.555214   19.367388   21.598090 H          1 MOL1         0.0752
      18    H10     20.735767   20.896972   21.889336 H          1 MOL1         0.0752
      19    C7      19.394246   19.282510   21.347126 C.3        1 MOL1        -0.1834
      20    H11     19.339689   18.189833   21.440315 H          1 MOL1         0.0752
      21    H12     18.498847   19.691041   21.835677 H          1 MOL1         0.0752
      22    C8      19.380326   19.660730   19.852232 C.3        1 MOL1        -0.2849
      23    H13     20.251942   19.240976   19.333156 H          1 MOL1         0.0764
      24    H14     18.476352   19.274209   19.363903 H          1 MOL1         0.0764
      25    H15     19.395765   20.750773   19.722244 H          1 MOL1         0.0764
@<TRIPOS>BOND
    1     1     2    1
    2     1     3    2
    3     1     4    1
    4     4     5    1
    5     4     6    1
    6     4     7    1
    7     7     8    1
    8     7     9    1
    9     7    10    1
   10    10    11    1
   11    10    12    1
   12    10    13    1
   13    13    14    1
   14    13    15    1
   15    13    16    1
   16    16    17    1
   17    16    18    1
   18    16    19    1
   19    19    20    1
   20    19    21    1
   21    19    22    1
   22    22    23    1
   23    22    24    1
   24    22    25    1
@<TRIPOS>SUBSTRUCTURE
       1 MOL1            1 RESIDUE      1      MOL     
@<SCITEGIC>MOL_PROPERTY
VM2 Rank
SciTegic.value.IntegerValue
101

@<SCITEGIC>MOL_PROPERTY
Conf_Id
SciTegic.value.IntegerValue
272

@<SCITEGIC>MOL_PROPERTY
Probability
SciTegic.value.DoubleValue
0.01

@<SCITEGIC>MOL_PROPERTY
Sum Probability
SciTegic.value.DoubleValue
99.75

@<SCITEGIC>MOL_PROPERTY
Delta G
SciTegic.value.DoubleValue
4.595

@<SCITEGIC>MOL_PROPERTY
G
SciTegic.value.DoubleValue
-3.367

@<SCITEGIC>MOL_PROPERTY
E
SciTegic.value.DoubleValue
-28.554

@<SCITEGIC>MOL_PROPERTY
-TS
SciTegic.value.DoubleValue
25.187

@<SCITEGIC>MOL_PROPERTY
U+W
SciTegic.value.DoubleValue
-49.121

@<SCITEGIC>MOL_PROPERTY
U
SciTegic.value.DoubleValue
11.400

@<SCITEGIC>MOL_PROPERTY
W
SciTegic.value.DoubleValue
-60.522

@<SCITEGIC>MOL_PROPERTY
W(PB)
SciTegic.value.DoubleValue
-62.946

@<SCITEGIC>MOL_PROPERTY
W(SA)
SciTegic.value.DoubleValue
2.424

@<SCITEGIC>MOL_PROPERTY
Valence
SciTegic.value.DoubleValue
9.920

@<SCITEGIC>MOL_PROPERTY
Coulomb
SciTegic.value.DoubleValue
0.704

@<SCITEGIC>MOL_PROPERTY
VdW
SciTegic.value.DoubleValue
0.777

@<SCITEGIC>MOL_PROPERTY
VdW6
SciTegic.value.DoubleValue
-10.716

@<SCITEGIC>MOL_PROPERTY
VdW12
SciTegic.value.DoubleValue
11.493

@<SCITEGIC>MOL_PROPERTY
Bond
SciTegic.value.DoubleValue
0.235

@<SCITEGIC>MOL_PROPERTY
Angle
SciTegic.value.DoubleValue
3.375

@<SCITEGIC>MOL_PROPERTY
Pdih
SciTegic.value.DoubleValue
6.305

@<SCITEGIC>MOL_PROPERTY
Idih
SciTegic.value.DoubleValue
0.006

@<SCITEGIC>MOL_PROPERTY
Tether
SciTegic.value.DoubleValue
0.000

@<TRIPOS>MOLECULE
guest-8_vm2.mol2 : vm2 ligand conformer 102
          25          24           1
SMALL
USER_CHARGES
 
@<TRIPOS>ATOM
       1    C1      20.386544   19.733977   26.736954 C.2        1 MOL1         0.6168
       2    O1      21.322481   20.475989   26.511858 O.co2      1 MOL1        -0.6703
       3    O2      19.351714   20.099370   27.259738 O.co2      1 MOL1        -0.6703
       4    C2      20.547006   18.251678   26.404894 C.3        1 MOL1        -0.1963
       5    H1      20.509208   17.715554   27.360186 H          1 MOL1         0.0750
       6    H2      21.549091   18.085922   25.991196 H          1 MOL1         0.0750
       7    C3      19.467737   17.665012   25.452028 C.3        1 MOL1        -0.1860
       8    H3      19.468339   16.572981   25.569743 H          1 MOL1         0.0752
       9    H4      18.469472   18.001897   25.764316 H          1 MOL1         0.0752
      10    C4      19.689143   17.978394   23.951427 C.3        1 MOL1        -0.1858
      11    H5      18.962441   17.396376   23.368427 H          1 MOL1         0.0752
      12    H6      20.683736   17.624158   23.650270 H          1 MOL1         0.0752
      13    C5      19.530522   19.475463   23.592488 C.3        1 MOL1        -0.1858
      14    H7      18.609246   19.859943   24.051119 H          1 MOL1         0.0752
      15    H8      20.358583   20.054000   24.021495 H          1 MOL1         0.0752
      16    C6      19.470472   19.737365   22.068692 C.3        1 MOL1        -0.1858
      17    H9      19.254821   20.802269   21.906541 H          1 MOL1         0.0752
      18    H10     18.630328   19.180360   21.632003 H          1 MOL1         0.0752
      19    C7      20.778133   19.371003   21.331083 C.3        1 MOL1        -0.1834
      20    H11     21.625260   19.890938   21.799444 H          1 MOL1         0.0752
      21    H12     20.973527   18.294307   21.421346 H          1 MOL1         0.0752
      22    C8      20.709249   19.745749   19.836836 C.3        1 MOL1        -0.2849
      23    H13     19.886421   19.217676   19.337396 H          1 MOL1         0.0764
      24    H14     20.552140   20.824764   19.708881 H          1 MOL1         0.0764
      25    H15     21.643561   19.476773   19.327183 H          1 MOL1         0.0764
@<TRIPOS>BOND
    1     1     2    1
    2     1     3    2
    3     1     4    1
    4     4     5    1
    5     4     6    1
    6     4     7    1
    7     7     8    1
    8     7     9    1
    9     7    10    1
   10    10    11    1
   11    10    12    1
   12    10    13    1
   13    13    14    1
   14    13    15    1
   15    13    16    1
   16    16    17    1
   17    16    18    1
   18    16    19    1
   19    19    20    1
   20    19    21    1
   21    19    22    1
   22    22    23    1
   23    22    24    1
   24    22    25    1
@<TRIPOS>SUBSTRUCTURE
       1 MOL1            1 RESIDUE      1      MOL     
@<SCITEGIC>MOL_PROPERTY
VM2 Rank
SciTegic.value.IntegerValue
102

@<SCITEGIC>MOL_PROPERTY
Conf_Id
SciTegic.value.IntegerValue
269

@<SCITEGIC>MOL_PROPERTY
Probability
SciTegic.value.DoubleValue
0.01

@<SCITEGIC>MOL_PROPERTY
Sum Probability
SciTegic.value.DoubleValue
99.76

@<SCITEGIC>MOL_PROPERTY
Delta G
SciTegic.value.DoubleValue
4.640

@<SCITEGIC>MOL_PROPERTY
G
SciTegic.value.DoubleValue
-3.323

@<SCITEGIC>MOL_PROPERTY
E
SciTegic.value.DoubleValue
-28.509

@<SCITEGIC>MOL_PROPERTY
-TS
SciTegic.value.DoubleValue
25.187

@<SCITEGIC>MOL_PROPERTY
U+W
SciTegic.value.DoubleValue
-49.077

@<SCITEGIC>MOL_PROPERTY
U
SciTegic.value.DoubleValue
11.400

@<SCITEGIC>MOL_PROPERTY
W
SciTegic.value.DoubleValue
-60.477

@<SCITEGIC>MOL_PROPERTY
W(PB)
SciTegic.value.DoubleValue
-62.900

@<SCITEGIC>MOL_PROPERTY
W(SA)
SciTegic.value.DoubleValue
2.422

@<SCITEGIC>MOL_PROPERTY
Valence
SciTegic.value.DoubleValue
9.920

@<SCITEGIC>MOL_PROPERTY
Coulomb
SciTegic.value.DoubleValue
0.704

@<SCITEGIC>MOL_PROPERTY
VdW
SciTegic.value.DoubleValue
0.777

@<SCITEGIC>MOL_PROPERTY
VdW6
SciTegic.value.DoubleValue
-10.716

@<SCITEGIC>MOL_PROPERTY
VdW12
SciTegic.value.DoubleValue
11.493

@<SCITEGIC>MOL_PROPERTY
Bond
SciTegic.value.DoubleValue
0.235

@<SCITEGIC>MOL_PROPERTY
Angle
SciTegic.value.DoubleValue
3.375

@<SCITEGIC>MOL_PROPERTY
Pdih
SciTegic.value.DoubleValue
6.304

@<SCITEGIC>MOL_PROPERTY
Idih
SciTegic.value.DoubleValue
0.006

@<SCITEGIC>MOL_PROPERTY
Tether
SciTegic.value.DoubleValue
0.000

@<TRIPOS>MOLECULE
guest-8_vm2.mol2 : vm2 ligand conformer 103
          25          24           1
SMALL
USER_CHARGES
 
@<TRIPOS>ATOM
       1    C1      19.741569   19.049964   27.127249 C.2        1 MOL1         0.6168
       2    O1      20.443107   18.530818   27.972894 O.co2      1 MOL1        -0.6703
       3    O2      18.717167   19.652805   27.380101 O.co2      1 MOL1        -0.6703
       4    C2      20.183412   18.959459   25.671087 C.3        1 MOL1        -0.1963
       5    H1      19.279870   18.914785   25.052593 H          1 MOL1         0.0750
       6    H2      20.723127   18.014522   25.536983 H          1 MOL1         0.0750
       7    C3      21.074205   20.151665   25.239229 C.3        1 MOL1        -0.1860
       8    H3      20.494654   21.081977   25.316177 H          1 MOL1         0.0752
       9    H4      21.904706   20.247180   25.952354 H          1 MOL1         0.0752
      10    C4      21.663269   20.024257   23.811732 C.3        1 MOL1        -0.1858
      11    H5      22.323112   19.147892   23.751788 H          1 MOL1         0.0752
      12    H6      22.309366   20.896299   23.641315 H          1 MOL1         0.0752
      13    C5      20.605005   19.978448   22.680387 C.3        1 MOL1        -0.1858
      14    H7      19.693178   20.503707   22.995560 H          1 MOL1         0.0752
      15    H8      20.998907   20.536255   21.820840 H          1 MOL1         0.0752
      16    C6      20.266667   18.538851   22.218881 C.3        1 MOL1        -0.1858
      17    H9      19.990893   17.924952   23.084270 H          1 MOL1         0.0752
      18    H10     21.162747   18.072550   21.787295 H          1 MOL1         0.0752
      19    C7      19.111261   18.479881   21.192699 C.3        1 MOL1        -0.1834
      20    H11     18.865863   17.426701   20.998343 H          1 MOL1         0.0752
      21    H12     18.208826   18.933858   21.624905 H          1 MOL1         0.0752
      22    C8      19.447336   19.167853   19.851741 C.3        1 MOL1        -0.2849
      23    H13     20.364233   18.750953   19.415179 H          1 MOL1         0.0764
      24    H14     18.632794   19.021630   19.130620 H          1 MOL1         0.0764
      25    H15     19.586935   20.248512   19.980087 H          1 MOL1         0.0764
@<TRIPOS>BOND
    1     1     2    1
    2     1     3    2
    3     1     4    1
    4     4     5    1
    5     4     6    1
    6     4     7    1
    7     7     8    1
    8     7     9    1
    9     7    10    1
   10    10    11    1
   11    10    12    1
   12    10    13    1
   13    13    14    1
   14    13    15    1
   15    13    16    1
   16    16    17    1
   17    16    18    1
   18    16    19    1
   19    19    20    1
   20    19    21    1
   21    19    22    1
   22    22    23    1
   23    22    24    1
   24    22    25    1
@<TRIPOS>SUBSTRUCTURE
       1 MOL1            1 RESIDUE      1      MOL     
@<SCITEGIC>MOL_PROPERTY
VM2 Rank
SciTegic.value.IntegerValue
103

@<SCITEGIC>MOL_PROPERTY
Conf_Id
SciTegic.value.IntegerValue
550

@<SCITEGIC>MOL_PROPERTY
Probability
SciTegic.value.DoubleValue
0.01

@<SCITEGIC>MOL_PROPERTY
Sum Probability
SciTegic.value.DoubleValue
99.77

@<SCITEGIC>MOL_PROPERTY
Delta G
SciTegic.value.DoubleValue
4.642

@<SCITEGIC>MOL_PROPERTY
G
SciTegic.value.DoubleValue
-3.320

@<SCITEGIC>MOL_PROPERTY
E
SciTegic.value.DoubleValue
-28.241

@<SCITEGIC>MOL_PROPERTY
-TS
SciTegic.value.DoubleValue
24.920

@<SCITEGIC>MOL_PROPERTY
U+W
SciTegic.value.DoubleValue
-48.808

@<SCITEGIC>MOL_PROPERTY
U
SciTegic.value.DoubleValue
10.710

@<SCITEGIC>MOL_PROPERTY
W
SciTegic.value.DoubleValue
-59.518

@<SCITEGIC>MOL_PROPERTY
W(PB)
SciTegic.value.DoubleValue
-61.960

@<SCITEGIC>MOL_PROPERTY
W(SA)
SciTegic.value.DoubleValue
2.442

@<SCITEGIC>MOL_PROPERTY
Valence
SciTegic.value.DoubleValue
11.065

@<SCITEGIC>MOL_PROPERTY
Coulomb
SciTegic.value.DoubleValue
-1.442

@<SCITEGIC>MOL_PROPERTY
VdW
SciTegic.value.DoubleValue
1.087

@<SCITEGIC>MOL_PROPERTY
VdW6
SciTegic.value.DoubleValue
-9.993

@<SCITEGIC>MOL_PROPERTY
VdW12
SciTegic.value.DoubleValue
11.080

@<SCITEGIC>MOL_PROPERTY
Bond
SciTegic.value.DoubleValue
0.233

@<SCITEGIC>MOL_PROPERTY
Angle
SciTegic.value.DoubleValue
3.172

@<SCITEGIC>MOL_PROPERTY
Pdih
SciTegic.value.DoubleValue
7.659

@<SCITEGIC>MOL_PROPERTY
Idih
SciTegic.value.DoubleValue
0.001

@<SCITEGIC>MOL_PROPERTY
Tether
SciTegic.value.DoubleValue
0.000

@<TRIPOS>MOLECULE
guest-8_vm2.mol2 : vm2 ligand conformer 104
          25          24           1
SMALL
USER_CHARGES
 
@<TRIPOS>ATOM
       1    C1      20.324707   19.746380   27.229663 C.2        1 MOL1         0.6168
       2    O1      21.380439   19.607238   27.815186 O.co2      1 MOL1        -0.6703
       3    O2      19.262408   19.927616   27.791287 O.co2      1 MOL1        -0.6703
       4    C2      20.329977   19.665964   25.707344 C.3        1 MOL1        -0.1963
       5    H1      21.290721   20.054998   25.349553 H          1 MOL1         0.0750
       6    H2      19.548414   20.337883   25.335702 H          1 MOL1         0.0750
       7    C3      20.108030   18.223705   25.182098 C.3        1 MOL1        -0.1860
       8    H3      20.851422   17.561597   25.647267 H          1 MOL1         0.0752
       9    H4      19.123126   17.860997   25.507135 H          1 MOL1         0.0752
      10    C4      20.230725   18.102885   23.644550 C.3        1 MOL1        -0.1858
      11    H5      20.195445   17.038200   23.376628 H          1 MOL1         0.0752
      12    H6      21.217107   18.464340   23.330726 H          1 MOL1         0.0752
      13    C5      19.108555   18.847678   22.878773 C.3        1 MOL1        -0.1858
      14    H7      18.141802   18.460357   23.228111 H          1 MOL1         0.0752
      15    H8      19.114694   19.918555   23.118443 H          1 MOL1         0.0752
      16    C6      19.186813   18.659026   21.342156 C.3        1 MOL1        -0.1858
      17    H9      18.161176   18.609264   20.951734 H          1 MOL1         0.0752
      18    H10     19.645463   17.690938   21.098950 H          1 MOL1         0.0752
      19    C7      19.917198   19.797547   20.587568 C.3        1 MOL1        -0.1834
      20    H11     19.848355   19.600859   19.508810 H          1 MOL1         0.0752
      21    H12     19.394121   20.748212   20.760334 H          1 MOL1         0.0752
      22    C8      21.404149   19.955962   20.967374 C.3        1 MOL1        -0.2849
      23    H13     21.939411   19.002478   20.870932 H          1 MOL1         0.0764
      24    H14     21.892446   20.686901   20.310091 H          1 MOL1         0.0764
      25    H15     21.512595   20.315013   21.998364 H          1 MOL1         0.0764
@<TRIPOS>BOND
    1     1     2    1
    2     1     3    2
    3     1     4    1
    4     4     5    1
    5     4     6    1
    6     4     7    1
    7     7     8    1
    8     7     9    1
    9     7    10    1
   10    10    11    1
   11    10    12    1
   12    10    13    1
   13    13    14    1
   14    13    15    1
   15    13    16    1
   16    16    17    1
   17    16    18    1
   18    16    19    1
   19    19    20    1
   20    19    21    1
   21    19    22    1
   22    22    23    1
   23    22    24    1
   24    22    25    1
@<TRIPOS>SUBSTRUCTURE
       1 MOL1            1 RESIDUE      1      MOL     
@<SCITEGIC>MOL_PROPERTY
VM2 Rank
SciTegic.value.IntegerValue
104

@<SCITEGIC>MOL_PROPERTY
Conf_Id
SciTegic.value.IntegerValue
539

@<SCITEGIC>MOL_PROPERTY
Probability
SciTegic.value.DoubleValue
0.01

@<SCITEGIC>MOL_PROPERTY
Sum Probability
SciTegic.value.DoubleValue
99.79

@<SCITEGIC>MOL_PROPERTY
Delta G
SciTegic.value.DoubleValue
4.654

@<SCITEGIC>MOL_PROPERTY
G
SciTegic.value.DoubleValue
-3.308

@<SCITEGIC>MOL_PROPERTY
E
SciTegic.value.DoubleValue
-28.119

@<SCITEGIC>MOL_PROPERTY
-TS
SciTegic.value.DoubleValue
24.811

@<SCITEGIC>MOL_PROPERTY
U+W
SciTegic.value.DoubleValue
-48.686

@<SCITEGIC>MOL_PROPERTY
U
SciTegic.value.DoubleValue
10.664

@<SCITEGIC>MOL_PROPERTY
W
SciTegic.value.DoubleValue
-59.350

@<SCITEGIC>MOL_PROPERTY
W(PB)
SciTegic.value.DoubleValue
-61.760

@<SCITEGIC>MOL_PROPERTY
W(SA)
SciTegic.value.DoubleValue
2.410

@<SCITEGIC>MOL_PROPERTY
Valence
SciTegic.value.DoubleValue
11.013

@<SCITEGIC>MOL_PROPERTY
Coulomb
SciTegic.value.DoubleValue
-1.402

@<SCITEGIC>MOL_PROPERTY
VdW
SciTegic.value.DoubleValue
1.052

@<SCITEGIC>MOL_PROPERTY
VdW6
SciTegic.value.DoubleValue
-9.992

@<SCITEGIC>MOL_PROPERTY
VdW12
SciTegic.value.DoubleValue
11.045

@<SCITEGIC>MOL_PROPERTY
Bond
SciTegic.value.DoubleValue
0.241

@<SCITEGIC>MOL_PROPERTY
Angle
SciTegic.value.DoubleValue
3.228

@<SCITEGIC>MOL_PROPERTY
Pdih
SciTegic.value.DoubleValue
7.544

@<SCITEGIC>MOL_PROPERTY
Idih
SciTegic.value.DoubleValue
0.001

@<SCITEGIC>MOL_PROPERTY
Tether
SciTegic.value.DoubleValue
0.000

@<TRIPOS>MOLECULE
guest-8_vm2.mol2 : vm2 ligand conformer 105
          25          24           1
SMALL
USER_CHARGES
 
@<TRIPOS>ATOM
       1    C1      20.323287   18.930584   26.893365 C.2        1 MOL1         0.6168
       2    O1      21.469185   19.239190   27.156597 O.co2      1 MOL1        -0.6703
       3    O2      19.902163   17.792693   26.964916 O.co2      1 MOL1        -0.6703
       4    C2      19.342612   20.038618   26.514167 C.3        1 MOL1        -0.1963
       5    H1      19.264272   20.692566   27.390348 H          1 MOL1         0.0750
       6    H2      18.349457   19.599332   26.361058 H          1 MOL1         0.0750
       7    C3      19.750445   20.893017   25.280772 C.3        1 MOL1        -0.1860
       8    H3      19.212727   21.848962   25.339682 H          1 MOL1         0.0752
       9    H4      20.818825   21.144425   25.334934 H          1 MOL1         0.0752
      10    C4      19.423950   20.254255   23.907703 C.3        1 MOL1        -0.1858
      11    H5      19.598180   21.015736   23.137437 H          1 MOL1         0.0752
      12    H6      18.354953   20.006101   23.860611 H          1 MOL1         0.0752
      13    C5      20.264720   18.995816   23.582400 C.3        1 MOL1        -0.1858
      14    H7      21.334248   19.223334   23.687847 H          1 MOL1         0.0752
      15    H8      20.039074   18.211373   24.314910 H          1 MOL1         0.0752
      16    C6      19.991698   18.417318   22.173081 C.3        1 MOL1        -0.1858
      17    H9      18.917091   18.220710   22.057360 H          1 MOL1         0.0752
      18    H10     20.494843   17.443769   22.095942 H          1 MOL1         0.0752
      19    C7      20.484874   19.324854   21.023038 C.3        1 MOL1        -0.1834
      20    H11     19.936885   20.275866   21.027216 H          1 MOL1         0.0752
      21    H12     21.546636   19.565796   21.170670 H          1 MOL1         0.0752
      22    C8      20.300066   18.647656   19.649960 C.3        1 MOL1        -0.2849
      23    H13     19.242327   18.419522   19.464195 H          1 MOL1         0.0764
      24    H14     20.651679   19.304914   18.844087 H          1 MOL1         0.0764
      25    H15     20.868162   17.709840   19.594186 H          1 MOL1         0.0764
@<TRIPOS>BOND
    1     1     2    1
    2     1     3    2
    3     1     4    1
    4     4     5    1
    5     4     6    1
    6     4     7    1
    7     7     8    1
    8     7     9    1
    9     7    10    1
   10    10    11    1
   11    10    12    1
   12    10    13    1
   13    13    14    1
   14    13    15    1
   15    13    16    1
   16    16    17    1
   17    16    18    1
   18    16    19    1
   19    19    20    1
   20    19    21    1
   21    19    22    1
   22    22    23    1
   23    22    24    1
   24    22    25    1
@<TRIPOS>SUBSTRUCTURE
       1 MOL1            1 RESIDUE      1      MOL     
@<SCITEGIC>MOL_PROPERTY
VM2 Rank
SciTegic.value.IntegerValue
105

@<SCITEGIC>MOL_PROPERTY
Conf_Id
SciTegic.value.IntegerValue
1049

@<SCITEGIC>MOL_PROPERTY
Probability
SciTegic.value.DoubleValue
0.01

@<SCITEGIC>MOL_PROPERTY
Sum Probability
SciTegic.value.DoubleValue
99.80

@<SCITEGIC>MOL_PROPERTY
Delta G
SciTegic.value.DoubleValue
4.658

@<SCITEGIC>MOL_PROPERTY
G
SciTegic.value.DoubleValue
-3.304

@<SCITEGIC>MOL_PROPERTY
E
SciTegic.value.DoubleValue
-28.308

@<SCITEGIC>MOL_PROPERTY
-TS
SciTegic.value.DoubleValue
25.004

@<SCITEGIC>MOL_PROPERTY
U+W
SciTegic.value.DoubleValue
-48.875

@<SCITEGIC>MOL_PROPERTY
U
SciTegic.value.DoubleValue
11.423

@<SCITEGIC>MOL_PROPERTY
W
SciTegic.value.DoubleValue
-60.298

@<SCITEGIC>MOL_PROPERTY
W(PB)
SciTegic.value.DoubleValue
-62.736

@<SCITEGIC>MOL_PROPERTY
W(SA)
SciTegic.value.DoubleValue
2.438

@<SCITEGIC>MOL_PROPERTY
Valence
SciTegic.value.DoubleValue
10.135

@<SCITEGIC>MOL_PROPERTY
Coulomb
SciTegic.value.DoubleValue
0.370

@<SCITEGIC>MOL_PROPERTY
VdW
SciTegic.value.DoubleValue
0.918

@<SCITEGIC>MOL_PROPERTY
VdW6
SciTegic.value.DoubleValue
-10.483

@<SCITEGIC>MOL_PROPERTY
VdW12
SciTegic.value.DoubleValue
11.400

@<SCITEGIC>MOL_PROPERTY
Bond
SciTegic.value.DoubleValue
0.245

@<SCITEGIC>MOL_PROPERTY
Angle
SciTegic.value.DoubleValue
3.539

@<SCITEGIC>MOL_PROPERTY
Pdih
SciTegic.value.DoubleValue
6.346

@<SCITEGIC>MOL_PROPERTY
Idih
SciTegic.value.DoubleValue
0.006

@<SCITEGIC>MOL_PROPERTY
Tether
SciTegic.value.DoubleValue
0.000

@<TRIPOS>MOLECULE
guest-8_vm2.mol2 : vm2 ligand conformer 106
          25          24           1
SMALL
USER_CHARGES
 
@<TRIPOS>ATOM
       1    C1      20.596121   19.104045   27.117501 C.2        1 MOL1         0.6168
       2    O1      21.541754   19.831706   27.347802 O.co2      1 MOL1        -0.6703
       3    O2      19.985226   18.501667   27.978160 O.co2      1 MOL1        -0.6703
       4    C2      20.136078   18.956501   25.671674 C.3        1 MOL1        -0.1963
       5    H1      19.717060   17.950803   25.548489 H          1 MOL1         0.0750
       6    H2      21.023651   19.025425   25.032628 H          1 MOL1         0.0750
       7    C3      19.092251   20.026105   25.262113 C.3        1 MOL1        -0.1860
       8    H3      18.272939   20.017062   25.994266 H          1 MOL1         0.0752
       9    H4      19.551350   21.022241   25.327086 H          1 MOL1         0.0752
      10    C4      18.491324   19.823286   23.848349 C.3        1 MOL1        -0.1858
      11    H5      17.736548   20.606530   23.694127 H          1 MOL1         0.0752
      12    H6      17.946196   18.870546   23.802306 H          1 MOL1         0.0752
      13    C5      19.520574   19.909823   22.692873 C.3        1 MOL1        -0.1858
      14    H7      19.039652   20.412052   21.843398 H          1 MOL1         0.0752
      15    H8      20.365724   20.546586   22.987681 H          1 MOL1         0.0752
      16    C6      20.027404   18.523813   22.221705 C.3        1 MOL1        -0.1858
      17    H9      19.187698   17.947268   21.810422 H          1 MOL1         0.0752
      18    H10     20.398590   17.951100   23.079630 H          1 MOL1         0.0752
      19    C7      21.156862   18.609726   21.168882 C.3        1 MOL1        -0.1834
      20    H11     22.004401   19.174966   21.580546 H          1 MOL1         0.0752
      21    H12     21.528956   17.595721   20.967578 H          1 MOL1         0.0752
      22    C8      20.705407   19.247327   19.836941 C.3        1 MOL1        -0.2849
      23    H13     20.433281   20.301878   19.969798 H          1 MOL1         0.0764
      24    H14     21.514915   19.204011   19.096876 H          1 MOL1         0.0764
      25    H15     19.838697   18.717062   19.421342 H          1 MOL1         0.0764
@<TRIPOS>BOND
    1     1     2    1
    2     1     3    2
    3     1     4    1
    4     4     5    1
    5     4     6    1
    6     4     7    1
    7     7     8    1
    8     7     9    1
    9     7    10    1
   10    10    11    1
   11    10    12    1
   12    10    13    1
   13    13    14    1
   14    13    15    1
   15    13    16    1
   16    16    17    1
   17    16    18    1
   18    16    19    1
   19    19    20    1
   20    19    21    1
   21    19    22    1
   22    22    23    1
   23    22    24    1
   24    22    25    1
@<TRIPOS>SUBSTRUCTURE
       1 MOL1            1 RESIDUE      1      MOL     
@<SCITEGIC>MOL_PROPERTY
VM2 Rank
SciTegic.value.IntegerValue
106

@<SCITEGIC>MOL_PROPERTY
Conf_Id
SciTegic.value.IntegerValue
534

@<SCITEGIC>MOL_PROPERTY
Probability
SciTegic.value.DoubleValue
0.01

@<SCITEGIC>MOL_PROPERTY
Sum Probability
SciTegic.value.DoubleValue
99.81

@<SCITEGIC>MOL_PROPERTY
Delta G
SciTegic.value.DoubleValue
4.661

@<SCITEGIC>MOL_PROPERTY
G
SciTegic.value.DoubleValue
-3.301

@<SCITEGIC>MOL_PROPERTY
E
SciTegic.value.DoubleValue
-28.221

@<SCITEGIC>MOL_PROPERTY
-TS
SciTegic.value.DoubleValue
24.920

@<SCITEGIC>MOL_PROPERTY
U+W
SciTegic.value.DoubleValue
-48.788

@<SCITEGIC>MOL_PROPERTY
U
SciTegic.value.DoubleValue
10.710

@<SCITEGIC>MOL_PROPERTY
W
SciTegic.value.DoubleValue
-59.498

@<SCITEGIC>MOL_PROPERTY
W(PB)
SciTegic.value.DoubleValue
-61.911

@<SCITEGIC>MOL_PROPERTY
W(SA)
SciTegic.value.DoubleValue
2.413

@<SCITEGIC>MOL_PROPERTY
Valence
SciTegic.value.DoubleValue
11.065

@<SCITEGIC>MOL_PROPERTY
Coulomb
SciTegic.value.DoubleValue
-1.442

@<SCITEGIC>MOL_PROPERTY
VdW
SciTegic.value.DoubleValue
1.087

@<SCITEGIC>MOL_PROPERTY
VdW6
SciTegic.value.DoubleValue
-9.992

@<SCITEGIC>MOL_PROPERTY
VdW12
SciTegic.value.DoubleValue
11.079

@<SCITEGIC>MOL_PROPERTY
Bond
SciTegic.value.DoubleValue
0.233

@<SCITEGIC>MOL_PROPERTY
Angle
SciTegic.value.DoubleValue
3.173

@<SCITEGIC>MOL_PROPERTY
Pdih
SciTegic.value.DoubleValue
7.658

@<SCITEGIC>MOL_PROPERTY
Idih
SciTegic.value.DoubleValue
0.001

@<SCITEGIC>MOL_PROPERTY
Tether
SciTegic.value.DoubleValue
0.000

@<TRIPOS>MOLECULE
guest-8_vm2.mol2 : vm2 ligand conformer 107
          25          24           1
SMALL
USER_CHARGES
 
@<TRIPOS>ATOM
       1    C1      19.975072   19.545753   27.377799 C.2        1 MOL1         0.6168
       2    O1      21.042409   19.648332   27.949647 O.co2      1 MOL1        -0.6703
       3    O2      18.928980   19.298045   27.944454 O.co2      1 MOL1        -0.6703
       4    C2      19.950647   19.714251   25.862880 C.3        1 MOL1        -0.1963
       5    H1      20.720306   20.447337   25.596170 H          1 MOL1         0.0750
       6    H2      18.981082   20.143741   25.583872 H          1 MOL1         0.0750
       7    C3      20.182121   18.380069   25.107033 C.3        1 MOL1        -0.1860
       8    H3      21.173114   17.980552   25.363128 H          1 MOL1         0.0752
       9    H4      19.449306   17.641590   25.460587 H          1 MOL1         0.0752
      10    C4      20.052193   18.512297   23.570954 C.3        1 MOL1        -0.1858
      11    H5      19.051254   18.891341   23.327466 H          1 MOL1         0.0752
      12    H6      20.130363   17.511560   23.124889 H          1 MOL1         0.0752
      13    C5      21.126131   19.431437   22.942871 C.3        1 MOL1        -0.1858
      14    H7      20.959455   20.468943   23.260745 H          1 MOL1         0.0752
      15    H8      22.112575   19.143177   23.330783 H          1 MOL1         0.0752
      16    C6      21.178843   19.380371   21.395113 C.3        1 MOL1        -0.1858
      17    H9      21.428617   18.364856   21.058694 H          1 MOL1         0.0752
      18    H10     22.015647   20.015142   21.073127 H          1 MOL1         0.0752
      19    C7      19.895591   19.880863   20.685818 C.3        1 MOL1        -0.1834
      20    H11     19.384795   20.629845   21.306583 H          1 MOL1         0.0752
      21    H12     20.185853   20.397737   19.760683 H          1 MOL1         0.0752
      22    C8      18.921015   18.742583   20.309431 C.3        1 MOL1        -0.2849
      23    H13     18.566514   18.199299   21.192465 H          1 MOL1         0.0764
      24    H14     18.042157   19.146238   19.790326 H          1 MOL1         0.0764
      25    H15     19.404458   18.020511   19.638666 H          1 MOL1         0.0764
@<TRIPOS>BOND
    1     1     2    1
    2     1     3    2
    3     1     4    1
    4     4     5    1
    5     4     6    1
    6     4     7    1
    7     7     8    1
    8     7     9    1
    9     7    10    1
   10    10    11    1
   11    10    12    1
   12    10    13    1
   13    13    14    1
   14    13    15    1
   15    13    16    1
   16    16    17    1
   17    16    18    1
   18    16    19    1
   19    19    20    1
   20    19    21    1
   21    19    22    1
   22    22    23    1
   23    22    24    1
   24    22    25    1
@<TRIPOS>SUBSTRUCTURE
       1 MOL1            1 RESIDUE      1      MOL     
@<SCITEGIC>MOL_PROPERTY
VM2 Rank
SciTegic.value.IntegerValue
107

@<SCITEGIC>MOL_PROPERTY
Conf_Id
SciTegic.value.IntegerValue
527

@<SCITEGIC>MOL_PROPERTY
Probability
SciTegic.value.DoubleValue
0.01

@<SCITEGIC>MOL_PROPERTY
Sum Probability
SciTegic.value.DoubleValue
99.81

@<SCITEGIC>MOL_PROPERTY
Delta G
SciTegic.value.DoubleValue
4.698

@<SCITEGIC>MOL_PROPERTY
G
SciTegic.value.DoubleValue
-3.264

@<SCITEGIC>MOL_PROPERTY
E
SciTegic.value.DoubleValue
-28.120

@<SCITEGIC>MOL_PROPERTY
-TS
SciTegic.value.DoubleValue
24.856

@<SCITEGIC>MOL_PROPERTY
U+W
SciTegic.value.DoubleValue
-48.688

@<SCITEGIC>MOL_PROPERTY
U
SciTegic.value.DoubleValue
10.438

@<SCITEGIC>MOL_PROPERTY
W
SciTegic.value.DoubleValue
-59.126

@<SCITEGIC>MOL_PROPERTY
W(PB)
SciTegic.value.DoubleValue
-61.576

@<SCITEGIC>MOL_PROPERTY
W(SA)
SciTegic.value.DoubleValue
2.450

@<SCITEGIC>MOL_PROPERTY
Valence
SciTegic.value.DoubleValue
10.999

@<SCITEGIC>MOL_PROPERTY
Coulomb
SciTegic.value.DoubleValue
-1.665

@<SCITEGIC>MOL_PROPERTY
VdW
SciTegic.value.DoubleValue
1.104

@<SCITEGIC>MOL_PROPERTY
VdW6
SciTegic.value.DoubleValue
-9.904

@<SCITEGIC>MOL_PROPERTY
VdW12
SciTegic.value.DoubleValue
11.008

@<SCITEGIC>MOL_PROPERTY
Bond
SciTegic.value.DoubleValue
0.232

@<SCITEGIC>MOL_PROPERTY
Angle
SciTegic.value.DoubleValue
3.215

@<SCITEGIC>MOL_PROPERTY
Pdih
SciTegic.value.DoubleValue
7.552

@<SCITEGIC>MOL_PROPERTY
Idih
SciTegic.value.DoubleValue
0.001

@<SCITEGIC>MOL_PROPERTY
Tether
SciTegic.value.DoubleValue
0.000

@<TRIPOS>MOLECULE
guest-8_vm2.mol2 : vm2 ligand conformer 108
          25          24           1
SMALL
USER_CHARGES
 
@<TRIPOS>ATOM
       1    C1      19.647890   19.403313   27.039156 C.2        1 MOL1         0.6168
       2    O1      20.213167   19.300537   28.110019 O.co2      1 MOL1        -0.6703
       3    O2      18.645522   20.068600   26.868112 O.co2      1 MOL1        -0.6703
       4    C2      20.241186   18.673412   25.839591 C.3        1 MOL1        -0.1963
       5    H1      19.415857   18.386744   25.180715 H          1 MOL1         0.0750
       6    H2      20.698482   17.744848   26.201403 H          1 MOL1         0.0750
       7    C3      21.293939   19.524098   25.080852 C.3        1 MOL1        -0.1860
       8    H3      20.853101   20.480712   24.767853 H          1 MOL1         0.0752
       9    H4      22.097646   19.774833   25.786986 H          1 MOL1         0.0752
      10    C4      21.915206   18.795458   23.862082 C.3        1 MOL1        -0.1858
      11    H5      21.928448   17.710267   24.032457 H          1 MOL1         0.0752
      12    H6      22.968491   19.097880   23.784323 H          1 MOL1         0.0752
      13    C5      21.238985   19.113965   22.504864 C.3        1 MOL1        -0.1858
      14    H7      21.316457   20.191761   22.310497 H          1 MOL1         0.0752
      15    H8      21.809187   18.614495   21.709911 H          1 MOL1         0.0752
      16    C6      19.759026   18.672882   22.413532 C.3        1 MOL1        -0.1858
      17    H9      19.146854   19.285463   23.088245 H          1 MOL1         0.0752
      18    H10     19.671610   17.633786   22.758545 H          1 MOL1         0.0752
      19    C7      19.179629   18.767815   20.982859 C.3        1 MOL1        -0.1834
      20    H11     19.772943   18.144354   20.299845 H          1 MOL1         0.0752
      21    H12     18.164777   18.346817   20.984468 H          1 MOL1         0.0752
      22    C8      19.118449   20.213921   20.444933 C.3        1 MOL1        -0.2849
      23    H13     20.122990   20.638099   20.323092 H          1 MOL1         0.0764
      24    H14     18.625659   20.238599   19.464422 H          1 MOL1         0.0764
      25    H15     18.550904   20.862186   21.125220 H          1 MOL1         0.0764
@<TRIPOS>BOND
    1     1     2    1
    2     1     3    2
    3     1     4    1
    4     4     5    1
    5     4     6    1
    6     4     7    1
    7     7     8    1
    8     7     9    1
    9     7    10    1
   10    10    11    1
   11    10    12    1
   12    10    13    1
   13    13    14    1
   14    13    15    1
   15    13    16    1
   16    16    17    1
   17    16    18    1
   18    16    19    1
   19    19    20    1
   20    19    21    1
   21    19    22    1
   22    22    23    1
   23    22    24    1
   24    22    25    1
@<TRIPOS>SUBSTRUCTURE
       1 MOL1            1 RESIDUE      1      MOL     
@<SCITEGIC>MOL_PROPERTY
VM2 Rank
SciTegic.value.IntegerValue
108

@<SCITEGIC>MOL_PROPERTY
Conf_Id
SciTegic.value.IntegerValue
232

@<SCITEGIC>MOL_PROPERTY
Probability
SciTegic.value.DoubleValue
0.01

@<SCITEGIC>MOL_PROPERTY
Sum Probability
SciTegic.value.DoubleValue
99.82

@<SCITEGIC>MOL_PROPERTY
Delta G
SciTegic.value.DoubleValue
4.706

@<SCITEGIC>MOL_PROPERTY
G
SciTegic.value.DoubleValue
-3.256

@<SCITEGIC>MOL_PROPERTY
E
SciTegic.value.DoubleValue
-28.165

@<SCITEGIC>MOL_PROPERTY
-TS
SciTegic.value.DoubleValue
24.908

@<SCITEGIC>MOL_PROPERTY
U+W
SciTegic.value.DoubleValue
-48.732

@<SCITEGIC>MOL_PROPERTY
U
SciTegic.value.DoubleValue
10.997

@<SCITEGIC>MOL_PROPERTY
W
SciTegic.value.DoubleValue
-59.729

@<SCITEGIC>MOL_PROPERTY
W(PB)
SciTegic.value.DoubleValue
-62.151

@<SCITEGIC>MOL_PROPERTY
W(SA)
SciTegic.value.DoubleValue
2.422

@<SCITEGIC>MOL_PROPERTY
Valence
SciTegic.value.DoubleValue
10.985

@<SCITEGIC>MOL_PROPERTY
Coulomb
SciTegic.value.DoubleValue
-0.994

@<SCITEGIC>MOL_PROPERTY
VdW
SciTegic.value.DoubleValue
1.006

@<SCITEGIC>MOL_PROPERTY
VdW6
SciTegic.value.DoubleValue
-10.062

@<SCITEGIC>MOL_PROPERTY
VdW12
SciTegic.value.DoubleValue
11.068

@<SCITEGIC>MOL_PROPERTY
Bond
SciTegic.value.DoubleValue
0.238

@<SCITEGIC>MOL_PROPERTY
Angle
SciTegic.value.DoubleValue
3.202

@<SCITEGIC>MOL_PROPERTY
Pdih
SciTegic.value.DoubleValue
7.544

@<SCITEGIC>MOL_PROPERTY
Idih
SciTegic.value.DoubleValue
0.001

@<SCITEGIC>MOL_PROPERTY
Tether
SciTegic.value.DoubleValue
0.000

@<TRIPOS>MOLECULE
guest-8_vm2.mol2 : vm2 ligand conformer 109
          25          24           1
SMALL
USER_CHARGES
 
@<TRIPOS>ATOM
       1    C1      20.642261   19.467171   27.027574 C.2        1 MOL1         0.6168
       2    O1      21.547544   20.254402   26.834351 O.co2      1 MOL1        -0.6703
       3    O2      20.119339   19.295150   28.110999 O.co2      1 MOL1        -0.6703
       4    C2      20.119471   18.665512   25.841091 C.3        1 MOL1        -0.1963
       5    H1      19.792842   17.686808   26.212184 H          1 MOL1         0.0750
       6    H2      20.959227   18.485367   25.162988 H          1 MOL1         0.0750
       7    C3      18.949587   19.373646   25.107907 C.3        1 MOL1        -0.1860
       8    H3      18.136882   19.520869   25.832664 H          1 MOL1         0.0752
       9    H4      19.257405   20.378203   24.786152 H          1 MOL1         0.0752
      10    C4      18.398604   18.569720   23.902748 C.3        1 MOL1        -0.1858
      11    H5      17.313795   18.734927   23.849718 H          1 MOL1         0.0752
      12    H6      18.528099   17.491998   24.071822 H          1 MOL1         0.0752
      13    C5      18.997134   18.969971   22.530773 C.3        1 MOL1        -0.1858
      14    H7      18.477338   18.400472   21.748447 H          1 MOL1         0.0752
      15    H8      18.778042   20.028716   22.339768 H          1 MOL1         0.0752
      16    C6      20.518846   18.721583   22.404801 C.3        1 MOL1        -0.1858
      17    H9      20.746283   17.702681   22.746135 H          1 MOL1         0.0752
      18    H10     21.063026   19.408356   23.066209 H          1 MOL1         0.0752
      19    C7      21.048320   18.887759   20.961342 C.3        1 MOL1        -0.1834
      20    H11     22.108401   18.599852   20.938971 H          1 MOL1         0.0752
      21    H12     20.523961   18.192666   20.291173 H          1 MOL1         0.0752
      22    C8      20.911893   20.329087   20.424413 C.3        1 MOL1        -0.2849
      23    H13     21.374730   20.415128   19.432834 H          1 MOL1         0.0764
      24    H14     19.858870   20.621349   20.326449 H          1 MOL1         0.0764
      25    H15     21.407563   21.045466   21.092437 H          1 MOL1         0.0764
@<TRIPOS>BOND
    1     1     2    1
    2     1     3    2
    3     1     4    1
    4     4     5    1
    5     4     6    1
    6     4     7    1
    7     7     8    1
    8     7     9    1
    9     7    10    1
   10    10    11    1
   11    10    12    1
   12    10    13    1
   13    13    14    1
   14    13    15    1
   15    13    16    1
   16    16    17    1
   17    16    18    1
   18    16    19    1
   19    19    20    1
   20    19    21    1
   21    19    22    1
   22    22    23    1
   23    22    24    1
   24    22    25    1
@<TRIPOS>SUBSTRUCTURE
       1 MOL1            1 RESIDUE      1      MOL     
@<SCITEGIC>MOL_PROPERTY
VM2 Rank
SciTegic.value.IntegerValue
109

@<SCITEGIC>MOL_PROPERTY
Conf_Id
SciTegic.value.IntegerValue
1080

@<SCITEGIC>MOL_PROPERTY
Probability
SciTegic.value.DoubleValue
0.01

@<SCITEGIC>MOL_PROPERTY
Sum Probability
SciTegic.value.DoubleValue
99.83

@<SCITEGIC>MOL_PROPERTY
Delta G
SciTegic.value.DoubleValue
4.712

@<SCITEGIC>MOL_PROPERTY
G
SciTegic.value.DoubleValue
-3.250

@<SCITEGIC>MOL_PROPERTY
E
SciTegic.value.DoubleValue
-28.158

@<SCITEGIC>MOL_PROPERTY
-TS
SciTegic.value.DoubleValue
24.908

@<SCITEGIC>MOL_PROPERTY
U+W
SciTegic.value.DoubleValue
-48.726

@<SCITEGIC>MOL_PROPERTY
U
SciTegic.value.DoubleValue
10.997

@<SCITEGIC>MOL_PROPERTY
W
SciTegic.value.DoubleValue
-59.723

@<SCITEGIC>MOL_PROPERTY
W(PB)
SciTegic.value.DoubleValue
-62.151

@<SCITEGIC>MOL_PROPERTY
W(SA)
SciTegic.value.DoubleValue
2.428

@<SCITEGIC>MOL_PROPERTY
Valence
SciTegic.value.DoubleValue
10.985

@<SCITEGIC>MOL_PROPERTY
Coulomb
SciTegic.value.DoubleValue
-0.994

@<SCITEGIC>MOL_PROPERTY
VdW
SciTegic.value.DoubleValue
1.006

@<SCITEGIC>MOL_PROPERTY
VdW6
SciTegic.value.DoubleValue
-10.063

@<SCITEGIC>MOL_PROPERTY
VdW12
SciTegic.value.DoubleValue
11.069

@<SCITEGIC>MOL_PROPERTY
Bond
SciTegic.value.DoubleValue
0.238

@<SCITEGIC>MOL_PROPERTY
Angle
SciTegic.value.DoubleValue
3.202

@<SCITEGIC>MOL_PROPERTY
Pdih
SciTegic.value.DoubleValue
7.545

@<SCITEGIC>MOL_PROPERTY
Idih
SciTegic.value.DoubleValue
0.001

@<SCITEGIC>MOL_PROPERTY
Tether
SciTegic.value.DoubleValue
0.000

@<TRIPOS>MOLECULE
guest-8_vm2.mol2 : vm2 ligand conformer 110
          25          24           1
SMALL
USER_CHARGES
 
@<TRIPOS>ATOM
       1    C1      20.139220   18.894307   27.255789 C.2        1 MOL1         0.6168
       2    O1      21.164864   18.617219   27.845741 O.co2      1 MOL1        -0.6703
       3    O2      19.104447   19.202797   27.813304 O.co2      1 MOL1        -0.6703
       4    C2      20.158195   18.875713   25.731570 C.3        1 MOL1        -0.1963
       5    H1      19.163624   18.568266   25.389900 H          1 MOL1         0.0750
       6    H2      20.866188   18.102719   25.409675 H          1 MOL1         0.0750
       7    C3      20.548342   20.246402   25.119808 C.3        1 MOL1        -0.1860
       8    H3      19.807128   21.003646   25.410369 H          1 MOL1         0.0752
       9    H4      21.505383   20.566187   25.554793 H          1 MOL1         0.0752
      10    C4      20.690515   20.214915   23.579519 C.3        1 MOL1        -0.1858
      11    H5      21.433602   19.458728   23.300068 H          1 MOL1         0.0752
      12    H6      21.097172   21.180357   23.249165 H          1 MOL1         0.0752
      13    C5      19.350710   19.959934   22.844472 C.3        1 MOL1        -0.1858
      14    H7      18.914479   18.999425   23.146761 H          1 MOL1         0.0752
      15    H8      18.636748   20.733672   23.157926 H          1 MOL1         0.0752
      16    C6      19.480743   20.008232   21.300563 C.3        1 MOL1        -0.1858
      17    H9      20.297084   20.682021   21.006801 H          1 MOL1         0.0752
      18    H10     18.563670   20.456624   20.894663 H          1 MOL1         0.0752
      19    C7      19.662325   18.626912   20.623750 C.3        1 MOL1        -0.1834
      20    H11     18.793719   17.991574   20.845307 H          1 MOL1         0.0752
      21    H12     19.667800   18.770548   19.534492 H          1 MOL1         0.0752
      22    C8      20.953640   17.887567   21.031485 C.3        1 MOL1        -0.2849
      23    H13     21.085600   16.982448   20.424794 H          1 MOL1         0.0764
      24    H14     21.835476   18.524853   20.885995 H          1 MOL1         0.0764
      25    H15     20.916154   17.577407   22.083157 H          1 MOL1         0.0764
@<TRIPOS>BOND
    1     1     2    1
    2     1     3    2
    3     1     4    1
    4     4     5    1
    5     4     6    1
    6     4     7    1
    7     7     8    1
    8     7     9    1
    9     7    10    1
   10    10    11    1
   11    10    12    1
   12    10    13    1
   13    13    14    1
   14    13    15    1
   15    13    16    1
   16    16    17    1
   17    16    18    1
   18    16    19    1
   19    19    20    1
   20    19    21    1
   21    19    22    1
   22    22    23    1
   23    22    24    1
   24    22    25    1
@<TRIPOS>SUBSTRUCTURE
       1 MOL1            1 RESIDUE      1      MOL     
@<SCITEGIC>MOL_PROPERTY
VM2 Rank
SciTegic.value.IntegerValue
110

@<SCITEGIC>MOL_PROPERTY
Conf_Id
SciTegic.value.IntegerValue
234

@<SCITEGIC>MOL_PROPERTY
Probability
SciTegic.value.DoubleValue
0.01

@<SCITEGIC>MOL_PROPERTY
Sum Probability
SciTegic.value.DoubleValue
99.84

@<SCITEGIC>MOL_PROPERTY
Delta G
SciTegic.value.DoubleValue
4.716

@<SCITEGIC>MOL_PROPERTY
G
SciTegic.value.DoubleValue
-3.247

@<SCITEGIC>MOL_PROPERTY
E
SciTegic.value.DoubleValue
-28.056

@<SCITEGIC>MOL_PROPERTY
-TS
SciTegic.value.DoubleValue
24.810

@<SCITEGIC>MOL_PROPERTY
U+W
SciTegic.value.DoubleValue
-48.624

@<SCITEGIC>MOL_PROPERTY
U
SciTegic.value.DoubleValue
10.664

@<SCITEGIC>MOL_PROPERTY
W
SciTegic.value.DoubleValue
-59.288

@<SCITEGIC>MOL_PROPERTY
W(PB)
SciTegic.value.DoubleValue
-61.722

@<SCITEGIC>MOL_PROPERTY
W(SA)
SciTegic.value.DoubleValue
2.435

@<SCITEGIC>MOL_PROPERTY
Valence
SciTegic.value.DoubleValue
11.013

@<SCITEGIC>MOL_PROPERTY
Coulomb
SciTegic.value.DoubleValue
-1.402

@<SCITEGIC>MOL_PROPERTY
VdW
SciTegic.value.DoubleValue
1.052

@<SCITEGIC>MOL_PROPERTY
VdW6
SciTegic.value.DoubleValue
-9.993

@<SCITEGIC>MOL_PROPERTY
VdW12
SciTegic.value.DoubleValue
11.045

@<SCITEGIC>MOL_PROPERTY
Bond
SciTegic.value.DoubleValue
0.241

@<SCITEGIC>MOL_PROPERTY
Angle
SciTegic.value.DoubleValue
3.227

@<SCITEGIC>MOL_PROPERTY
Pdih
SciTegic.value.DoubleValue
7.545

@<SCITEGIC>MOL_PROPERTY
Idih
SciTegic.value.DoubleValue
0.001

@<SCITEGIC>MOL_PROPERTY
Tether
SciTegic.value.DoubleValue
0.000

@<TRIPOS>MOLECULE
guest-8_vm2.mol2 : vm2 ligand conformer 111
          25          24           1
SMALL
USER_CHARGES
 
@<TRIPOS>ATOM
       1    C1      20.764625   19.136442   26.489631 C.2        1 MOL1         0.6168
       2    O1      21.707849   19.886296   26.330612 O.co2      1 MOL1        -0.6703
       3    O2      20.880159   17.935857   26.641046 O.co2      1 MOL1        -0.6703
       4    C2      19.366774   19.746637   26.574629 C.3        1 MOL1        -0.1963
       5    H1      19.445966   20.835344   26.468682 H          1 MOL1         0.0750
       6    H2      19.008835   19.555743   27.592907 H          1 MOL1         0.0750
       7    C3      18.333105   19.180587   25.560655 C.3        1 MOL1        -0.1860
       8    H3      18.407909   18.084913   25.521960 H          1 MOL1         0.0752
       9    H4      17.327240   19.401097   25.942772 H          1 MOL1         0.0752
      10    C4      18.434710   19.770369   24.132040 C.3        1 MOL1        -0.1858
      11    H5      18.344498   20.864287   24.176690 H          1 MOL1         0.0752
      12    H6      17.572700   19.412924   23.552258 H          1 MOL1         0.0752
      13    C5      19.730398   19.386013   23.382138 C.3        1 MOL1        -0.1858
      14    H7      20.595911   19.849451   23.871970 H          1 MOL1         0.0752
      15    H8      19.871501   18.298769   23.437765 H          1 MOL1         0.0752
      16    C6      19.688415   19.838640   21.904017 C.3        1 MOL1        -0.1858
      17    H9      19.471403   20.914916   21.866647 H          1 MOL1         0.0752
      18    H10     18.860731   19.335720   21.385552 H          1 MOL1         0.0752
      19    C7      21.009316   19.576963   21.143518 C.3        1 MOL1        -0.1834
      20    H11     20.936978   20.029155   20.144790 H          1 MOL1         0.0752
      21    H12     21.838389   20.085125   21.655223 H          1 MOL1         0.0752
      22    C8      21.337649   18.076196   20.987714 C.3        1 MOL1        -0.2849
      23    H13     20.509407   17.540572   20.505860 H          1 MOL1         0.0764
      24    H14     22.233572   17.941504   20.368012 H          1 MOL1         0.0764
      25    H15     21.532821   17.606401   21.959926 H          1 MOL1         0.0764
@<TRIPOS>BOND
    1     1     2    1
    2     1     3    2
    3     1     4    1
    4     4     5    1
    5     4     6    1
    6     4     7    1
    7     7     8    1
    8     7     9    1
    9     7    10    1
   10    10    11    1
   11    10    12    1
   12    10    13    1
   13    13    14    1
   14    13    15    1
   15    13    16    1
   16    16    17    1
   17    16    18    1
   18    16    19    1
   19    19    20    1
   20    19    21    1
   21    19    22    1
   22    22    23    1
   23    22    24    1
   24    22    25    1
@<TRIPOS>SUBSTRUCTURE
       1 MOL1            1 RESIDUE      1      MOL     
@<SCITEGIC>MOL_PROPERTY
VM2 Rank
SciTegic.value.IntegerValue
111

@<SCITEGIC>MOL_PROPERTY
Conf_Id
SciTegic.value.IntegerValue
528

@<SCITEGIC>MOL_PROPERTY
Probability
SciTegic.value.DoubleValue
0.01

@<SCITEGIC>MOL_PROPERTY
Sum Probability
SciTegic.value.DoubleValue
99.85

@<SCITEGIC>MOL_PROPERTY
Delta G
SciTegic.value.DoubleValue
4.775

@<SCITEGIC>MOL_PROPERTY
G
SciTegic.value.DoubleValue
-3.188

@<SCITEGIC>MOL_PROPERTY
E
SciTegic.value.DoubleValue
-28.329

@<SCITEGIC>MOL_PROPERTY
-TS
SciTegic.value.DoubleValue
25.141

@<SCITEGIC>MOL_PROPERTY
U+W
SciTegic.value.DoubleValue
-48.897

@<SCITEGIC>MOL_PROPERTY
U
SciTegic.value.DoubleValue
12.313

@<SCITEGIC>MOL_PROPERTY
W
SciTegic.value.DoubleValue
-61.210

@<SCITEGIC>MOL_PROPERTY
W(PB)
SciTegic.value.DoubleValue
-63.636

@<SCITEGIC>MOL_PROPERTY
W(SA)
SciTegic.value.DoubleValue
2.427

@<SCITEGIC>MOL_PROPERTY
Valence
SciTegic.value.DoubleValue
9.950

@<SCITEGIC>MOL_PROPERTY
Coulomb
SciTegic.value.DoubleValue
1.612

@<SCITEGIC>MOL_PROPERTY
VdW
SciTegic.value.DoubleValue
0.751

@<SCITEGIC>MOL_PROPERTY
VdW6
SciTegic.value.DoubleValue
-10.687

@<SCITEGIC>MOL_PROPERTY
VdW12
SciTegic.value.DoubleValue
11.438

@<SCITEGIC>MOL_PROPERTY
Bond
SciTegic.value.DoubleValue
0.232

@<SCITEGIC>MOL_PROPERTY
Angle
SciTegic.value.DoubleValue
3.418

@<SCITEGIC>MOL_PROPERTY
Pdih
SciTegic.value.DoubleValue
6.293

@<SCITEGIC>MOL_PROPERTY
Idih
SciTegic.value.DoubleValue
0.007

@<SCITEGIC>MOL_PROPERTY
Tether
SciTegic.value.DoubleValue
0.000

@<TRIPOS>MOLECULE
guest-8_vm2.mol2 : vm2 ligand conformer 112
          25          24           1
SMALL
USER_CHARGES
 
@<TRIPOS>ATOM
       1    C1      19.989407   19.888348   27.028427 C.2        1 MOL1         0.6168
       2    O1      21.040453   20.137871   27.585046 O.co2      1 MOL1        -0.6703
       3    O2      18.912848   19.888107   27.592158 O.co2      1 MOL1        -0.6703
       4    C2      20.025913   19.533074   25.546465 C.3        1 MOL1        -0.1963
       5    H1      20.839946   20.105801   25.088335 H          1 MOL1         0.0750
       6    H2      19.087198   19.871019   25.091559 H          1 MOL1         0.0750
       7    C3      20.226954   18.016905   25.297496 C.3        1 MOL1        -0.1860
       8    H3      21.206537   17.711977   25.690771 H          1 MOL1         0.0752
       9    H4      19.476651   17.462520   25.878118 H          1 MOL1         0.0752
      10    C4      20.108048   17.595226   23.811364 C.3        1 MOL1        -0.1858
      11    H5      19.096652   17.810319   23.445069 H          1 MOL1         0.0752
      12    H6      20.213002   16.502577   23.768553 H          1 MOL1         0.0752
      13    C5      21.180222   18.218387   22.878159 C.3        1 MOL1        -0.1858
      14    H7      22.089082   18.429892   23.457758 H          1 MOL1         0.0752
      15    H8      21.475719   17.472120   22.128110 H          1 MOL1         0.0752
      16    C6      20.730730   19.502580   22.135670 C.3        1 MOL1        -0.1858
      17    H9      21.617727   19.973170   21.690202 H          1 MOL1         0.0752
      18    H10     20.318938   20.231413   22.843686 H          1 MOL1         0.0752
      19    C7      19.701302   19.230548   21.014778 C.3        1 MOL1        -0.1834
      20    H11     20.110362   18.496674   20.306810 H          1 MOL1         0.0752
      21    H12     18.786730   18.792071   21.434107 H          1 MOL1         0.0752
      22    C8      19.337124   20.522952   20.256436 C.3        1 MOL1        -0.2849
      23    H13     20.225283   20.968617   19.789666 H          1 MOL1         0.0764
      24    H14     18.606905   20.313718   19.463956 H          1 MOL1         0.0764
      25    H15     18.897283   21.265372   20.935193 H          1 MOL1         0.0764
@<TRIPOS>BOND
    1     1     2    1
    2     1     3    2
    3     1     4    1
    4     4     5    1
    5     4     6    1
    6     4     7    1
    7     7     8    1
    8     7     9    1
    9     7    10    1
   10    10    11    1
   11    10    12    1
   12    10    13    1
   13    13    14    1
   14    13    15    1
   15    13    16    1
   16    16    17    1
   17    16    18    1
   18    16    19    1
   19    19    20    1
   20    19    21    1
   21    19    22    1
   22    22    23    1
   23    22    24    1
   24    22    25    1
@<TRIPOS>SUBSTRUCTURE
       1 MOL1            1 RESIDUE      1      MOL     
@<SCITEGIC>MOL_PROPERTY
VM2 Rank
SciTegic.value.IntegerValue
112

@<SCITEGIC>MOL_PROPERTY
Conf_Id
SciTegic.value.IntegerValue
793

@<SCITEGIC>MOL_PROPERTY
Probability
SciTegic.value.DoubleValue
0.01

@<SCITEGIC>MOL_PROPERTY
Sum Probability
SciTegic.value.DoubleValue
99.86

@<SCITEGIC>MOL_PROPERTY
Delta G
SciTegic.value.DoubleValue
4.780

@<SCITEGIC>MOL_PROPERTY
G
SciTegic.value.DoubleValue
-3.183

@<SCITEGIC>MOL_PROPERTY
E
SciTegic.value.DoubleValue
-28.034

@<SCITEGIC>MOL_PROPERTY
-TS
SciTegic.value.DoubleValue
24.851

@<SCITEGIC>MOL_PROPERTY
U+W
SciTegic.value.DoubleValue
-48.601

@<SCITEGIC>MOL_PROPERTY
U
SciTegic.value.DoubleValue
10.987

@<SCITEGIC>MOL_PROPERTY
W
SciTegic.value.DoubleValue
-59.588

@<SCITEGIC>MOL_PROPERTY
W(PB)
SciTegic.value.DoubleValue
-62.018

@<SCITEGIC>MOL_PROPERTY
W(SA)
SciTegic.value.DoubleValue
2.430

@<SCITEGIC>MOL_PROPERTY
Valence
SciTegic.value.DoubleValue
11.268

@<SCITEGIC>MOL_PROPERTY
Coulomb
SciTegic.value.DoubleValue
-1.344

@<SCITEGIC>MOL_PROPERTY
VdW
SciTegic.value.DoubleValue
1.063

@<SCITEGIC>MOL_PROPERTY
VdW6
SciTegic.value.DoubleValue
-9.930

@<SCITEGIC>MOL_PROPERTY
VdW12
SciTegic.value.DoubleValue
10.993

@<SCITEGIC>MOL_PROPERTY
Bond
SciTegic.value.DoubleValue
0.245

@<SCITEGIC>MOL_PROPERTY
Angle
SciTegic.value.DoubleValue
3.252

@<SCITEGIC>MOL_PROPERTY
Pdih
SciTegic.value.DoubleValue
7.770

@<SCITEGIC>MOL_PROPERTY
Idih
SciTegic.value.DoubleValue
0.001

@<SCITEGIC>MOL_PROPERTY
Tether
SciTegic.value.DoubleValue
0.000

@<TRIPOS>MOLECULE
guest-8_vm2.mol2 : vm2 ligand conformer 113
          25          24           1
SMALL
USER_CHARGES
 
@<TRIPOS>ATOM
       1    C1      20.285593   19.383423   27.430786 C.2        1 MOL1         0.6168
       2    O1      21.373527   19.850982   27.703779 O.co2      1 MOL1        -0.6703
       3    O2      19.624264   18.720660   28.205492 O.co2      1 MOL1        -0.6703
       4    C2      19.729744   19.621988   26.031423 C.3        1 MOL1        -0.1963
       5    H1      20.073704   20.608246   25.700091 H          1 MOL1         0.0750
       6    H2      18.636375   19.664756   26.102448 H          1 MOL1         0.0750
       7    C3      20.158021   18.525915   25.021332 C.3        1 MOL1        -0.1860
       8    H3      21.252491   18.524108   24.924226 H          1 MOL1         0.0752
       9    H4      19.881416   17.543465   25.428353 H          1 MOL1         0.0752
      10    C4      19.510844   18.683849   23.624819 C.3        1 MOL1        -0.1858
      11    H5      18.416977   18.668398   23.724261 H          1 MOL1         0.0752
      12    H6      19.774065   17.807003   23.021445 H          1 MOL1         0.0752
      13    C5      19.944976   19.976051   22.889242 C.3        1 MOL1        -0.1858
      14    H7      19.562069   20.841095   23.445973 H          1 MOL1         0.0752
      15    H8      21.039580   20.068153   22.891838 H          1 MOL1         0.0752
      16    C6      19.408435   20.061685   21.437596 C.3        1 MOL1        -0.1858
      17    H9      19.155106   21.109919   21.228052 H          1 MOL1         0.0752
      18    H10     18.466912   19.503126   21.345709 H          1 MOL1         0.0752
      19    C7      20.410707   19.598667   20.351301 C.3        1 MOL1        -0.1834
      20    H11     19.963580   19.779082   19.364042 H          1 MOL1         0.0752
      21    H12     21.315492   20.220375   20.396927 H          1 MOL1         0.0752
      22    C8      20.806888   18.110779   20.450228 C.3        1 MOL1        -0.2849
      23    H13     19.918256   17.466461   20.460953 H          1 MOL1         0.0764
      24    H14     21.425588   17.820263   19.591417 H          1 MOL1         0.0764
      25    H15     21.390128   17.916234   21.358980 H          1 MOL1         0.0764
@<TRIPOS>BOND
    1     1     2    1
    2     1     3    2
    3     1     4    1
    4     4     5    1
    5     4     6    1
    6     4     7    1
    7     7     8    1
    8     7     9    1
    9     7    10    1
   10    10    11    1
   11    10    12    1
   12    10    13    1
   13    13    14    1
   14    13    15    1
   15    13    16    1
   16    16    17    1
   17    16    18    1
   18    16    19    1
   19    19    20    1
   20    19    21    1
   21    19    22    1
   22    22    23    1
   23    22    24    1
   24    22    25    1
@<TRIPOS>SUBSTRUCTURE
       1 MOL1            1 RESIDUE      1      MOL     
@<SCITEGIC>MOL_PROPERTY
VM2 Rank
SciTegic.value.IntegerValue
113

@<SCITEGIC>MOL_PROPERTY
Conf_Id
SciTegic.value.IntegerValue
797

@<SCITEGIC>MOL_PROPERTY
Probability
SciTegic.value.DoubleValue
0.01

@<SCITEGIC>MOL_PROPERTY
Sum Probability
SciTegic.value.DoubleValue
99.87

@<SCITEGIC>MOL_PROPERTY
Delta G
SciTegic.value.DoubleValue
4.780

@<SCITEGIC>MOL_PROPERTY
G
SciTegic.value.DoubleValue
-3.182

@<SCITEGIC>MOL_PROPERTY
E
SciTegic.value.DoubleValue
-28.064

@<SCITEGIC>MOL_PROPERTY
-TS
SciTegic.value.DoubleValue
24.882

@<SCITEGIC>MOL_PROPERTY
U+W
SciTegic.value.DoubleValue
-48.631

@<SCITEGIC>MOL_PROPERTY
U
SciTegic.value.DoubleValue
10.553

@<SCITEGIC>MOL_PROPERTY
W
SciTegic.value.DoubleValue
-59.184

@<SCITEGIC>MOL_PROPERTY
W(PB)
SciTegic.value.DoubleValue
-61.625

@<SCITEGIC>MOL_PROPERTY
W(SA)
SciTegic.value.DoubleValue
2.441

@<SCITEGIC>MOL_PROPERTY
Valence
SciTegic.value.DoubleValue
11.068

@<SCITEGIC>MOL_PROPERTY
Coulomb
SciTegic.value.DoubleValue
-1.642

@<SCITEGIC>MOL_PROPERTY
VdW
SciTegic.value.DoubleValue
1.127

@<SCITEGIC>MOL_PROPERTY
VdW6
SciTegic.value.DoubleValue
-9.884

@<SCITEGIC>MOL_PROPERTY
VdW12
SciTegic.value.DoubleValue
11.011

@<SCITEGIC>MOL_PROPERTY
Bond
SciTegic.value.DoubleValue
0.238

@<SCITEGIC>MOL_PROPERTY
Angle
SciTegic.value.DoubleValue
3.177

@<SCITEGIC>MOL_PROPERTY
Pdih
SciTegic.value.DoubleValue
7.653

@<SCITEGIC>MOL_PROPERTY
Idih
SciTegic.value.DoubleValue
0.001

@<SCITEGIC>MOL_PROPERTY
Tether
SciTegic.value.DoubleValue
0.000

@<TRIPOS>MOLECULE
guest-8_vm2.mol2 : vm2 ligand conformer 114
          25          24           1
SMALL
USER_CHARGES
 
@<TRIPOS>ATOM
       1    C1      20.175500   19.918876   26.484276 C.2        1 MOL1         0.6168
       2    O1      21.157988   20.616617   26.325798 O.co2      1 MOL1        -0.6703
       3    O2      19.052745   20.363145   26.624727 O.co2      1 MOL1        -0.6703
       4    C2      20.374790   18.407606   26.583712 C.3        1 MOL1        -0.1963
       5    H1      20.085619   18.125225   27.602580 H          1 MOL1         0.0750
       6    H2      21.443619   18.181801   26.486792 H          1 MOL1         0.0750
       7    C3      19.551700   17.561987   25.571549 C.3        1 MOL1        -0.1860
       8    H3      19.482981   16.537694   25.962065 H          1 MOL1         0.0752
       9    H4      18.519701   17.936420   25.522834 H          1 MOL1         0.0752
      10    C4      20.155972   17.484296   24.147496 C.3        1 MOL1        -0.1858
      11    H5      19.577996   16.749662   23.570231 H          1 MOL1         0.0752
      12    H6      21.182016   17.095676   24.202248 H          1 MOL1         0.0752
      13    C5      20.149660   18.829216   23.385889 C.3        1 MOL1        -0.1858
      14    H7      19.143442   19.265768   23.431175 H          1 MOL1         0.0752
      15    H8      20.831074   19.537145   23.874086 H          1 MOL1         0.0752
      16    C6      20.582683   18.651029   21.912044 C.3        1 MOL1        -0.1858
      17    H9      19.873979   17.990107   21.394630 H          1 MOL1         0.0752
      18    H10     21.557269   18.144737   21.885393 H          1 MOL1         0.0752
      19    C7      20.701246   19.986193   21.140749 C.3        1 MOL1        -0.1834
      20    H11     21.415363   20.646978   21.651468 H          1 MOL1         0.0752
      21    H12     21.122389   19.783113   20.146483 H          1 MOL1         0.0752
      22    C8      19.350717   20.715036   20.969759 C.3        1 MOL1        -0.2849
      23    H13     19.472941   21.607936   20.343147 H          1 MOL1         0.0764
      24    H14     18.610261   20.062902   20.488606 H          1 MOL1         0.0764
      25    H15     18.946750   21.040764   21.936561 H          1 MOL1         0.0764
@<TRIPOS>BOND
    1     1     2    1
    2     1     3    2
    3     1     4    1
    4     4     5    1
    5     4     6    1
    6     4     7    1
    7     7     8    1
    8     7     9    1
    9     7    10    1
   10    10    11    1
   11    10    12    1
   12    10    13    1
   13    13    14    1
   14    13    15    1
   15    13    16    1
   16    16    17    1
   17    16    18    1
   18    16    19    1
   19    19    20    1
   20    19    21    1
   21    19    22    1
   22    22    23    1
   23    22    24    1
   24    22    25    1
@<TRIPOS>SUBSTRUCTURE
       1 MOL1            1 RESIDUE      1      MOL     
@<SCITEGIC>MOL_PROPERTY
VM2 Rank
SciTegic.value.IntegerValue
114

@<SCITEGIC>MOL_PROPERTY
Conf_Id
SciTegic.value.IntegerValue
235

@<SCITEGIC>MOL_PROPERTY
Probability
SciTegic.value.DoubleValue
0.01

@<SCITEGIC>MOL_PROPERTY
Sum Probability
SciTegic.value.DoubleValue
99.88

@<SCITEGIC>MOL_PROPERTY
Delta G
SciTegic.value.DoubleValue
4.835

@<SCITEGIC>MOL_PROPERTY
G
SciTegic.value.DoubleValue
-3.127

@<SCITEGIC>MOL_PROPERTY
E
SciTegic.value.DoubleValue
-28.268

@<SCITEGIC>MOL_PROPERTY
-TS
SciTegic.value.DoubleValue
25.141

@<SCITEGIC>MOL_PROPERTY
U+W
SciTegic.value.DoubleValue
-48.836

@<SCITEGIC>MOL_PROPERTY
U
SciTegic.value.DoubleValue
12.312

@<SCITEGIC>MOL_PROPERTY
W
SciTegic.value.DoubleValue
-61.148

@<SCITEGIC>MOL_PROPERTY
W(PB)
SciTegic.value.DoubleValue
-63.573

@<SCITEGIC>MOL_PROPERTY
W(SA)
SciTegic.value.DoubleValue
2.425

@<SCITEGIC>MOL_PROPERTY
Valence
SciTegic.value.DoubleValue
9.950

@<SCITEGIC>MOL_PROPERTY
Coulomb
SciTegic.value.DoubleValue
1.611

@<SCITEGIC>MOL_PROPERTY
VdW
SciTegic.value.DoubleValue
0.751

@<SCITEGIC>MOL_PROPERTY
VdW6
SciTegic.value.DoubleValue
-10.687

@<SCITEGIC>MOL_PROPERTY
VdW12
SciTegic.value.DoubleValue
11.438

@<SCITEGIC>MOL_PROPERTY
Bond
SciTegic.value.DoubleValue
0.232

@<SCITEGIC>MOL_PROPERTY
Angle
SciTegic.value.DoubleValue
3.418

@<SCITEGIC>MOL_PROPERTY
Pdih
SciTegic.value.DoubleValue
6.293

@<SCITEGIC>MOL_PROPERTY
Idih
SciTegic.value.DoubleValue
0.007

@<SCITEGIC>MOL_PROPERTY
Tether
SciTegic.value.DoubleValue
0.000

@<TRIPOS>MOLECULE
guest-8_vm2.mol2 : vm2 ligand conformer 115
          25          24           1
SMALL
USER_CHARGES
 
@<TRIPOS>ATOM
       1    C1      20.212783   19.262271   27.470073 C.2        1 MOL1         0.6168
       2    O1      21.276203   19.231859   28.057426 O.co2      1 MOL1        -0.6703
       3    O2      19.179833   19.663816   27.968586 O.co2      1 MOL1        -0.6703
       4    C2      20.177501   18.791857   26.020366 C.3        1 MOL1        -0.1963
       5    H1      19.196019   18.339023   25.842020 H          1 MOL1         0.0750
       6    H2      20.927655   18.000975   25.901527 H          1 MOL1         0.0750
       7    C3      20.445305   19.939248   25.011606 C.3        1 MOL1        -0.1860
       8    H3      19.661221   20.703206   25.105752 H          1 MOL1         0.0752
       9    H4      21.390130   20.430292   25.282955 H          1 MOL1         0.0752
      10    C4      20.540785   19.464721   23.541694 C.3        1 MOL1        -0.1858
      11    H5      21.307715   18.683178   23.454580 H          1 MOL1         0.0752
      12    H6      20.883398   20.313074   22.935971 H          1 MOL1         0.0752
      13    C5      19.197802   18.949089   22.971621 C.3        1 MOL1        -0.1858
      14    H7      18.812683   18.144381   23.610061 H          1 MOL1         0.0752
      15    H8      18.452884   19.755531   23.008277 H          1 MOL1         0.0752
      16    C6      19.290848   18.400364   21.525343 C.3        1 MOL1        -0.1858
      17    H9      18.297760   18.017447   21.253272 H          1 MOL1         0.0752
      18    H10     19.963134   17.532016   21.495180 H          1 MOL1         0.0752
      19    C7      19.713040   19.443294   20.460330 C.3        1 MOL1        -0.1834
      20    H11     19.148325   19.251873   19.537422 H          1 MOL1         0.0752
      21    H12     19.432839   20.454904   20.784935 H          1 MOL1         0.0752
      22    C8      21.218900   19.387482   20.118955 C.3        1 MOL1        -0.2849
      23    H13     21.491711   18.402292   19.718885 H          1 MOL1         0.0764
      24    H14     21.468566   20.139064   19.358956 H          1 MOL1         0.0764
      25    H15     21.844219   19.579527   20.998281 H          1 MOL1         0.0764
@<TRIPOS>BOND
    1     1     2    1
    2     1     3    2
    3     1     4    1
    4     4     5    1
    5     4     6    1
    6     4     7    1
    7     7     8    1
    8     7     9    1
    9     7    10    1
   10    10    11    1
   11    10    12    1
   12    10    13    1
   13    13    14    1
   14    13    15    1
   15    13    16    1
   16    16    17    1
   17    16    18    1
   18    16    19    1
   19    19    20    1
   20    19    21    1
   21    19    22    1
   22    22    23    1
   23    22    24    1
   24    22    25    1
@<TRIPOS>SUBSTRUCTURE
       1 MOL1            1 RESIDUE      1      MOL     
@<SCITEGIC>MOL_PROPERTY
VM2 Rank
SciTegic.value.IntegerValue
115

@<SCITEGIC>MOL_PROPERTY
Conf_Id
SciTegic.value.IntegerValue
983

@<SCITEGIC>MOL_PROPERTY
Probability
SciTegic.value.DoubleValue
0.01

@<SCITEGIC>MOL_PROPERTY
Sum Probability
SciTegic.value.DoubleValue
99.88

@<SCITEGIC>MOL_PROPERTY
Delta G
SciTegic.value.DoubleValue
4.854

@<SCITEGIC>MOL_PROPERTY
G
SciTegic.value.DoubleValue
-3.108

@<SCITEGIC>MOL_PROPERTY
E
SciTegic.value.DoubleValue
-27.898

@<SCITEGIC>MOL_PROPERTY
-TS
SciTegic.value.DoubleValue
24.790

@<SCITEGIC>MOL_PROPERTY
U+W
SciTegic.value.DoubleValue
-48.466

@<SCITEGIC>MOL_PROPERTY
U
SciTegic.value.DoubleValue
10.617

@<SCITEGIC>MOL_PROPERTY
W
SciTegic.value.DoubleValue
-59.083

@<SCITEGIC>MOL_PROPERTY
W(PB)
SciTegic.value.DoubleValue
-61.516

@<SCITEGIC>MOL_PROPERTY
W(SA)
SciTegic.value.DoubleValue
2.432

@<SCITEGIC>MOL_PROPERTY
Valence
SciTegic.value.DoubleValue
11.188

@<SCITEGIC>MOL_PROPERTY
Coulomb
SciTegic.value.DoubleValue
-1.778

@<SCITEGIC>MOL_PROPERTY
VdW
SciTegic.value.DoubleValue
1.208

@<SCITEGIC>MOL_PROPERTY
VdW6
SciTegic.value.DoubleValue
-9.786

@<SCITEGIC>MOL_PROPERTY
VdW12
SciTegic.value.DoubleValue
10.993

@<SCITEGIC>MOL_PROPERTY
Bond
SciTegic.value.DoubleValue
0.241

@<SCITEGIC>MOL_PROPERTY
Angle
SciTegic.value.DoubleValue
3.294

@<SCITEGIC>MOL_PROPERTY
Pdih
SciTegic.value.DoubleValue
7.653

@<SCITEGIC>MOL_PROPERTY
Idih
SciTegic.value.DoubleValue
0.001

@<SCITEGIC>MOL_PROPERTY
Tether
SciTegic.value.DoubleValue
0.000

@<TRIPOS>MOLECULE
guest-8_vm2.mol2 : vm2 ligand conformer 116
          25          24           1
SMALL
USER_CHARGES
 
@<TRIPOS>ATOM
       1    C1      20.247209   19.377766   27.466524 C.2        1 MOL1         0.6168
       2    O1      21.163030   18.853422   28.069106 O.co2      1 MOL1        -0.6703
       3    O2      19.171746   19.637063   27.969402 O.co2      1 MOL1        -0.6703
       4    C2      20.450882   19.707141   25.992003 C.3        1 MOL1        -0.1963
       5    H1      21.509618   19.949356   25.841151 H          1 MOL1         0.0750
       6    H2      19.875156   20.612724   25.771478 H          1 MOL1         0.0750
       7    C3      20.029004   18.545396   25.054883 C.3        1 MOL1        -0.1860
       8    H3      20.554674   17.633291   25.369817 H          1 MOL1         0.0752
       9    H4      18.956217   18.342878   25.178955 H          1 MOL1         0.0752
      10    C4      20.343981   18.805380   23.562188 C.3        1 MOL1        -0.1858
      11    H5      20.155175   17.875203   23.011633 H          1 MOL1         0.0752
      12    H6      21.412212   19.032194   23.443806 H          1 MOL1         0.0752
      13    C5      19.493921   19.939362   22.940939 C.3        1 MOL1        -0.1858
      14    H7      18.429579   19.676915   23.010873 H          1 MOL1         0.0752
      15    H8      19.623950   20.858310   23.525834 H          1 MOL1         0.0752
      16    C6      19.847804   20.263823   21.467521 C.3        1 MOL1        -0.1858
      17    H9      20.885492   20.618020   21.399305 H          1 MOL1         0.0752
      18    H10     19.222740   21.112304   21.157282 H          1 MOL1         0.0752
      19    C7      19.610770   19.101519   20.470994 C.3        1 MOL1        -0.1834
      20    H11     18.827493   18.429518   20.847992 H          1 MOL1         0.0752
      21    H12     19.227640   19.518279   19.529280 H          1 MOL1         0.0752
      22    C8      20.894653   18.303128   20.152439 C.3        1 MOL1        -0.2849
      23    H13     20.678329   17.495842   19.440891 H          1 MOL1         0.0764
      24    H14     21.655955   18.952833   19.701457 H          1 MOL1         0.0764
      25    H15     21.327387   17.850185   21.051719 H          1 MOL1         0.0764
@<TRIPOS>BOND
    1     1     2    1
    2     1     3    2
    3     1     4    1
    4     4     5    1
    5     4     6    1
    6     4     7    1
    7     7     8    1
    8     7     9    1
    9     7    10    1
   10    10    11    1
   11    10    12    1
   12    10    13    1
   13    13    14    1
   14    13    15    1
   15    13    16    1
   16    16    17    1
   17    16    18    1
   18    16    19    1
   19    19    20    1
   20    19    21    1
   21    19    22    1
   22    22    23    1
   23    22    24    1
   24    22    25    1
@<TRIPOS>SUBSTRUCTURE
       1 MOL1            1 RESIDUE      1      MOL     
@<SCITEGIC>MOL_PROPERTY
VM2 Rank
SciTegic.value.IntegerValue
116

@<SCITEGIC>MOL_PROPERTY
Conf_Id
SciTegic.value.IntegerValue
1021

@<SCITEGIC>MOL_PROPERTY
Probability
SciTegic.value.DoubleValue
0.01

@<SCITEGIC>MOL_PROPERTY
Sum Probability
SciTegic.value.DoubleValue
99.89

@<SCITEGIC>MOL_PROPERTY
Delta G
SciTegic.value.DoubleValue
4.875

@<SCITEGIC>MOL_PROPERTY
G
SciTegic.value.DoubleValue
-3.088

@<SCITEGIC>MOL_PROPERTY
E
SciTegic.value.DoubleValue
-27.878

@<SCITEGIC>MOL_PROPERTY
-TS
SciTegic.value.DoubleValue
24.790

@<SCITEGIC>MOL_PROPERTY
U+W
SciTegic.value.DoubleValue
-48.445

@<SCITEGIC>MOL_PROPERTY
U
SciTegic.value.DoubleValue
10.617

@<SCITEGIC>MOL_PROPERTY
W
SciTegic.value.DoubleValue
-59.063

@<SCITEGIC>MOL_PROPERTY
W(PB)
SciTegic.value.DoubleValue
-61.494

@<SCITEGIC>MOL_PROPERTY
W(SA)
SciTegic.value.DoubleValue
2.432

@<SCITEGIC>MOL_PROPERTY
Valence
SciTegic.value.DoubleValue
11.188

@<SCITEGIC>MOL_PROPERTY
Coulomb
SciTegic.value.DoubleValue
-1.778

@<SCITEGIC>MOL_PROPERTY
VdW
SciTegic.value.DoubleValue
1.207

@<SCITEGIC>MOL_PROPERTY
VdW6
SciTegic.value.DoubleValue
-9.786

@<SCITEGIC>MOL_PROPERTY
VdW12
SciTegic.value.DoubleValue
10.993

@<SCITEGIC>MOL_PROPERTY
Bond
SciTegic.value.DoubleValue
0.241

@<SCITEGIC>MOL_PROPERTY
Angle
SciTegic.value.DoubleValue
3.294

@<SCITEGIC>MOL_PROPERTY
Pdih
SciTegic.value.DoubleValue
7.653

@<SCITEGIC>MOL_PROPERTY
Idih
SciTegic.value.DoubleValue
0.001

@<SCITEGIC>MOL_PROPERTY
Tether
SciTegic.value.DoubleValue
0.000

@<TRIPOS>MOLECULE
guest-8_vm2.mol2 : vm2 ligand conformer 117
          25          24           1
SMALL
USER_CHARGES
 
@<TRIPOS>ATOM
       1    C1      19.852111   19.700708   27.096938 C.2        1 MOL1         0.6168
       2    O1      20.650663   19.835137   28.003067 O.co2      1 MOL1        -0.6703
       3    O2      18.835809   20.358609   26.992228 O.co2      1 MOL1        -0.6703
       4    C2      20.152982   18.663731   26.020695 C.3        1 MOL1        -0.1963
       5    H1      19.196565   18.268393   25.661717 H          1 MOL1         0.0750
       6    H2      20.690220   17.832219   26.492094 H          1 MOL1         0.0750
       7    C3      20.986809   19.242851   24.847690 C.3        1 MOL1        -0.1860
       8    H3      20.438344   20.073368   24.386913 H          1 MOL1         0.0752
       9    H4      21.910259   19.674147   25.258058 H          1 MOL1         0.0752
      10    C4      21.367457   18.181605   23.784194 C.3        1 MOL1        -0.1858
      11    H5      21.815046   17.321187   24.300140 H          1 MOL1         0.0752
      12    H6      22.158457   18.580865   23.134844 H          1 MOL1         0.0752
      13    C5      20.185542   17.684058   22.909964 C.3        1 MOL1        -0.1858
      14    H7      20.342571   16.617081   22.701241 H          1 MOL1         0.0752
      15    H8      19.238483   17.741869   23.460415 H          1 MOL1         0.0752
      16    C6      20.042794   18.408185   21.547644 C.3        1 MOL1        -0.1858
      17    H9      19.236965   17.921192   20.981687 H          1 MOL1         0.0752
      18    H10     20.960238   18.266862   20.960167 H          1 MOL1         0.0752
      19    C7      19.733240   19.916766   21.661714 C.3        1 MOL1        -0.1834
      20    H11     18.867423   20.069694   22.320679 H          1 MOL1         0.0752
      21    H12     20.584831   20.438369   22.117658 H          1 MOL1         0.0752
      22    C8      19.445594   20.542350   20.281866 C.3        1 MOL1        -0.2849
      23    H13     18.574972   20.069179   19.809199 H          1 MOL1         0.0764
      24    H14     19.235980   21.615393   20.380088 H          1 MOL1         0.0764
      25    H15     20.306472   20.425052   19.610708 H          1 MOL1         0.0764
@<TRIPOS>BOND
    1     1     2    1
    2     1     3    2
    3     1     4    1
    4     4     5    1
    5     4     6    1
    6     4     7    1
    7     7     8    1
    8     7     9    1
    9     7    10    1
   10    10    11    1
   11    10    12    1
   12    10    13    1
   13    13    14    1
   14    13    15    1
   15    13    16    1
   16    16    17    1
   17    16    18    1
   18    16    19    1
   19    19    20    1
   20    19    21    1
   21    19    22    1
   22    22    23    1
   23    22    24    1
   24    22    25    1
@<TRIPOS>SUBSTRUCTURE
       1 MOL1            1 RESIDUE      1      MOL     
@<SCITEGIC>MOL_PROPERTY
VM2 Rank
SciTegic.value.IntegerValue
117

@<SCITEGIC>MOL_PROPERTY
Conf_Id
SciTegic.value.IntegerValue
976

@<SCITEGIC>MOL_PROPERTY
Probability
SciTegic.value.DoubleValue
0.01

@<SCITEGIC>MOL_PROPERTY
Sum Probability
SciTegic.value.DoubleValue
99.90

@<SCITEGIC>MOL_PROPERTY
Delta G
SciTegic.value.DoubleValue
4.883

@<SCITEGIC>MOL_PROPERTY
G
SciTegic.value.DoubleValue
-3.079

@<SCITEGIC>MOL_PROPERTY
E
SciTegic.value.DoubleValue
-27.924

@<SCITEGIC>MOL_PROPERTY
-TS
SciTegic.value.DoubleValue
24.844

@<SCITEGIC>MOL_PROPERTY
U+W
SciTegic.value.DoubleValue
-48.491

@<SCITEGIC>MOL_PROPERTY
U
SciTegic.value.DoubleValue
11.197

@<SCITEGIC>MOL_PROPERTY
W
SciTegic.value.DoubleValue
-59.688

@<SCITEGIC>MOL_PROPERTY
W(PB)
SciTegic.value.DoubleValue
-62.122

@<SCITEGIC>MOL_PROPERTY
W(SA)
SciTegic.value.DoubleValue
2.433

@<SCITEGIC>MOL_PROPERTY
Valence
SciTegic.value.DoubleValue
11.279

@<SCITEGIC>MOL_PROPERTY
Coulomb
SciTegic.value.DoubleValue
-1.128

@<SCITEGIC>MOL_PROPERTY
VdW
SciTegic.value.DoubleValue
1.047

@<SCITEGIC>MOL_PROPERTY
VdW6
SciTegic.value.DoubleValue
-9.931

@<SCITEGIC>MOL_PROPERTY
VdW12
SciTegic.value.DoubleValue
10.977

@<SCITEGIC>MOL_PROPERTY
Bond
SciTegic.value.DoubleValue
0.250

@<SCITEGIC>MOL_PROPERTY
Angle
SciTegic.value.DoubleValue
3.254

@<SCITEGIC>MOL_PROPERTY
Pdih
SciTegic.value.DoubleValue
7.773

@<SCITEGIC>MOL_PROPERTY
Idih
SciTegic.value.DoubleValue
0.001

@<SCITEGIC>MOL_PROPERTY
Tether
SciTegic.value.DoubleValue
0.000

@<TRIPOS>MOLECULE
guest-8_vm2.mol2 : vm2 ligand conformer 118
          25          24           1
SMALL
USER_CHARGES
 
@<TRIPOS>ATOM
       1    C1      20.776519   18.958346   26.411075 C.2        1 MOL1         0.6168
       2    O1      21.450198   19.929469   26.695362 O.co2      1 MOL1        -0.6703
       3    O2      21.248459   17.883319   26.096783 O.co2      1 MOL1        -0.6703
       4    C2      19.257188   19.072280   26.523025 C.3        1 MOL1        -0.1963
       5    H1      19.039957   19.262895   27.580341 H          1 MOL1         0.0750
       6    H2      18.808050   18.101628   26.280351 H          1 MOL1         0.0750
       7    C3      18.610709   20.195025   25.663426 C.3        1 MOL1        -0.1860
       8    H3      17.625587   20.425070   26.091233 H          1 MOL1         0.0752
       9    H4      19.200121   21.118518   25.749048 H          1 MOL1         0.0752
      10    C4      18.404057   19.833723   24.171448 C.3        1 MOL1        -0.1858
      11    H5      17.813500   20.633965   23.704832 H          1 MOL1         0.0752
      12    H6      17.800895   18.918951   24.092742 H          1 MOL1         0.0752
      13    C5      19.718769   19.657622   23.378062 C.3        1 MOL1        -0.1858
      14    H7      20.366241   20.530368   23.538760 H          1 MOL1         0.0752
      15    H8      20.258179   18.781524   23.756503 H          1 MOL1         0.0752
      16    C6      19.453310   19.480371   21.864835 C.3        1 MOL1        -0.1858
      17    H9      18.859203   20.330682   21.503230 H          1 MOL1         0.0752
      18    H10     18.843698   18.581586   21.699337 H          1 MOL1         0.0752
      19    C7      20.746015   19.391516   21.020484 C.3        1 MOL1        -0.1834
      20    H11     20.472603   19.388087   19.956339 H          1 MOL1         0.0752
      21    H12     21.356345   20.290918   21.181293 H          1 MOL1         0.0752
      22    C8      21.587776   18.132329   21.321500 C.3        1 MOL1        -0.2849
      23    H13     22.445043   18.071115   20.638747 H          1 MOL1         0.0764
      24    H14     21.980004   18.148002   22.346365 H          1 MOL1         0.0764
      25    H15     20.989541   17.220524   21.195954 H          1 MOL1         0.0764
@<TRIPOS>BOND
    1     1     2    1
    2     1     3    2
    3     1     4    1
    4     4     5    1
    5     4     6    1
    6     4     7    1
    7     7     8    1
    8     7     9    1
    9     7    10    1
   10    10    11    1
   11    10    12    1
   12    10    13    1
   13    13    14    1
   14    13    15    1
   15    13    16    1
   16    16    17    1
   17    16    18    1
   18    16    19    1
   19    19    20    1
   20    19    21    1
   21    19    22    1
   22    22    23    1
   23    22    24    1
   24    22    25    1
@<TRIPOS>SUBSTRUCTURE
       1 MOL1            1 RESIDUE      1      MOL     
@<SCITEGIC>MOL_PROPERTY
VM2 Rank
SciTegic.value.IntegerValue
118

@<SCITEGIC>MOL_PROPERTY
Conf_Id
SciTegic.value.IntegerValue
448

@<SCITEGIC>MOL_PROPERTY
Probability
SciTegic.value.DoubleValue
0.01

@<SCITEGIC>MOL_PROPERTY
Sum Probability
SciTegic.value.DoubleValue
99.90

@<SCITEGIC>MOL_PROPERTY
Delta G
SciTegic.value.DoubleValue
4.906

@<SCITEGIC>MOL_PROPERTY
G
SciTegic.value.DoubleValue
-3.056

@<SCITEGIC>MOL_PROPERTY
E
SciTegic.value.DoubleValue
-28.214

@<SCITEGIC>MOL_PROPERTY
-TS
SciTegic.value.DoubleValue
25.158

@<SCITEGIC>MOL_PROPERTY
U+W
SciTegic.value.DoubleValue
-48.781

@<SCITEGIC>MOL_PROPERTY
U
SciTegic.value.DoubleValue
12.472

@<SCITEGIC>MOL_PROPERTY
W
SciTegic.value.DoubleValue
-61.253

@<SCITEGIC>MOL_PROPERTY
W(PB)
SciTegic.value.DoubleValue
-63.647

@<SCITEGIC>MOL_PROPERTY
W(SA)
SciTegic.value.DoubleValue
2.393

@<SCITEGIC>MOL_PROPERTY
Valence
SciTegic.value.DoubleValue
9.941

@<SCITEGIC>MOL_PROPERTY
Coulomb
SciTegic.value.DoubleValue
1.808

@<SCITEGIC>MOL_PROPERTY
VdW
SciTegic.value.DoubleValue
0.724

@<SCITEGIC>MOL_PROPERTY
VdW6
SciTegic.value.DoubleValue
-10.775

@<SCITEGIC>MOL_PROPERTY
VdW12
SciTegic.value.DoubleValue
11.499

@<SCITEGIC>MOL_PROPERTY
Bond
SciTegic.value.DoubleValue
0.236

@<SCITEGIC>MOL_PROPERTY
Angle
SciTegic.value.DoubleValue
3.415

@<SCITEGIC>MOL_PROPERTY
Pdih
SciTegic.value.DoubleValue
6.282

@<SCITEGIC>MOL_PROPERTY
Idih
SciTegic.value.DoubleValue
0.007

@<SCITEGIC>MOL_PROPERTY
Tether
SciTegic.value.DoubleValue
0.000

@<TRIPOS>MOLECULE
guest-8_vm2.mol2 : vm2 ligand conformer 119
          25          24           1
SMALL
USER_CHARGES
 
@<TRIPOS>ATOM
       1    C1      20.623522   19.319922   27.115751 C.2        1 MOL1         0.6168
       2    O1      21.544222   20.106894   27.017821 O.co2      1 MOL1        -0.6703
       3    O2      20.079285   19.047745   28.167678 O.co2      1 MOL1        -0.6703
       4    C2      20.108596   18.652740   25.845602 C.3        1 MOL1        -0.1963
       5    H1      19.758395   17.647786   26.109668 H          1 MOL1         0.0750
       6    H2      20.956757   18.525385   25.165585 H          1 MOL1         0.0750
       7    C3      18.964316   19.453077   25.168994 C.3        1 MOL1        -0.1860
       8    H3      18.132951   19.524697   25.883926 H          1 MOL1         0.0752
       9    H4      19.287651   20.484802   24.973052 H          1 MOL1         0.0752
      10    C4      18.444005   18.796407   23.865099 C.3        1 MOL1        -0.1858
      11    H5      17.356231   18.943131   23.818689 H          1 MOL1         0.0752
      12    H6      18.596660   17.708993   23.898900 H          1 MOL1         0.0752
      13    C5      19.048204   19.376458   22.561345 C.3        1 MOL1        -0.1858
      14    H7      18.551259   18.886435   21.714783 H          1 MOL1         0.0752
      15    H8      18.800473   20.444104   22.488512 H          1 MOL1         0.0752
      16    C6      20.580120   19.196447   22.435511 C.3        1 MOL1        -0.1858
      17    H9      20.843504   18.138277   22.567194 H          1 MOL1         0.0752
      18    H10     21.072976   19.749553   23.245214 H          1 MOL1         0.0752
      19    C7      21.152681   19.710643   21.093794 C.3        1 MOL1        -0.1834
      20    H11     20.867765   20.761548   20.946518 H          1 MOL1         0.0752
      21    H12     22.249782   19.692304   21.150883 H          1 MOL1         0.0752
      22    C8      20.708048   18.873668   19.874406 C.3        1 MOL1        -0.2849
      23    H13     19.628324   18.957947   19.700342 H          1 MOL1         0.0764
      24    H14     21.217769   19.219556   18.965871 H          1 MOL1         0.0764
      25    H15     20.952866   17.812908   20.015634 H          1 MOL1         0.0764
@<TRIPOS>BOND
    1     1     2    1
    2     1     3    2
    3     1     4    1
    4     4     5    1
    5     4     6    1
    6     4     7    1
    7     7     8    1
    8     7     9    1
    9     7    10    1
   10    10    11    1
   11    10    12    1
   12    10    13    1
   13    13    14    1
   14    13    15    1
   15    13    16    1
   16    16    17    1
   17    16    18    1
   18    16    19    1
   19    19    20    1
   20    19    21    1
   21    19    22    1
   22    22    23    1
   23    22    24    1
   24    22    25    1
@<TRIPOS>SUBSTRUCTURE
       1 MOL1            1 RESIDUE      1      MOL     
@<SCITEGIC>MOL_PROPERTY
VM2 Rank
SciTegic.value.IntegerValue
119

@<SCITEGIC>MOL_PROPERTY
Conf_Id
SciTegic.value.IntegerValue
560

@<SCITEGIC>MOL_PROPERTY
Probability
SciTegic.value.DoubleValue
0.01

@<SCITEGIC>MOL_PROPERTY
Sum Probability
SciTegic.value.DoubleValue
99.91

@<SCITEGIC>MOL_PROPERTY
Delta G
SciTegic.value.DoubleValue
4.946

@<SCITEGIC>MOL_PROPERTY
G
SciTegic.value.DoubleValue
-3.016

@<SCITEGIC>MOL_PROPERTY
E
SciTegic.value.DoubleValue
-27.869

@<SCITEGIC>MOL_PROPERTY
-TS
SciTegic.value.DoubleValue
24.853

@<SCITEGIC>MOL_PROPERTY
U+W
SciTegic.value.DoubleValue
-48.437

@<SCITEGIC>MOL_PROPERTY
U
SciTegic.value.DoubleValue
10.982

@<SCITEGIC>MOL_PROPERTY
W
SciTegic.value.DoubleValue
-59.419

@<SCITEGIC>MOL_PROPERTY
W(PB)
SciTegic.value.DoubleValue
-61.896

@<SCITEGIC>MOL_PROPERTY
W(SA)
SciTegic.value.DoubleValue
2.477

@<SCITEGIC>MOL_PROPERTY
Valence
SciTegic.value.DoubleValue
11.160

@<SCITEGIC>MOL_PROPERTY
Coulomb
SciTegic.value.DoubleValue
-1.272

@<SCITEGIC>MOL_PROPERTY
VdW
SciTegic.value.DoubleValue
1.094

@<SCITEGIC>MOL_PROPERTY
VdW6
SciTegic.value.DoubleValue
-9.961

@<SCITEGIC>MOL_PROPERTY
VdW12
SciTegic.value.DoubleValue
11.055

@<SCITEGIC>MOL_PROPERTY
Bond
SciTegic.value.DoubleValue
0.244

@<SCITEGIC>MOL_PROPERTY
Angle
SciTegic.value.DoubleValue
3.277

@<SCITEGIC>MOL_PROPERTY
Pdih
SciTegic.value.DoubleValue
7.638

@<SCITEGIC>MOL_PROPERTY
Idih
SciTegic.value.DoubleValue
0.001

@<SCITEGIC>MOL_PROPERTY
Tether
SciTegic.value.DoubleValue
0.000

@<TRIPOS>MOLECULE
guest-8_vm2.mol2 : vm2 ligand conformer 120
          25          24           1
SMALL
USER_CHARGES
 
@<TRIPOS>ATOM
       1    C1      19.564536   18.882275   26.425054 C.2        1 MOL1         0.6168
       2    O1      19.223966   17.756011   26.120532 O.co2      1 MOL1        -0.6703
       3    O2      18.781150   19.761864   26.725671 O.co2      1 MOL1        -0.6703
       4    C2      21.059791   19.185776   26.502355 C.3        1 MOL1        -0.1963
       5    H1      21.621298   18.278608   26.248311 H          1 MOL1         0.0750
       6    H2      21.275539   19.403872   27.554651 H          1 MOL1         0.0750
       7    C3      21.540771   20.379188   25.629528 C.3        1 MOL1        -0.1860
       8    H3      20.842548   21.221805   25.729821 H          1 MOL1         0.0752
       9    H4      22.498919   20.731400   26.034871 H          1 MOL1         0.0752
      10    C4      21.756713   20.044128   24.132749 C.3        1 MOL1        -0.1858
      11    H5      22.467436   19.211718   24.039077 H          1 MOL1         0.0752
      12    H6      22.231862   20.911108   23.653735 H          1 MOL1         0.0752
      13    C5      20.456461   19.703967   23.369483 C.3        1 MOL1        -0.1858
      14    H7      20.039385   18.768062   23.759167 H          1 MOL1         0.0752
      15    H8      19.708985   20.489373   23.545965 H          1 MOL1         0.0752
      16    C6      20.707301   19.558608   21.850374 C.3        1 MOL1        -0.1858
      17    H9      21.420220   18.742507   21.669942 H          1 MOL1         0.0752
      18    H10     21.182400   20.475704   21.476254 H          1 MOL1         0.0752
      19    C7      19.416802   19.307927   21.035706 C.3        1 MOL1        -0.1834
      20    H11     18.703034   20.124603   21.211379 H          1 MOL1         0.0752
      21    H12     19.664160   19.336667   19.965585 H          1 MOL1         0.0752
      22    C8      18.745509   17.954255   21.354548 C.3        1 MOL1        -0.2849
      23    H13     18.377887   17.922790   22.388133 H          1 MOL1         0.0764
      24    H14     17.887173   17.785544   20.691522 H          1 MOL1         0.0764
      25    H15     19.449618   17.123826   21.214369 H          1 MOL1         0.0764
@<TRIPOS>BOND
    1     1     2    1
    2     1     3    2
    3     1     4    1
    4     4     5    1
    5     4     6    1
    6     4     7    1
    7     7     8    1
    8     7     9    1
    9     7    10    1
   10    10    11    1
   11    10    12    1
   12    10    13    1
   13    13    14    1
   14    13    15    1
   15    13    16    1
   16    16    17    1
   17    16    18    1
   18    16    19    1
   19    19    20    1
   20    19    21    1
   21    19    22    1
   22    22    23    1
   23    22    24    1
   24    22    25    1
@<TRIPOS>SUBSTRUCTURE
       1 MOL1            1 RESIDUE      1      MOL     
@<SCITEGIC>MOL_PROPERTY
VM2 Rank
SciTegic.value.IntegerValue
120

@<SCITEGIC>MOL_PROPERTY
Conf_Id
SciTegic.value.IntegerValue
148

@<SCITEGIC>MOL_PROPERTY
Probability
SciTegic.value.DoubleValue
0.01

@<SCITEGIC>MOL_PROPERTY
Sum Probability
SciTegic.value.DoubleValue
99.92

@<SCITEGIC>MOL_PROPERTY
Delta G
SciTegic.value.DoubleValue
4.991

@<SCITEGIC>MOL_PROPERTY
G
SciTegic.value.DoubleValue
-2.972

@<SCITEGIC>MOL_PROPERTY
E
SciTegic.value.DoubleValue
-28.129

@<SCITEGIC>MOL_PROPERTY
-TS
SciTegic.value.DoubleValue
25.157

@<SCITEGIC>MOL_PROPERTY
U+W
SciTegic.value.DoubleValue
-48.696

@<SCITEGIC>MOL_PROPERTY
U
SciTegic.value.DoubleValue
12.472

@<SCITEGIC>MOL_PROPERTY
W
SciTegic.value.DoubleValue
-61.168

@<SCITEGIC>MOL_PROPERTY
W(PB)
SciTegic.value.DoubleValue
-63.566

@<SCITEGIC>MOL_PROPERTY
W(SA)
SciTegic.value.DoubleValue
2.398

@<SCITEGIC>MOL_PROPERTY
Valence
SciTegic.value.DoubleValue
9.941

@<SCITEGIC>MOL_PROPERTY
Coulomb
SciTegic.value.DoubleValue
1.808

@<SCITEGIC>MOL_PROPERTY
VdW
SciTegic.value.DoubleValue
0.724

@<SCITEGIC>MOL_PROPERTY
VdW6
SciTegic.value.DoubleValue
-10.775

@<SCITEGIC>MOL_PROPERTY
VdW12
SciTegic.value.DoubleValue
11.499

@<SCITEGIC>MOL_PROPERTY
Bond
SciTegic.value.DoubleValue
0.236

@<SCITEGIC>MOL_PROPERTY
Angle
SciTegic.value.DoubleValue
3.415

@<SCITEGIC>MOL_PROPERTY
Pdih
SciTegic.value.DoubleValue
6.282

@<SCITEGIC>MOL_PROPERTY
Idih
SciTegic.value.DoubleValue
0.007

@<SCITEGIC>MOL_PROPERTY
Tether
SciTegic.value.DoubleValue
0.000

@<TRIPOS>MOLECULE
guest-8_vm2.mol2 : vm2 ligand conformer 121
          25          24           1
SMALL
USER_CHARGES
 
@<TRIPOS>ATOM
       1    C1      20.486418   19.309874   27.336367 C.2        1 MOL1         0.6168
       2    O1      21.605161   19.766154   27.466331 O.co2      1 MOL1        -0.6703
       3    O2      19.590715   19.484277   28.138872 O.co2      1 MOL1        -0.6703
       4    C2      20.184155   18.489316   26.087557 C.3        1 MOL1        -0.1963
       5    H1      19.443215   17.725715   26.352955 H          1 MOL1         0.0750
       6    H2      21.101175   17.963878   25.795002 H          1 MOL1         0.0750
       7    C3      19.665373   19.352819   24.911327 C.3        1 MOL1        -0.1860
       8    H3      18.753874   19.880293   25.224615 H          1 MOL1         0.0752
       9    H4      20.413002   20.121805   24.678077 H          1 MOL1         0.0752
      10    C4      19.366832   18.495032   23.659102 C.3        1 MOL1        -0.1858
      11    H5      18.642286   17.715623   23.931513 H          1 MOL1         0.0752
      12    H6      20.278133   17.972453   23.344473 H          1 MOL1         0.0752
      13    C5      18.781935   19.316126   22.482174 C.3        1 MOL1        -0.1858
      14    H7      18.342759   18.632995   21.742556 H          1 MOL1         0.0752
      15    H8      17.945020   19.917416   22.862665 H          1 MOL1         0.0752
      16    C6      19.796000   20.255290   21.775789 C.3        1 MOL1        -0.1858
      17    H9      20.574134   20.588307   22.473575 H          1 MOL1         0.0752
      18    H10     19.261382   21.165202   21.471010 H          1 MOL1         0.0752
      19    C7      20.452845   19.654743   20.508313 C.3        1 MOL1        -0.1834
      20    H11     19.675482   19.403200   19.773712 H          1 MOL1         0.0752
      21    H12     21.078985   20.427028   20.040684 H          1 MOL1         0.0752
      22    C8      21.323566   18.410369   20.780169 C.3        1 MOL1        -0.2849
      23    H13     22.071371   18.615288   21.557258 H          1 MOL1         0.0764
      24    H14     20.709324   17.560577   21.102788 H          1 MOL1         0.0764
      25    H15     21.855461   18.107242   19.869162 H          1 MOL1         0.0764
@<TRIPOS>BOND
    1     1     2    1
    2     1     3    2
    3     1     4    1
    4     4     5    1
    5     4     6    1
    6     4     7    1
    7     7     8    1
    8     7     9    1
    9     7    10    1
   10    10    11    1
   11    10    12    1
   12    10    13    1
   13    13    14    1
   14    13    15    1
   15    13    16    1
   16    16    17    1
   17    16    18    1
   18    16    19    1
   19    19    20    1
   20    19    21    1
   21    19    22    1
   22    22    23    1
   23    22    24    1
   24    22    25    1
@<TRIPOS>SUBSTRUCTURE
       1 MOL1            1 RESIDUE      1      MOL     
@<SCITEGIC>MOL_PROPERTY
VM2 Rank
SciTegic.value.IntegerValue
121

@<SCITEGIC>MOL_PROPERTY
Conf_Id
SciTegic.value.IntegerValue
281

@<SCITEGIC>MOL_PROPERTY
Probability
SciTegic.value.DoubleValue
0.01

@<SCITEGIC>MOL_PROPERTY
Sum Probability
SciTegic.value.DoubleValue
99.92

@<SCITEGIC>MOL_PROPERTY
Delta G
SciTegic.value.DoubleValue
5.019

@<SCITEGIC>MOL_PROPERTY
G
SciTegic.value.DoubleValue
-2.944

@<SCITEGIC>MOL_PROPERTY
E
SciTegic.value.DoubleValue
-27.762

@<SCITEGIC>MOL_PROPERTY
-TS
SciTegic.value.DoubleValue
24.818

@<SCITEGIC>MOL_PROPERTY
U+W
SciTegic.value.DoubleValue
-48.329

@<SCITEGIC>MOL_PROPERTY
U
SciTegic.value.DoubleValue
11.068

@<SCITEGIC>MOL_PROPERTY
W
SciTegic.value.DoubleValue
-59.397

@<SCITEGIC>MOL_PROPERTY
W(PB)
SciTegic.value.DoubleValue
-61.844

@<SCITEGIC>MOL_PROPERTY
W(SA)
SciTegic.value.DoubleValue
2.447

@<SCITEGIC>MOL_PROPERTY
Valence
SciTegic.value.DoubleValue
11.256

@<SCITEGIC>MOL_PROPERTY
Coulomb
SciTegic.value.DoubleValue
-1.286

@<SCITEGIC>MOL_PROPERTY
VdW
SciTegic.value.DoubleValue
1.098

@<SCITEGIC>MOL_PROPERTY
VdW6
SciTegic.value.DoubleValue
-9.790

@<SCITEGIC>MOL_PROPERTY
VdW12
SciTegic.value.DoubleValue
10.887

@<SCITEGIC>MOL_PROPERTY
Bond
SciTegic.value.DoubleValue
0.240

@<SCITEGIC>MOL_PROPERTY
Angle
SciTegic.value.DoubleValue
3.222

@<SCITEGIC>MOL_PROPERTY
Pdih
SciTegic.value.DoubleValue
7.794

@<SCITEGIC>MOL_PROPERTY
Idih
SciTegic.value.DoubleValue
0.001

@<SCITEGIC>MOL_PROPERTY
Tether
SciTegic.value.DoubleValue
0.000

@<TRIPOS>MOLECULE
guest-8_vm2.mol2 : vm2 ligand conformer 122
          25          24           1
SMALL
USER_CHARGES
 
@<TRIPOS>ATOM
       1    C1      20.334239   19.766340   27.071150 C.2        1 MOL1         0.6168
       2    O1      21.348123   20.434854   27.113218 O.co2      1 MOL1        -0.6703
       3    O2      19.347539   19.996556   27.742101 O.co2      1 MOL1        -0.6703
       4    C2      20.291413   18.582799   26.111121 C.3        1 MOL1        -0.1963
       5    H1      19.673646   17.798618   26.564855 H          1 MOL1         0.0750
       6    H2      21.308034   18.182268   26.018258 H          1 MOL1         0.0750
       7    C3      19.737331   18.960683   24.715382 C.3        1 MOL1        -0.1860
       8    H3      18.723624   19.369121   24.828070 H          1 MOL1         0.0752
       9    H4      20.354372   19.762495   24.293532 H          1 MOL1         0.0752
      10    C4      19.703167   17.742379   23.762852 C.3        1 MOL1        -0.1858
      11    H5      19.079842   16.965328   24.226133 H          1 MOL1         0.0752
      12    H6      20.707382   17.308697   23.661879 H          1 MOL1         0.0752
      13    C5      19.119367   18.064456   22.363267 C.3        1 MOL1        -0.1858
      14    H7      18.557732   17.183440   22.024050 H          1 MOL1         0.0752
      15    H8      18.379811   18.873007   22.430349 H          1 MOL1         0.0752
      16    C6      20.178604   18.378209   21.273605 C.3        1 MOL1        -0.1858
      17    H9      19.668920   18.457739   20.303783 H          1 MOL1         0.0752
      18    H10     20.858868   17.520351   21.184468 H          1 MOL1         0.0752
      19    C7      21.019762   19.657914   21.493390 C.3        1 MOL1        -0.1834
      20    H11     21.596576   19.576593   22.423299 H          1 MOL1         0.0752
      21    H12     21.761221   19.729999   20.685945 H          1 MOL1         0.0752
      22    C8      20.173454   20.949810   21.499915 C.3        1 MOL1        -0.2849
      23    H13     19.467013   20.963241   22.338856 H          1 MOL1         0.0764
      24    H14     20.819708   21.831948   21.593974 H          1 MOL1         0.0764
      25    H15     19.600858   21.047585   20.568556 H          1 MOL1         0.0764
@<TRIPOS>BOND
    1     1     2    1
    2     1     3    2
    3     1     4    1
    4     4     5    1
    5     4     6    1
    6     4     7    1
    7     7     8    1
    8     7     9    1
    9     7    10    1
   10    10    11    1
   11    10    12    1
   12    10    13    1
   13    13    14    1
   14    13    15    1
   15    13    16    1
   16    16    17    1
   17    16    18    1
   18    16    19    1
   19    19    20    1
   20    19    21    1
   21    19    22    1
   22    22    23    1
   23    22    24    1
   24    22    25    1
@<TRIPOS>SUBSTRUCTURE
       1 MOL1            1 RESIDUE      1      MOL     
@<SCITEGIC>MOL_PROPERTY
VM2 Rank
SciTegic.value.IntegerValue
122

@<SCITEGIC>MOL_PROPERTY
Conf_Id
SciTegic.value.IntegerValue
250

@<SCITEGIC>MOL_PROPERTY
Probability
SciTegic.value.DoubleValue
0.01

@<SCITEGIC>MOL_PROPERTY
Sum Probability
SciTegic.value.DoubleValue
99.93

@<SCITEGIC>MOL_PROPERTY
Delta G
SciTegic.value.DoubleValue
5.081

@<SCITEGIC>MOL_PROPERTY
G
SciTegic.value.DoubleValue
-2.881

@<SCITEGIC>MOL_PROPERTY
E
SciTegic.value.DoubleValue
-28.084

@<SCITEGIC>MOL_PROPERTY
-TS
SciTegic.value.DoubleValue
25.203

@<SCITEGIC>MOL_PROPERTY
U+W
SciTegic.value.DoubleValue
-48.651

@<SCITEGIC>MOL_PROPERTY
U
SciTegic.value.DoubleValue
11.386

@<SCITEGIC>MOL_PROPERTY
W
SciTegic.value.DoubleValue
-60.037

@<SCITEGIC>MOL_PROPERTY
W(PB)
SciTegic.value.DoubleValue
-62.435

@<SCITEGIC>MOL_PROPERTY
W(SA)
SciTegic.value.DoubleValue
2.398

@<SCITEGIC>MOL_PROPERTY
Valence
SciTegic.value.DoubleValue
11.144

@<SCITEGIC>MOL_PROPERTY
Coulomb
SciTegic.value.DoubleValue
-0.494

@<SCITEGIC>MOL_PROPERTY
VdW
SciTegic.value.DoubleValue
0.736

@<SCITEGIC>MOL_PROPERTY
VdW6
SciTegic.value.DoubleValue
-10.363

@<SCITEGIC>MOL_PROPERTY
VdW12
SciTegic.value.DoubleValue
11.100

@<SCITEGIC>MOL_PROPERTY
Bond
SciTegic.value.DoubleValue
0.234

@<SCITEGIC>MOL_PROPERTY
Angle
SciTegic.value.DoubleValue
3.543

@<SCITEGIC>MOL_PROPERTY
Pdih
SciTegic.value.DoubleValue
7.365

@<SCITEGIC>MOL_PROPERTY
Idih
SciTegic.value.DoubleValue
0.000

@<SCITEGIC>MOL_PROPERTY
Tether
SciTegic.value.DoubleValue
0.000

@<TRIPOS>MOLECULE
guest-8_vm2.mol2 : vm2 ligand conformer 123
          25          24           1
SMALL
USER_CHARGES
 
@<TRIPOS>ATOM
       1    C1      19.707052   19.792824   26.711826 C.2        1 MOL1         0.6168
       2    O1      19.927009   19.419661   27.847318 O.co2      1 MOL1        -0.6703
       3    O2      18.689841   20.366903   26.376718 O.co2      1 MOL1        -0.6703
       4    C2      20.756995   19.506351   25.644650 C.3        1 MOL1        -0.1963
       5    H1      21.744410   19.538144   26.120130 H          1 MOL1         0.0750
       6    H2      20.722890   20.323567   24.916072 H          1 MOL1         0.0750
       7    C3      20.544253   18.137493   24.947167 C.3        1 MOL1        -0.1860
       8    H3      20.547716   17.351038   25.714358 H          1 MOL1         0.0752
       9    H4      19.549683   18.100202   24.484991 H          1 MOL1         0.0752
      10    C4      21.632007   17.805331   23.897549 C.3        1 MOL1        -0.1858
      11    H5      21.457341   16.788711   23.519798 H          1 MOL1         0.0752
      12    H6      22.607558   17.773798   24.401585 H          1 MOL1         0.0752
      13    C5      21.730246   18.775570   22.690660 C.3        1 MOL1        -0.1858
      14    H7      21.989510   19.788514   23.024906 H          1 MOL1         0.0752
      15    H8      22.580821   18.445055   22.079072 H          1 MOL1         0.0752
      16    C6      20.477072   18.807702   21.778224 C.3        1 MOL1        -0.1858
      17    H9      19.960352   17.838938   21.812073 H          1 MOL1         0.0752
      18    H10     20.810842   18.939088   20.739837 H          1 MOL1         0.0752
      19    C7      19.492656   19.952537   22.112074 C.3        1 MOL1        -0.1834
      20    H11     19.117620   19.854016   23.137702 H          1 MOL1         0.0752
      21    H12     20.016523   20.916726   22.059045 H          1 MOL1         0.0752
      22    C8      18.295871   19.969627   21.139812 C.3        1 MOL1        -0.2849
      23    H13     17.734164   19.027862   21.193173 H          1 MOL1         0.0764
      24    H14     17.608331   20.788655   21.387782 H          1 MOL1         0.0764
      25    H15     18.631977   20.110770   20.104266 H          1 MOL1         0.0764
@<TRIPOS>BOND
    1     1     2    1
    2     1     3    2
    3     1     4    1
    4     4     5    1
    5     4     6    1
    6     4     7    1
    7     7     8    1
    8     7     9    1
    9     7    10    1
   10    10    11    1
   11    10    12    1
   12    10    13    1
   13    13    14    1
   14    13    15    1
   15    13    16    1
   16    16    17    1
   17    16    18    1
   18    16    19    1
   19    19    20    1
   20    19    21    1
   21    19    22    1
   22    22    23    1
   23    22    24    1
   24    22    25    1
@<TRIPOS>SUBSTRUCTURE
       1 MOL1            1 RESIDUE      1      MOL     
@<SCITEGIC>MOL_PROPERTY
VM2 Rank
SciTegic.value.IntegerValue
123

@<SCITEGIC>MOL_PROPERTY
Conf_Id
SciTegic.value.IntegerValue
255

@<SCITEGIC>MOL_PROPERTY
Probability
SciTegic.value.DoubleValue
0.00

@<SCITEGIC>MOL_PROPERTY
Sum Probability
SciTegic.value.DoubleValue
99.93

@<SCITEGIC>MOL_PROPERTY
Delta G
SciTegic.value.DoubleValue
5.134

@<SCITEGIC>MOL_PROPERTY
G
SciTegic.value.DoubleValue
-2.828

@<SCITEGIC>MOL_PROPERTY
E
SciTegic.value.DoubleValue
-28.109

@<SCITEGIC>MOL_PROPERTY
-TS
SciTegic.value.DoubleValue
25.281

@<SCITEGIC>MOL_PROPERTY
U+W
SciTegic.value.DoubleValue
-48.676

@<SCITEGIC>MOL_PROPERTY
U
SciTegic.value.DoubleValue
11.616

@<SCITEGIC>MOL_PROPERTY
W
SciTegic.value.DoubleValue
-60.292

@<SCITEGIC>MOL_PROPERTY
W(PB)
SciTegic.value.DoubleValue
-62.674

@<SCITEGIC>MOL_PROPERTY
W(SA)
SciTegic.value.DoubleValue
2.382

@<SCITEGIC>MOL_PROPERTY
Valence
SciTegic.value.DoubleValue
11.123

@<SCITEGIC>MOL_PROPERTY
Coulomb
SciTegic.value.DoubleValue
-0.039

@<SCITEGIC>MOL_PROPERTY
VdW
SciTegic.value.DoubleValue
0.532

@<SCITEGIC>MOL_PROPERTY
VdW6
SciTegic.value.DoubleValue
-10.780

@<SCITEGIC>MOL_PROPERTY
VdW12
SciTegic.value.DoubleValue
11.312

@<SCITEGIC>MOL_PROPERTY
Bond
SciTegic.value.DoubleValue
0.247

@<SCITEGIC>MOL_PROPERTY
Angle
SciTegic.value.DoubleValue
3.570

@<SCITEGIC>MOL_PROPERTY
Pdih
SciTegic.value.DoubleValue
7.305

@<SCITEGIC>MOL_PROPERTY
Idih
SciTegic.value.DoubleValue
0.001

@<SCITEGIC>MOL_PROPERTY
Tether
SciTegic.value.DoubleValue
0.000

@<TRIPOS>MOLECULE
guest-8_vm2.mol2 : vm2 ligand conformer 124
          25          24           1
SMALL
USER_CHARGES
 
@<TRIPOS>ATOM
       1    C1      20.074902   19.552044   27.173684 C.2        1 MOL1         0.6168
       2    O1      20.677928   18.688025   27.779437 O.co2      1 MOL1        -0.6703
       3    O2      18.954567   19.921281   27.466346 O.co2      1 MOL1        -0.6703
       4    C2      20.768335   20.225386   25.992603 C.3        1 MOL1        -0.1963
       5    H1      21.847219   20.043876   26.069155 H          1 MOL1         0.0750
       6    H2      20.619918   21.306324   26.099753 H          1 MOL1         0.0750
       7    C3      20.244952   19.766541   24.606589 C.3        1 MOL1        -0.1860
       8    H3      19.156646   19.910890   24.561583 H          1 MOL1         0.0752
       9    H4      20.687888   20.413338   23.838696 H          1 MOL1         0.0752
      10    C4      20.593669   18.292042   24.297188 C.3        1 MOL1        -0.1858
      11    H5      20.242437   17.657088   25.122013 H          1 MOL1         0.0752
      12    H6      21.685411   18.174871   24.263913 H          1 MOL1         0.0752
      13    C5      19.978022   17.755560   22.980451 C.3        1 MOL1        -0.1858
      14    H7      20.250015   16.694451   22.897373 H          1 MOL1         0.0752
      15    H8      18.881352   17.777936   23.041171 H          1 MOL1         0.0752
      16    C6      20.460782   18.478815   21.697389 C.3        1 MOL1        -0.1858
      17    H9      20.563626   17.734703   20.895732 H          1 MOL1         0.0752
      18    H10     21.463833   18.898156   21.855140 H          1 MOL1         0.0752
      19    C7      19.487513   19.577647   21.211293 C.3        1 MOL1        -0.1834
      20    H11     18.505855   19.131559   21.000275 H          1 MOL1         0.0752
      21    H12     19.328828   20.327223   21.995924 H          1 MOL1         0.0752
      22    C8      20.012329   20.276658   19.941020 C.3        1 MOL1        -0.2849
      23    H13     20.143568   19.557329   19.122087 H          1 MOL1         0.0764
      24    H14     19.307549   21.048198   19.604828 H          1 MOL1         0.0764
      25    H15     20.979347   20.760567   20.130871 H          1 MOL1         0.0764
@<TRIPOS>BOND
    1     1     2    1
    2     1     3    2
    3     1     4    1
    4     4     5    1
    5     4     6    1
    6     4     7    1
    7     7     8    1
    8     7     9    1
    9     7    10    1
   10    10    11    1
   11    10    12    1
   12    10    13    1
   13    13    14    1
   14    13    15    1
   15    13    16    1
   16    16    17    1
   17    16    18    1
   18    16    19    1
   19    19    20    1
   20    19    21    1
   21    19    22    1
   22    22    23    1
   23    22    24    1
   24    22    25    1
@<TRIPOS>SUBSTRUCTURE
       1 MOL1            1 RESIDUE      1      MOL     
@<SCITEGIC>MOL_PROPERTY
VM2 Rank
SciTegic.value.IntegerValue
124

@<SCITEGIC>MOL_PROPERTY
Conf_Id
SciTegic.value.IntegerValue
929

@<SCITEGIC>MOL_PROPERTY
Probability
SciTegic.value.DoubleValue
0.00

@<SCITEGIC>MOL_PROPERTY
Sum Probability
SciTegic.value.DoubleValue
99.93

@<SCITEGIC>MOL_PROPERTY
Delta G
SciTegic.value.DoubleValue
5.254

@<SCITEGIC>MOL_PROPERTY
G
SciTegic.value.DoubleValue
-2.708

@<SCITEGIC>MOL_PROPERTY
E
SciTegic.value.DoubleValue
-27.820

@<SCITEGIC>MOL_PROPERTY
-TS
SciTegic.value.DoubleValue
25.112

@<SCITEGIC>MOL_PROPERTY
U+W
SciTegic.value.DoubleValue
-48.387

@<SCITEGIC>MOL_PROPERTY
U
SciTegic.value.DoubleValue
11.468

@<SCITEGIC>MOL_PROPERTY
W
SciTegic.value.DoubleValue
-59.856

@<SCITEGIC>MOL_PROPERTY
W(PB)
SciTegic.value.DoubleValue
-62.300

@<SCITEGIC>MOL_PROPERTY
W(SA)
SciTegic.value.DoubleValue
2.444

@<SCITEGIC>MOL_PROPERTY
Valence
SciTegic.value.DoubleValue
10.869

@<SCITEGIC>MOL_PROPERTY
Coulomb
SciTegic.value.DoubleValue
-0.265

@<SCITEGIC>MOL_PROPERTY
VdW
SciTegic.value.DoubleValue
0.864

@<SCITEGIC>MOL_PROPERTY
VdW6
SciTegic.value.DoubleValue
-10.146

@<SCITEGIC>MOL_PROPERTY
VdW12
SciTegic.value.DoubleValue
11.010

@<SCITEGIC>MOL_PROPERTY
Bond
SciTegic.value.DoubleValue
0.218

@<SCITEGIC>MOL_PROPERTY
Angle
SciTegic.value.DoubleValue
3.178

@<SCITEGIC>MOL_PROPERTY
Pdih
SciTegic.value.DoubleValue
7.473

@<SCITEGIC>MOL_PROPERTY
Idih
SciTegic.value.DoubleValue
0.001

@<SCITEGIC>MOL_PROPERTY
Tether
SciTegic.value.DoubleValue
0.000

@<TRIPOS>MOLECULE
guest-8_vm2.mol2 : vm2 ligand conformer 125
          25          24           1
SMALL
USER_CHARGES
 
@<TRIPOS>ATOM
       1    C1      20.283881   19.536100   27.191747 C.2        1 MOL1         0.6168
       2    O1      21.340704   19.010374   27.481196 O.co2      1 MOL1        -0.6703
       3    O2      19.272625   19.424117   27.856548 O.co2      1 MOL1        -0.6703
       4    C2      20.225526   20.398685   25.934179 C.3        1 MOL1        -0.1963
       5    H1      21.248186   20.678499   25.653714 H          1 MOL1         0.0750
       6    H2      19.703473   21.326256   26.196851 H          1 MOL1         0.0750
       7    C3      19.508776   19.722128   24.736862 C.3        1 MOL1        -0.1860
       8    H3      18.496344   19.424085   25.042677 H          1 MOL1         0.0752
       9    H4      19.385874   20.461592   23.937033 H          1 MOL1         0.0752
      10    C4      20.276477   18.486547   24.206589 C.3        1 MOL1        -0.1858
      11    H5      20.328264   17.740329   25.011366 H          1 MOL1         0.0752
      12    H6      21.316075   18.753214   23.972128 H          1 MOL1         0.0752
      13    C5      19.603888   17.830720   22.973975 C.3        1 MOL1        -0.1858
      14    H7      19.725631   16.742110   23.057356 H          1 MOL1         0.0752
      15    H8      18.520379   18.011331   22.989693 H          1 MOL1         0.0752
      16    C6      20.195596   18.262143   21.608401 C.3        1 MOL1        -0.1858
      17    H9      19.700563   17.679938   20.819214 H          1 MOL1         0.0752
      18    H10     21.259345   17.990510   21.569774 H          1 MOL1         0.0752
      19    C7      20.039101   19.765937   21.294123 C.3        1 MOL1        -0.1834
      20    H11     18.988242   20.063278   21.413758 H          1 MOL1         0.0752
      21    H12     20.628438   20.358575   22.006020 H          1 MOL1         0.0752
      22    C8      20.506427   20.097250   19.862378 C.3        1 MOL1        -0.2849
      23    H13     19.914240   19.548555   19.118371 H          1 MOL1         0.0764
      24    H14     20.396250   21.170211   19.658353 H          1 MOL1         0.0764
      25    H15     21.562762   19.832401   19.723275 H          1 MOL1         0.0764
@<TRIPOS>BOND
    1     1     2    1
    2     1     3    2
    3     1     4    1
    4     4     5    1
    5     4     6    1
    6     4     7    1
    7     7     8    1
    8     7     9    1
    9     7    10    1
   10    10    11    1
   11    10    12    1
   12    10    13    1
   13    13    14    1
   14    13    15    1
   15    13    16    1
   16    16    17    1
   17    16    18    1
   18    16    19    1
   19    19    20    1
   20    19    21    1
   21    19    22    1
   22    22    23    1
   23    22    24    1
   24    22    25    1
@<TRIPOS>SUBSTRUCTURE
       1 MOL1            1 RESIDUE      1      MOL     
@<SCITEGIC>MOL_PROPERTY
VM2 Rank
SciTegic.value.IntegerValue
125

@<SCITEGIC>MOL_PROPERTY
Conf_Id
SciTegic.value.IntegerValue
515

@<SCITEGIC>MOL_PROPERTY
Probability
SciTegic.value.DoubleValue
0.00

@<SCITEGIC>MOL_PROPERTY
Sum Probability
SciTegic.value.DoubleValue
99.94

@<SCITEGIC>MOL_PROPERTY
Delta G
SciTegic.value.DoubleValue
5.262

@<SCITEGIC>MOL_PROPERTY
G
SciTegic.value.DoubleValue
-2.700

@<SCITEGIC>MOL_PROPERTY
E
SciTegic.value.DoubleValue
-27.781

@<SCITEGIC>MOL_PROPERTY
-TS
SciTegic.value.DoubleValue
25.080

@<SCITEGIC>MOL_PROPERTY
U+W
SciTegic.value.DoubleValue
-48.348

@<SCITEGIC>MOL_PROPERTY
U
SciTegic.value.DoubleValue
11.345

@<SCITEGIC>MOL_PROPERTY
W
SciTegic.value.DoubleValue
-59.694

@<SCITEGIC>MOL_PROPERTY
W(PB)
SciTegic.value.DoubleValue
-62.127

@<SCITEGIC>MOL_PROPERTY
W(SA)
SciTegic.value.DoubleValue
2.434

@<SCITEGIC>MOL_PROPERTY
Valence
SciTegic.value.DoubleValue
10.839

@<SCITEGIC>MOL_PROPERTY
Coulomb
SciTegic.value.DoubleValue
-0.332

@<SCITEGIC>MOL_PROPERTY
VdW
SciTegic.value.DoubleValue
0.838

@<SCITEGIC>MOL_PROPERTY
VdW6
SciTegic.value.DoubleValue
-10.154

@<SCITEGIC>MOL_PROPERTY
VdW12
SciTegic.value.DoubleValue
10.992

@<SCITEGIC>MOL_PROPERTY
Bond
SciTegic.value.DoubleValue
0.219

@<SCITEGIC>MOL_PROPERTY
Angle
SciTegic.value.DoubleValue
3.144

@<SCITEGIC>MOL_PROPERTY
Pdih
SciTegic.value.DoubleValue
7.476

@<SCITEGIC>MOL_PROPERTY
Idih
SciTegic.value.DoubleValue
0.000

@<SCITEGIC>MOL_PROPERTY
Tether
SciTegic.value.DoubleValue
0.000

@<TRIPOS>MOLECULE
guest-8_vm2.mol2 : vm2 ligand conformer 126
          25          24           1
SMALL
USER_CHARGES
 
@<TRIPOS>ATOM
       1    C1      19.819628   19.318091   27.105527 C.2        1 MOL1         0.6168
       2    O1      20.607569   19.906200   27.819971 O.co2      1 MOL1        -0.6703
       3    O2      18.644865   19.615129   27.012365 O.co2      1 MOL1        -0.6703
       4    C2      20.331421   18.128991   26.297360 C.3        1 MOL1        -0.1963
       5    H1      19.473337   17.518234   25.991547 H          1 MOL1         0.0750
       6    H2      20.937004   17.511174   26.970787 H          1 MOL1         0.0750
       7    C3      21.175477   18.525134   25.058136 C.3        1 MOL1        -0.1860
       8    H3      22.015072   19.158524   25.376687 H          1 MOL1         0.0752
       9    H4      21.612326   17.617628   24.619861 H          1 MOL1         0.0752
      10    C4      20.343747   19.259452   23.982573 C.3        1 MOL1        -0.1858
      11    H5      19.919602   20.178640   24.409494 H          1 MOL1         0.0752
      12    H6      19.494867   18.630674   23.689103 H          1 MOL1         0.0752
      13    C5      21.200434   19.619556   22.745896 C.3        1 MOL1        -0.1858
      14    H7      22.018499   20.274216   23.076188 H          1 MOL1         0.0752
      15    H8      21.676066   18.719013   22.334140 H          1 MOL1         0.0752
      16    C6      20.401913   20.352254   21.637776 C.3        1 MOL1        -0.1858
      17    H9      21.064176   21.096904   21.175449 H          1 MOL1         0.0752
      18    H10     19.573553   20.923058   22.079246 H          1 MOL1         0.0752
      19    C7      19.872768   19.434538   20.507861 C.3        1 MOL1        -0.1834
      20    H11     19.397398   20.063098   19.742290 H          1 MOL1         0.0752
      21    H12     20.717313   18.934698   20.013767 H          1 MOL1         0.0752
      22    C8      18.855179   18.374656   20.978536 C.3        1 MOL1        -0.2849
      23    H13     18.031061   18.839350   21.535222 H          1 MOL1         0.0764
      24    H14     18.426756   17.844939   20.117958 H          1 MOL1         0.0764
      25    H15     19.333275   17.626072   21.622474 H          1 MOL1         0.0764
@<TRIPOS>BOND
    1     1     2    1
    2     1     3    2
    3     1     4    1
    4     4     5    1
    5     4     6    1
    6     4     7    1
    7     7     8    1
    8     7     9    1
    9     7    10    1
   10    10    11    1
   11    10    12    1
   12    10    13    1
   13    13    14    1
   14    13    15    1
   15    13    16    1
   16    16    17    1
   17    16    18    1
   18    16    19    1
   19    19    20    1
   20    19    21    1
   21    19    22    1
   22    22    23    1
   23    22    24    1
   24    22    25    1
@<TRIPOS>SUBSTRUCTURE
       1 MOL1            1 RESIDUE      1      MOL     
@<SCITEGIC>MOL_PROPERTY
VM2 Rank
SciTegic.value.IntegerValue
126

@<SCITEGIC>MOL_PROPERTY
Conf_Id
SciTegic.value.IntegerValue
977

@<SCITEGIC>MOL_PROPERTY
Probability
SciTegic.value.DoubleValue
0.00

@<SCITEGIC>MOL_PROPERTY
Sum Probability
SciTegic.value.DoubleValue
99.94

@<SCITEGIC>MOL_PROPERTY
Delta G
SciTegic.value.DoubleValue
5.301

@<SCITEGIC>MOL_PROPERTY
G
SciTegic.value.DoubleValue
-2.662

@<SCITEGIC>MOL_PROPERTY
E
SciTegic.value.DoubleValue
-27.708

@<SCITEGIC>MOL_PROPERTY
-TS
SciTegic.value.DoubleValue
25.047

@<SCITEGIC>MOL_PROPERTY
U+W
SciTegic.value.DoubleValue
-48.276

@<SCITEGIC>MOL_PROPERTY
U
SciTegic.value.DoubleValue
11.935

@<SCITEGIC>MOL_PROPERTY
W
SciTegic.value.DoubleValue
-60.211

@<SCITEGIC>MOL_PROPERTY
W(PB)
SciTegic.value.DoubleValue
-62.649

@<SCITEGIC>MOL_PROPERTY
W(SA)
SciTegic.value.DoubleValue
2.438

@<SCITEGIC>MOL_PROPERTY
Valence
SciTegic.value.DoubleValue
10.764

@<SCITEGIC>MOL_PROPERTY
Coulomb
SciTegic.value.DoubleValue
0.351

@<SCITEGIC>MOL_PROPERTY
VdW
SciTegic.value.DoubleValue
0.820

@<SCITEGIC>MOL_PROPERTY
VdW6
SciTegic.value.DoubleValue
-10.096

@<SCITEGIC>MOL_PROPERTY
VdW12
SciTegic.value.DoubleValue
10.917

@<SCITEGIC>MOL_PROPERTY
Bond
SciTegic.value.DoubleValue
0.214

@<SCITEGIC>MOL_PROPERTY
Angle
SciTegic.value.DoubleValue
3.143

@<SCITEGIC>MOL_PROPERTY
Pdih
SciTegic.value.DoubleValue
7.406

@<SCITEGIC>MOL_PROPERTY
Idih
SciTegic.value.DoubleValue
0.001

@<SCITEGIC>MOL_PROPERTY
Tether
SciTegic.value.DoubleValue
0.000

@<TRIPOS>MOLECULE
guest-8_vm2.mol2 : vm2 ligand conformer 127
          25          24           1
SMALL
USER_CHARGES
 
@<TRIPOS>ATOM
       1    C1      19.998151   19.517818   27.194974 C.2        1 MOL1         0.6168
       2    O1      21.030440   19.535918   27.836215 O.co2      1 MOL1        -0.6703
       3    O2      19.023459   18.862724   27.507812 O.co2      1 MOL1        -0.6703
       4    C2      19.917746   20.379079   25.937714 C.3        1 MOL1        -0.1963
       5    H1      20.323617   21.365809   26.189811 H          1 MOL1         0.0750
       6    H2      18.861689   20.526341   25.681099 H          1 MOL1         0.0750
       7    C3      20.687080   19.797375   24.723310 C.3        1 MOL1        -0.1860
       8    H3      20.696591   20.545273   23.921937 H          1 MOL1         0.0752
       9    H4      21.735935   19.630943   25.005403 H          1 MOL1         0.0752
      10    C4      20.070775   18.473417   24.209000 C.3        1 MOL1        -0.1858
      11    H5      19.000573   18.605335   23.998975 H          1 MOL1         0.0752
      12    H6      20.132904   17.727822   25.013622 H          1 MOL1         0.0752
      13    C5      20.792722   17.906728   22.960209 C.3        1 MOL1        -0.1858
      14    H7      21.844492   18.223837   22.951145 H          1 MOL1         0.0752
      15    H8      20.812523   16.811603   23.044781 H          1 MOL1         0.0752
      16    C6      20.119494   18.257293   21.609318 C.3        1 MOL1        -0.1858
      17    H9      19.098365   17.852415   21.594909 H          1 MOL1         0.0752
      18    H10     20.666213   17.741658   20.808035 H          1 MOL1         0.0752
      19    C7      20.076002   19.768309   21.293719 C.3        1 MOL1        -0.1834
      20    H11     19.432771   20.282198   22.020014 H          1 MOL1         0.0752
      21    H12     21.082979   20.197128   21.389318 H          1 MOL1         0.0752
      22    C8      19.537131   20.035341   19.873729 C.3        1 MOL1        -0.2849
      23    H13     20.176838   19.565347   19.115324 H          1 MOL1         0.0764
      24    H14     18.520127   19.638042   19.758852 H          1 MOL1         0.0764
      25    H15     19.505117   21.113297   19.668796 H          1 MOL1         0.0764
@<TRIPOS>BOND
    1     1     2    1
    2     1     3    2
    3     1     4    1
    4     4     5    1
    5     4     6    1
    6     4     7    1
    7     7     8    1
    8     7     9    1
    9     7    10    1
   10    10    11    1
   11    10    12    1
   12    10    13    1
   13    13    14    1
   14    13    15    1
   15    13    16    1
   16    16    17    1
   17    16    18    1
   18    16    19    1
   19    19    20    1
   20    19    21    1
   21    19    22    1
   22    22    23    1
   23    22    24    1
   24    22    25    1
@<TRIPOS>SUBSTRUCTURE
       1 MOL1            1 RESIDUE      1      MOL     
@<SCITEGIC>MOL_PROPERTY
VM2 Rank
SciTegic.value.IntegerValue
127

@<SCITEGIC>MOL_PROPERTY
Conf_Id
SciTegic.value.IntegerValue
818

@<SCITEGIC>MOL_PROPERTY
Probability
SciTegic.value.DoubleValue
0.00

@<SCITEGIC>MOL_PROPERTY
Sum Probability
SciTegic.value.DoubleValue
99.95

@<SCITEGIC>MOL_PROPERTY
Delta G
SciTegic.value.DoubleValue
5.310

@<SCITEGIC>MOL_PROPERTY
G
SciTegic.value.DoubleValue
-2.653

@<SCITEGIC>MOL_PROPERTY
E
SciTegic.value.DoubleValue
-27.733

@<SCITEGIC>MOL_PROPERTY
-TS
SciTegic.value.DoubleValue
25.080

@<SCITEGIC>MOL_PROPERTY
U+W
SciTegic.value.DoubleValue
-48.300

@<SCITEGIC>MOL_PROPERTY
U
SciTegic.value.DoubleValue
11.346

@<SCITEGIC>MOL_PROPERTY
W
SciTegic.value.DoubleValue
-59.646

@<SCITEGIC>MOL_PROPERTY
W(PB)
SciTegic.value.DoubleValue
-62.070

@<SCITEGIC>MOL_PROPERTY
W(SA)
SciTegic.value.DoubleValue
2.425

@<SCITEGIC>MOL_PROPERTY
Valence
SciTegic.value.DoubleValue
10.839

@<SCITEGIC>MOL_PROPERTY
Coulomb
SciTegic.value.DoubleValue
-0.332

@<SCITEGIC>MOL_PROPERTY
VdW
SciTegic.value.DoubleValue
0.838

@<SCITEGIC>MOL_PROPERTY
VdW6
SciTegic.value.DoubleValue
-10.154

@<SCITEGIC>MOL_PROPERTY
VdW12
SciTegic.value.DoubleValue
10.991

@<SCITEGIC>MOL_PROPERTY
Bond
SciTegic.value.DoubleValue
0.219

@<SCITEGIC>MOL_PROPERTY
Angle
SciTegic.value.DoubleValue
3.144

@<SCITEGIC>MOL_PROPERTY
Pdih
SciTegic.value.DoubleValue
7.476

@<SCITEGIC>MOL_PROPERTY
Idih
SciTegic.value.DoubleValue
0.000

@<SCITEGIC>MOL_PROPERTY
Tether
SciTegic.value.DoubleValue
0.000

@<TRIPOS>MOLECULE
guest-8_vm2.mol2 : vm2 ligand conformer 128
          25          24           1
SMALL
USER_CHARGES
 
@<TRIPOS>ATOM
       1    C1      19.802250   19.516668   26.965722 C.2        1 MOL1         0.6168
       2    O1      20.771007   19.924767   27.575707 O.co2      1 MOL1        -0.6703
       3    O2      18.737349   20.101017   26.925687 O.co2      1 MOL1        -0.6703
       4    C2      19.920608   18.186617   26.226858 C.3        1 MOL1        -0.1963
       5    H1      19.016483   17.606895   26.446933 H          1 MOL1         0.0750
       6    H2      20.765900   17.627523   26.645927 H          1 MOL1         0.0750
       7    C3      20.081564   18.332128   24.691344 C.3        1 MOL1        -0.1860
       8    H3      20.031191   17.336593   24.230410 H          1 MOL1         0.0752
       9    H4      19.235270   18.912375   24.300505 H          1 MOL1         0.0752
      10    C4      21.412840   19.012463   24.297023 C.3        1 MOL1        -0.1858
      11    H5      22.240357   18.497698   24.804021 H          1 MOL1         0.0752
      12    H6      21.421362   20.046234   24.669203 H          1 MOL1         0.0752
      13    C5      21.700022   19.014273   22.774541 C.3        1 MOL1        -0.1858
      14    H7      22.688347   19.470279   22.625876 H          1 MOL1         0.0752
      15    H8      21.789130   17.983254   22.405938 H          1 MOL1         0.0752
      16    C6      20.672468   19.803256   21.923668 C.3        1 MOL1        -0.1858
      17    H9      21.209136   20.305970   21.107468 H          1 MOL1         0.0752
      18    H10     20.216766   20.600700   22.526540 H          1 MOL1         0.0752
      19    C7      19.577367   18.907863   21.299230 C.3        1 MOL1        -0.1834
      20    H11     20.045077   18.149693   20.656130 H          1 MOL1         0.0752
      21    H12     19.032299   18.363950   22.080016 H          1 MOL1         0.0752
      22    C8      18.577525   19.734949   20.466220 C.3        1 MOL1        -0.2849
      23    H13     18.069770   20.481297   21.091131 H          1 MOL1         0.0764
      24    H14     19.087503   20.261503   19.648930 H          1 MOL1         0.0764
      25    H15     17.811117   19.084890   20.024578 H          1 MOL1         0.0764
@<TRIPOS>BOND
    1     1     2    1
    2     1     3    2
    3     1     4    1
    4     4     5    1
    5     4     6    1
    6     4     7    1
    7     7     8    1
    8     7     9    1
    9     7    10    1
   10    10    11    1
   11    10    12    1
   12    10    13    1
   13    13    14    1
   14    13    15    1
   15    13    16    1
   16    16    17    1
   17    16    18    1
   18    16    19    1
   19    19    20    1
   20    19    21    1
   21    19    22    1
   22    22    23    1
   23    22    24    1
   24    22    25    1
@<TRIPOS>SUBSTRUCTURE
       1 MOL1            1 RESIDUE      1      MOL     
@<SCITEGIC>MOL_PROPERTY
VM2 Rank
SciTegic.value.IntegerValue
128

@<SCITEGIC>MOL_PROPERTY
Conf_Id
SciTegic.value.IntegerValue
287

@<SCITEGIC>MOL_PROPERTY
Probability
SciTegic.value.DoubleValue
0.00

@<SCITEGIC>MOL_PROPERTY
Sum Probability
SciTegic.value.DoubleValue
99.95

@<SCITEGIC>MOL_PROPERTY
Delta G
SciTegic.value.DoubleValue
5.333

@<SCITEGIC>MOL_PROPERTY
G
SciTegic.value.DoubleValue
-2.629

@<SCITEGIC>MOL_PROPERTY
E
SciTegic.value.DoubleValue
-27.708

@<SCITEGIC>MOL_PROPERTY
-TS
SciTegic.value.DoubleValue
25.078

@<SCITEGIC>MOL_PROPERTY
U+W
SciTegic.value.DoubleValue
-48.275

@<SCITEGIC>MOL_PROPERTY
U
SciTegic.value.DoubleValue
12.003

@<SCITEGIC>MOL_PROPERTY
W
SciTegic.value.DoubleValue
-60.279

@<SCITEGIC>MOL_PROPERTY
W(PB)
SciTegic.value.DoubleValue
-62.720

@<SCITEGIC>MOL_PROPERTY
W(SA)
SciTegic.value.DoubleValue
2.441

@<SCITEGIC>MOL_PROPERTY
Valence
SciTegic.value.DoubleValue
10.797

@<SCITEGIC>MOL_PROPERTY
Coulomb
SciTegic.value.DoubleValue
0.448

@<SCITEGIC>MOL_PROPERTY
VdW
SciTegic.value.DoubleValue
0.758

@<SCITEGIC>MOL_PROPERTY
VdW6
SciTegic.value.DoubleValue
-10.232

@<SCITEGIC>MOL_PROPERTY
VdW12
SciTegic.value.DoubleValue
10.990

@<SCITEGIC>MOL_PROPERTY
Bond
SciTegic.value.DoubleValue
0.215

@<SCITEGIC>MOL_PROPERTY
Angle
SciTegic.value.DoubleValue
3.136

@<SCITEGIC>MOL_PROPERTY
Pdih
SciTegic.value.DoubleValue
7.446

@<SCITEGIC>MOL_PROPERTY
Idih
SciTegic.value.DoubleValue
0.001

@<SCITEGIC>MOL_PROPERTY
Tether
SciTegic.value.DoubleValue
0.000

@<TRIPOS>MOLECULE
guest-8_vm2.mol2 : vm2 ligand conformer 129
          25          24           1
SMALL
USER_CHARGES
 
@<TRIPOS>ATOM
       1    C1      20.018065   19.321855   26.963797 C.2        1 MOL1         0.6168
       2    O1      20.891757   19.665170   27.736078 O.co2      1 MOL1        -0.6703
       3    O2      18.874937   19.731155   27.017593 O.co2      1 MOL1        -0.6703
       4    C2      20.371093   18.298222   25.888389 C.3        1 MOL1        -0.1963
       5    H1      19.442296   17.889693   25.474252 H          1 MOL1         0.0750
       6    H2      20.882437   17.465832   26.385521 H          1 MOL1         0.0750
       7    C3      21.276241   18.855058   24.755805 C.3        1 MOL1        -0.1860
       8    H3      22.221078   19.200200   25.197586 H          1 MOL1         0.0752
       9    H4      21.543266   18.038832   24.072254 H          1 MOL1         0.0752
      10    C4      20.648529   20.022793   23.951772 C.3        1 MOL1        -0.1858
      11    H5      21.373266   20.369143   23.203395 H          1 MOL1         0.0752
      12    H6      20.489019   20.875575   24.625614 H          1 MOL1         0.0752
      13    C5      19.306162   19.691801   23.248576 C.3        1 MOL1        -0.1858
      14    H7      18.539393   19.496362   24.009963 H          1 MOL1         0.0752
      15    H8      18.959797   20.584754   22.712338 H          1 MOL1         0.0752
      16    C6      19.353741   18.491926   22.266154 C.3        1 MOL1        -0.1858
      17    H9      18.354844   18.356382   21.830064 H          1 MOL1         0.0752
      18    H10     19.559893   17.571573   22.827948 H          1 MOL1         0.0752
      19    C7      20.385833   18.621678   21.118888 C.3        1 MOL1        -0.1834
      20    H11     21.402426   18.679288   21.529748 H          1 MOL1         0.0752
      21    H12     20.353637   17.705443   20.513628 H          1 MOL1         0.0752
      22    C8      20.126643   19.834343   20.198948 C.3        1 MOL1        -0.2849
      23    H13     20.829488   19.834391   19.355906 H          1 MOL1         0.0764
      24    H14     19.107976   19.807158   19.790900 H          1 MOL1         0.0764
      25    H15     20.256048   20.779914   20.740288 H          1 MOL1         0.0764
@<TRIPOS>BOND
    1     1     2    1
    2     1     3    2
    3     1     4    1
    4     4     5    1
    5     4     6    1
    6     4     7    1
    7     7     8    1
    8     7     9    1
    9     7    10    1
   10    10    11    1
   11    10    12    1
   12    10    13    1
   13    13    14    1
   14    13    15    1
   15    13    16    1
   16    16    17    1
   17    16    18    1
   18    16    19    1
   19    19    20    1
   20    19    21    1
   21    19    22    1
   22    22    23    1
   23    22    24    1
   24    22    25    1
@<TRIPOS>SUBSTRUCTURE
       1 MOL1            1 RESIDUE      1      MOL     
@<SCITEGIC>MOL_PROPERTY
VM2 Rank
SciTegic.value.IntegerValue
129

@<SCITEGIC>MOL_PROPERTY
Conf_Id
SciTegic.value.IntegerValue
220

@<SCITEGIC>MOL_PROPERTY
Probability
SciTegic.value.DoubleValue
0.00

@<SCITEGIC>MOL_PROPERTY
Sum Probability
SciTegic.value.DoubleValue
99.95

@<SCITEGIC>MOL_PROPERTY
Delta G
SciTegic.value.DoubleValue
5.343

@<SCITEGIC>MOL_PROPERTY
G
SciTegic.value.DoubleValue
-2.619

@<SCITEGIC>MOL_PROPERTY
E
SciTegic.value.DoubleValue
-28.451

@<SCITEGIC>MOL_PROPERTY
-TS
SciTegic.value.DoubleValue
25.832

@<SCITEGIC>MOL_PROPERTY
U+W
SciTegic.value.DoubleValue
-49.019

@<SCITEGIC>MOL_PROPERTY
U
SciTegic.value.DoubleValue
11.078

@<SCITEGIC>MOL_PROPERTY
W
SciTegic.value.DoubleValue
-60.097

@<SCITEGIC>MOL_PROPERTY
W(PB)
SciTegic.value.DoubleValue
-62.452

@<SCITEGIC>MOL_PROPERTY
W(SA)
SciTegic.value.DoubleValue
2.355

@<SCITEGIC>MOL_PROPERTY
Valence
SciTegic.value.DoubleValue
9.623

@<SCITEGIC>MOL_PROPERTY
Coulomb
SciTegic.value.DoubleValue
0.949

@<SCITEGIC>MOL_PROPERTY
VdW
SciTegic.value.DoubleValue
0.506

@<SCITEGIC>MOL_PROPERTY
VdW6
SciTegic.value.DoubleValue
-12.338

@<SCITEGIC>MOL_PROPERTY
VdW12
SciTegic.value.DoubleValue
12.844

@<SCITEGIC>MOL_PROPERTY
Bond
SciTegic.value.DoubleValue
0.307

@<SCITEGIC>MOL_PROPERTY
Angle
SciTegic.value.DoubleValue
3.790

@<SCITEGIC>MOL_PROPERTY
Pdih
SciTegic.value.DoubleValue
5.525

@<SCITEGIC>MOL_PROPERTY
Idih
SciTegic.value.DoubleValue
0.001

@<SCITEGIC>MOL_PROPERTY
Tether
SciTegic.value.DoubleValue
0.000

@<TRIPOS>MOLECULE
guest-8_vm2.mol2 : vm2 ligand conformer 130
          25          24           1
SMALL
USER_CHARGES
 
@<TRIPOS>ATOM
       1    C1      19.935527   19.235884   27.183373 C.2        1 MOL1         0.6168
       2    O1      20.993557   19.402830   27.757661 O.co2      1 MOL1        -0.6703
       3    O2      18.914131   19.829225   27.469433 O.co2      1 MOL1        -0.6703
       4    C2      19.879335   18.210689   26.054207 C.3        1 MOL1        -0.1963
       5    H1      18.983841   17.598524   26.213198 H          1 MOL1         0.0750
       6    H2      20.742538   17.540373   26.145603 H          1 MOL1         0.0750
       7    C3      19.833670   18.834836   24.635102 C.3        1 MOL1        -0.1860
       8    H3      19.637725   18.033490   23.911468 H          1 MOL1         0.0752
       9    H4      18.992136   19.538572   24.573034 H          1 MOL1         0.0752
      10    C4      21.150036   19.553821   24.258641 C.3        1 MOL1        -0.1858
      11    H5      21.972081   18.825284   24.244088 H          1 MOL1         0.0752
      12    H6      21.400322   20.282473   25.041769 H          1 MOL1         0.0752
      13    C5      21.101043   20.301799   22.902633 C.3        1 MOL1        -0.1858
      14    H7      20.346164   21.099085   22.939601 H          1 MOL1         0.0752
      15    H8      22.065641   20.810941   22.771635 H          1 MOL1         0.0752
      16    C6      20.864163   19.393233   21.669426 C.3        1 MOL1        -0.1858
      17    H9      21.234856   18.378941   21.871021 H          1 MOL1         0.0752
      18    H10     21.464613   19.777118   20.833347 H          1 MOL1         0.0752
      19    C7      19.385915   19.347082   21.218185 C.3        1 MOL1        -0.1834
      20    H11     18.743397   18.999735   22.036238 H          1 MOL1         0.0752
      21    H12     19.048152   20.360881   20.962636 H          1 MOL1         0.0752
      22    C8      19.195623   18.424600   19.997341 C.3        1 MOL1        -0.2849
      23    H13     18.143364   18.408267   19.685100 H          1 MOL1         0.0764
      24    H14     19.796566   18.770085   19.145980 H          1 MOL1         0.0764
      25    H15     19.495103   17.395064   20.233350 H          1 MOL1         0.0764
@<TRIPOS>BOND
    1     1     2    1
    2     1     3    2
    3     1     4    1
    4     4     5    1
    5     4     6    1
    6     4     7    1
    7     7     8    1
    8     7     9    1
    9     7    10    1
   10    10    11    1
   11    10    12    1
   12    10    13    1
   13    13    14    1
   14    13    15    1
   15    13    16    1
   16    16    17    1
   17    16    18    1
   18    16    19    1
   19    19    20    1
   20    19    21    1
   21    19    22    1
   22    22    23    1
   23    22    24    1
   24    22    25    1
@<TRIPOS>SUBSTRUCTURE
       1 MOL1            1 RESIDUE      1      MOL     
@<SCITEGIC>MOL_PROPERTY
VM2 Rank
SciTegic.value.IntegerValue
130

@<SCITEGIC>MOL_PROPERTY
Conf_Id
SciTegic.value.IntegerValue
569

@<SCITEGIC>MOL_PROPERTY
Probability
SciTegic.value.DoubleValue
0.00

@<SCITEGIC>MOL_PROPERTY
Sum Probability
SciTegic.value.DoubleValue
99.95

@<SCITEGIC>MOL_PROPERTY
Delta G
SciTegic.value.DoubleValue
5.350

@<SCITEGIC>MOL_PROPERTY
G
SciTegic.value.DoubleValue
-2.612

@<SCITEGIC>MOL_PROPERTY
E
SciTegic.value.DoubleValue
-27.723

@<SCITEGIC>MOL_PROPERTY
-TS
SciTegic.value.DoubleValue
25.111

@<SCITEGIC>MOL_PROPERTY
U+W
SciTegic.value.DoubleValue
-48.291

@<SCITEGIC>MOL_PROPERTY
U
SciTegic.value.DoubleValue
11.468

@<SCITEGIC>MOL_PROPERTY
W
SciTegic.value.DoubleValue
-59.758

@<SCITEGIC>MOL_PROPERTY
W(PB)
SciTegic.value.DoubleValue
-62.184

@<SCITEGIC>MOL_PROPERTY
W(SA)
SciTegic.value.DoubleValue
2.426

@<SCITEGIC>MOL_PROPERTY
Valence
SciTegic.value.DoubleValue
10.870

@<SCITEGIC>MOL_PROPERTY
Coulomb
SciTegic.value.DoubleValue
-0.266

@<SCITEGIC>MOL_PROPERTY
VdW
SciTegic.value.DoubleValue
0.864

@<SCITEGIC>MOL_PROPERTY
VdW6
SciTegic.value.DoubleValue
-10.146

@<SCITEGIC>MOL_PROPERTY
VdW12
SciTegic.value.DoubleValue
11.010

@<SCITEGIC>MOL_PROPERTY
Bond
SciTegic.value.DoubleValue
0.218

@<SCITEGIC>MOL_PROPERTY
Angle
SciTegic.value.DoubleValue
3.178

@<SCITEGIC>MOL_PROPERTY
Pdih
SciTegic.value.DoubleValue
7.473

@<SCITEGIC>MOL_PROPERTY
Idih
SciTegic.value.DoubleValue
0.001

@<SCITEGIC>MOL_PROPERTY
Tether
SciTegic.value.DoubleValue
0.000

@<TRIPOS>MOLECULE
guest-8_vm2.mol2 : vm2 ligand conformer 131
          25          24           1
SMALL
USER_CHARGES
 
@<TRIPOS>ATOM
       1    C1      20.283964   19.338780   26.960610 C.2        1 MOL1         0.6168
       2    O1      21.366818   19.889963   26.988640 O.co2      1 MOL1        -0.6703
       3    O2      19.391777   19.569573   27.753302 O.co2      1 MOL1        -0.6703
       4    C2      20.039072   18.277005   25.892144 C.3        1 MOL1        -0.1963
       5    H1      19.649223   17.387142   26.399732 H          1 MOL1         0.0750
       6    H2      21.002423   17.989152   25.456064 H          1 MOL1         0.0750
       7    C3      19.044610   18.712667   24.781580 C.3        1 MOL1        -0.1860
       8    H3      18.867819   17.868150   24.103119 H          1 MOL1         0.0752
       9    H4      18.074002   18.935529   25.245546 H          1 MOL1         0.0752
      10    C4      19.500082   19.949578   23.965067 C.3        1 MOL1        -0.1858
      11    H5      19.565240   20.816708   24.636324 H          1 MOL1         0.0752
      12    H6      18.720202   20.199836   23.234022 H          1 MOL1         0.0752
      13    C5      20.857157   19.790992   23.230776 C.3        1 MOL1        -0.1858
      14    H7      21.074697   20.719933   22.687977 H          1 MOL1         0.0752
      15    H8      21.659825   19.695867   23.974093 H          1 MOL1         0.0752
      16    C6      20.940103   18.593302   22.248038 C.3        1 MOL1        -0.1858
      17    H9      20.865657   17.655069   22.813136 H          1 MOL1         0.0752
      18    H10     21.937861   18.585270   21.788955 H          1 MOL1         0.0752
      19    C7      19.873851   18.588919   21.124941 C.3        1 MOL1        -0.1834
      20    H11     20.008406   17.683246   20.517888 H          1 MOL1         0.0752
      21    H12     18.867876   18.517453   21.559099 H          1 MOL1         0.0752
      22    C8      19.955566   19.823219   20.200903 C.3        1 MOL1        -0.2849
      23    H13     19.719395   20.745524   20.746317 H          1 MOL1         0.0764
      24    H14     20.959799   19.925146   19.769567 H          1 MOL1         0.0764
      25    H15     19.239290   19.732527   19.374201 H          1 MOL1         0.0764
@<TRIPOS>BOND
    1     1     2    1
    2     1     3    2
    3     1     4    1
    4     4     5    1
    5     4     6    1
    6     4     7    1
    7     7     8    1
    8     7     9    1
    9     7    10    1
   10    10    11    1
   11    10    12    1
   12    10    13    1
   13    13    14    1
   14    13    15    1
   15    13    16    1
   16    16    17    1
   17    16    18    1
   18    16    19    1
   19    19    20    1
   20    19    21    1
   21    19    22    1
   22    22    23    1
   23    22    24    1
   24    22    25    1
@<TRIPOS>SUBSTRUCTURE
       1 MOL1            1 RESIDUE      1      MOL     
@<SCITEGIC>MOL_PROPERTY
VM2 Rank
SciTegic.value.IntegerValue
131

@<SCITEGIC>MOL_PROPERTY
Conf_Id
SciTegic.value.IntegerValue
1100

@<SCITEGIC>MOL_PROPERTY
Probability
SciTegic.value.DoubleValue
0.00

@<SCITEGIC>MOL_PROPERTY
Sum Probability
SciTegic.value.DoubleValue
99.96

@<SCITEGIC>MOL_PROPERTY
Delta G
SciTegic.value.DoubleValue
5.351

@<SCITEGIC>MOL_PROPERTY
G
SciTegic.value.DoubleValue
-2.611

@<SCITEGIC>MOL_PROPERTY
E
SciTegic.value.DoubleValue
-28.444

@<SCITEGIC>MOL_PROPERTY
-TS
SciTegic.value.DoubleValue
25.833

@<SCITEGIC>MOL_PROPERTY
U+W
SciTegic.value.DoubleValue
-49.011

@<SCITEGIC>MOL_PROPERTY
U
SciTegic.value.DoubleValue
11.078

@<SCITEGIC>MOL_PROPERTY
W
SciTegic.value.DoubleValue
-60.090

@<SCITEGIC>MOL_PROPERTY
W(PB)
SciTegic.value.DoubleValue
-62.438

@<SCITEGIC>MOL_PROPERTY
W(SA)
SciTegic.value.DoubleValue
2.348

@<SCITEGIC>MOL_PROPERTY
Valence
SciTegic.value.DoubleValue
9.623

@<SCITEGIC>MOL_PROPERTY
Coulomb
SciTegic.value.DoubleValue
0.949

@<SCITEGIC>MOL_PROPERTY
VdW
SciTegic.value.DoubleValue
0.506

@<SCITEGIC>MOL_PROPERTY
VdW6
SciTegic.value.DoubleValue
-12.338

@<SCITEGIC>MOL_PROPERTY
VdW12
SciTegic.value.DoubleValue
12.845

@<SCITEGIC>MOL_PROPERTY
Bond
SciTegic.value.DoubleValue
0.307

@<SCITEGIC>MOL_PROPERTY
Angle
SciTegic.value.DoubleValue
3.790

@<SCITEGIC>MOL_PROPERTY
Pdih
SciTegic.value.DoubleValue
5.525

@<SCITEGIC>MOL_PROPERTY
Idih
SciTegic.value.DoubleValue
0.001

@<SCITEGIC>MOL_PROPERTY
Tether
SciTegic.value.DoubleValue
0.000

@<TRIPOS>MOLECULE
guest-8_vm2.mol2 : vm2 ligand conformer 132
          25          24           1
SMALL
USER_CHARGES
 
@<TRIPOS>ATOM
       1    C1      20.484509   19.360632   27.097746 C.2        1 MOL1         0.6168
       2    O1      21.609525   19.804401   26.977802 O.co2      1 MOL1        -0.6703
       3    O2      19.644971   19.844977   27.831054 O.co2      1 MOL1        -0.6703
       4    C2      20.109404   18.114865   26.300008 C.3        1 MOL1        -0.1963
       5    H1      19.602933   17.426192   26.986409 H          1 MOL1         0.0750
       6    H2      21.030835   17.617584   25.973624 H          1 MOL1         0.0750
       7    C3      19.193468   18.398589   25.081157 C.3        1 MOL1        -0.1860
       8    H3      18.865482   17.442239   24.651846 H          1 MOL1         0.0752
       9    H4      18.287772   18.920657   25.419887 H          1 MOL1         0.0752
      10    C4      19.900081   19.230958   23.987679 C.3        1 MOL1        -0.1858
      11    H5      20.815045   18.714755   23.673904 H          1 MOL1         0.0752
      12    H6      20.213606   20.197310   24.405929 H          1 MOL1         0.0752
      13    C5      18.976310   19.477186   22.771547 C.3        1 MOL1        -0.1858
      14    H7      18.609888   18.522793   22.369531 H          1 MOL1         0.0752
      15    H8      18.089352   20.022831   23.121520 H          1 MOL1         0.0752
      16    C6      19.649301   20.303985   21.646424 C.3        1 MOL1        -0.1858
      17    H9      20.407972   20.976473   22.069591 H          1 MOL1         0.0752
      18    H10     18.887063   20.957359   21.200396 H          1 MOL1         0.0752
      19    C7      20.265183   19.459505   20.503423 C.3        1 MOL1        -0.1834
      20    H11     19.480233   18.855198   20.028145 H          1 MOL1         0.0752
      21    H12     20.638765   20.142388   19.728009 H          1 MOL1         0.0752
      22    C8      21.420248   18.538903   20.949160 C.3        1 MOL1        -0.2849
      23    H13     21.056469   17.736325   21.602721 H          1 MOL1         0.0764
      24    H14     21.893039   18.066989   20.078237 H          1 MOL1         0.0764
      25    H15     22.190782   19.105816   21.487581 H          1 MOL1         0.0764
@<TRIPOS>BOND
    1     1     2    1
    2     1     3    2
    3     1     4    1
    4     4     5    1
    5     4     6    1
    6     4     7    1
    7     7     8    1
    8     7     9    1
    9     7    10    1
   10    10    11    1
   11    10    12    1
   12    10    13    1
   13    13    14    1
   14    13    15    1
   15    13    16    1
   16    16    17    1
   17    16    18    1
   18    16    19    1
   19    19    20    1
   20    19    21    1
   21    19    22    1
   22    22    23    1
   23    22    24    1
   24    22    25    1
@<TRIPOS>SUBSTRUCTURE
       1 MOL1            1 RESIDUE      1      MOL     
@<SCITEGIC>MOL_PROPERTY
VM2 Rank
SciTegic.value.IntegerValue
132

@<SCITEGIC>MOL_PROPERTY
Conf_Id
SciTegic.value.IntegerValue
705

@<SCITEGIC>MOL_PROPERTY
Probability
SciTegic.value.DoubleValue
0.00

@<SCITEGIC>MOL_PROPERTY
Sum Probability
SciTegic.value.DoubleValue
99.96

@<SCITEGIC>MOL_PROPERTY
Delta G
SciTegic.value.DoubleValue
5.409

@<SCITEGIC>MOL_PROPERTY
G
SciTegic.value.DoubleValue
-2.554

@<SCITEGIC>MOL_PROPERTY
E
SciTegic.value.DoubleValue
-27.600

@<SCITEGIC>MOL_PROPERTY
-TS
SciTegic.value.DoubleValue
25.047

@<SCITEGIC>MOL_PROPERTY
U+W
SciTegic.value.DoubleValue
-48.168

@<SCITEGIC>MOL_PROPERTY
U
SciTegic.value.DoubleValue
11.935

@<SCITEGIC>MOL_PROPERTY
W
SciTegic.value.DoubleValue
-60.103

@<SCITEGIC>MOL_PROPERTY
W(PB)
SciTegic.value.DoubleValue
-62.535

@<SCITEGIC>MOL_PROPERTY
W(SA)
SciTegic.value.DoubleValue
2.432

@<SCITEGIC>MOL_PROPERTY
Valence
SciTegic.value.DoubleValue
10.764

@<SCITEGIC>MOL_PROPERTY
Coulomb
SciTegic.value.DoubleValue
0.351

@<SCITEGIC>MOL_PROPERTY
VdW
SciTegic.value.DoubleValue
0.820

@<SCITEGIC>MOL_PROPERTY
VdW6
SciTegic.value.DoubleValue
-10.096

@<SCITEGIC>MOL_PROPERTY
VdW12
SciTegic.value.DoubleValue
10.916

@<SCITEGIC>MOL_PROPERTY
Bond
SciTegic.value.DoubleValue
0.214

@<SCITEGIC>MOL_PROPERTY
Angle
SciTegic.value.DoubleValue
3.144

@<SCITEGIC>MOL_PROPERTY
Pdih
SciTegic.value.DoubleValue
7.405

@<SCITEGIC>MOL_PROPERTY
Idih
SciTegic.value.DoubleValue
0.001

@<SCITEGIC>MOL_PROPERTY
Tether
SciTegic.value.DoubleValue
0.000

@<TRIPOS>MOLECULE
guest-8_vm2.mol2 : vm2 ligand conformer 133
          25          24           1
SMALL
USER_CHARGES
 
@<TRIPOS>ATOM
       1    C1      20.345870   18.747599   26.831546 C.2        1 MOL1         0.6168
       2    O1      21.383913   19.104841   27.353131 O.co2      1 MOL1        -0.6703
       3    O2      20.080555   17.587276   26.586203 O.co2      1 MOL1        -0.6703
       4    C2      19.310523   19.814652   26.486941 C.3        1 MOL1        -0.1963
       5    H1      19.214525   20.472029   27.359037 H          1 MOL1         0.0750
       6    H2      18.338117   19.326777   26.348214 H          1 MOL1         0.0750
       7    C3      19.668021   20.660422   25.237160 C.3        1 MOL1        -0.1860
       8    H3      18.945086   21.482176   25.144861 H          1 MOL1         0.0752
       9    H4      20.655241   21.121657   25.379568 H          1 MOL1         0.0752
      10    C4      19.663167   19.827252   23.935692 C.3        1 MOL1        -0.1858
      11    H5      18.678329   19.359545   23.801726 H          1 MOL1         0.0752
      12    H6      20.397957   19.016707   24.025046 H          1 MOL1         0.0752
      13    C5      19.998621   20.692896   22.700945 C.3        1 MOL1        -0.1858
      14    H7      19.336969   21.569726   22.689403 H          1 MOL1         0.0752
      15    H8      21.022207   21.080534   22.794812 H          1 MOL1         0.0752
      16    C6      19.849313   19.955603   21.346244 C.3        1 MOL1        -0.1858
      17    H9      20.056633   20.683614   20.550088 H          1 MOL1         0.0752
      18    H10     18.806268   19.643208   21.200197 H          1 MOL1         0.0752
      19    C7      20.802229   18.749076   21.155237 C.3        1 MOL1        -0.1834
      20    H11     21.110675   18.709118   20.101416 H          1 MOL1         0.0752
      21    H12     21.722589   18.894583   21.737510 H          1 MOL1         0.0752
      22    C8      20.150787   17.394383   21.512902 C.3        1 MOL1        -0.2849
      23    H13     19.266630   17.209509   20.889139 H          1 MOL1         0.0764
      24    H14     20.858148   16.572194   21.344364 H          1 MOL1         0.0764
      25    H15     19.838084   17.355582   22.562681 H          1 MOL1         0.0764
@<TRIPOS>BOND
    1     1     2    1
    2     1     3    2
    3     1     4    1
    4     4     5    1
    5     4     6    1
    6     4     7    1
    7     7     8    1
    8     7     9    1
    9     7    10    1
   10    10    11    1
   11    10    12    1
   12    10    13    1
   13    13    14    1
   14    13    15    1
   15    13    16    1
   16    16    17    1
   17    16    18    1
   18    16    19    1
   19    19    20    1
   20    19    21    1
   21    19    22    1
   22    22    23    1
   23    22    24    1
   24    22    25    1
@<TRIPOS>SUBSTRUCTURE
       1 MOL1            1 RESIDUE      1      MOL     
@<SCITEGIC>MOL_PROPERTY
VM2 Rank
SciTegic.value.IntegerValue
133

@<SCITEGIC>MOL_PROPERTY
Conf_Id
SciTegic.value.IntegerValue
225

@<SCITEGIC>MOL_PROPERTY
Probability
SciTegic.value.DoubleValue
0.00

@<SCITEGIC>MOL_PROPERTY
Sum Probability
SciTegic.value.DoubleValue
99.96

@<SCITEGIC>MOL_PROPERTY
Delta G
SciTegic.value.DoubleValue
5.481

@<SCITEGIC>MOL_PROPERTY
G
SciTegic.value.DoubleValue
-2.482

@<SCITEGIC>MOL_PROPERTY
E
SciTegic.value.DoubleValue
-27.541

@<SCITEGIC>MOL_PROPERTY
-TS
SciTegic.value.DoubleValue
25.059

@<SCITEGIC>MOL_PROPERTY
U+W
SciTegic.value.DoubleValue
-48.108

@<SCITEGIC>MOL_PROPERTY
U
SciTegic.value.DoubleValue
12.670

@<SCITEGIC>MOL_PROPERTY
W
SciTegic.value.DoubleValue
-60.778

@<SCITEGIC>MOL_PROPERTY
W(PB)
SciTegic.value.DoubleValue
-63.216

@<SCITEGIC>MOL_PROPERTY
W(SA)
SciTegic.value.DoubleValue
2.438

@<SCITEGIC>MOL_PROPERTY
Valence
SciTegic.value.DoubleValue
10.772

@<SCITEGIC>MOL_PROPERTY
Coulomb
SciTegic.value.DoubleValue
1.134

@<SCITEGIC>MOL_PROPERTY
VdW
SciTegic.value.DoubleValue
0.764

@<SCITEGIC>MOL_PROPERTY
VdW6
SciTegic.value.DoubleValue
-10.207

@<SCITEGIC>MOL_PROPERTY
VdW12
SciTegic.value.DoubleValue
10.972

@<SCITEGIC>MOL_PROPERTY
Bond
SciTegic.value.DoubleValue
0.213

@<SCITEGIC>MOL_PROPERTY
Angle
SciTegic.value.DoubleValue
3.170

@<SCITEGIC>MOL_PROPERTY
Pdih
SciTegic.value.DoubleValue
7.388

@<SCITEGIC>MOL_PROPERTY
Idih
SciTegic.value.DoubleValue
0.001

@<SCITEGIC>MOL_PROPERTY
Tether
SciTegic.value.DoubleValue
0.000

@<TRIPOS>MOLECULE
guest-8_vm2.mol2 : vm2 ligand conformer 134
          25          24           1
SMALL
USER_CHARGES
 
@<TRIPOS>ATOM
       1    C1      20.283388   19.816398   26.839332 C.2        1 MOL1         0.6168
       2    O1      21.407557   20.267151   26.739206 O.co2      1 MOL1        -0.6703
       3    O2      19.317062   20.482156   27.155756 O.co2      1 MOL1        -0.6703
       4    C2      20.075402   18.327317   26.577162 C.3        1 MOL1        -0.1963
       5    H1      19.458672   17.933831   27.393700 H          1 MOL1         0.0750
       6    H2      21.046537   17.821627   26.640365 H          1 MOL1         0.0750
       7    C3      19.396480   18.015187   25.218268 C.3        1 MOL1        -0.1860
       8    H3      19.161740   16.943068   25.174577 H          1 MOL1         0.0752
       9    H4      18.439183   18.551497   25.158409 H          1 MOL1         0.0752
      10    C4      20.283104   18.392934   24.010403 C.3        1 MOL1        -0.1858
      11    H5      21.242095   17.861944   24.081402 H          1 MOL1         0.0752
      12    H6      20.515467   19.463937   24.048412 H          1 MOL1         0.0752
      13    C5      19.599296   18.040881   22.668251 C.3        1 MOL1        -0.1858
      14    H7      19.416877   16.957706   22.650837 H          1 MOL1         0.0752
      15    H8      18.612152   18.518796   22.605421 H          1 MOL1         0.0752
      16    C6      20.450583   18.415770   21.428436 C.3        1 MOL1        -0.1858
      17    H9      20.295211   17.644566   20.661660 H          1 MOL1         0.0752
      18    H10     21.520353   18.379451   21.675683 H          1 MOL1         0.0752
      19    C7      20.098017   19.783040   20.791846 C.3        1 MOL1        -0.1834
      20    H11     20.700080   19.909265   19.881497 H          1 MOL1         0.0752
      21    H12     19.048242   19.778309   20.467559 H          1 MOL1         0.0752
      22    C8      20.342110   20.993166   21.717340 C.3        1 MOL1        -0.2849
      23    H13     19.643738   20.991442   22.563594 H          1 MOL1         0.0764
      24    H14     21.366850   20.988179   22.110969 H          1 MOL1         0.0764
      25    H15     20.194175   21.932268   21.168793 H          1 MOL1         0.0764
@<TRIPOS>BOND
    1     1     2    1
    2     1     3    2
    3     1     4    1
    4     4     5    1
    5     4     6    1
    6     4     7    1
    7     7     8    1
    8     7     9    1
    9     7    10    1
   10    10    11    1
   11    10    12    1
   12    10    13    1
   13    13    14    1
   14    13    15    1
   15    13    16    1
   16    16    17    1
   17    16    18    1
   18    16    19    1
   19    19    20    1
   20    19    21    1
   21    19    22    1
   22    22    23    1
   23    22    24    1
   24    22    25    1
@<TRIPOS>SUBSTRUCTURE
       1 MOL1            1 RESIDUE      1      MOL     
@<SCITEGIC>MOL_PROPERTY
VM2 Rank
SciTegic.value.IntegerValue
134

@<SCITEGIC>MOL_PROPERTY
Conf_Id
SciTegic.value.IntegerValue
549

@<SCITEGIC>MOL_PROPERTY
Probability
SciTegic.value.DoubleValue
0.00

@<SCITEGIC>MOL_PROPERTY
Sum Probability
SciTegic.value.DoubleValue
99.97

@<SCITEGIC>MOL_PROPERTY
Delta G
SciTegic.value.DoubleValue
5.486

@<SCITEGIC>MOL_PROPERTY
G
SciTegic.value.DoubleValue
-2.476

@<SCITEGIC>MOL_PROPERTY
E
SciTegic.value.DoubleValue
-27.537

@<SCITEGIC>MOL_PROPERTY
-TS
SciTegic.value.DoubleValue
25.061

@<SCITEGIC>MOL_PROPERTY
U+W
SciTegic.value.DoubleValue
-48.104

@<SCITEGIC>MOL_PROPERTY
U
SciTegic.value.DoubleValue
12.640

@<SCITEGIC>MOL_PROPERTY
W
SciTegic.value.DoubleValue
-60.744

@<SCITEGIC>MOL_PROPERTY
W(PB)
SciTegic.value.DoubleValue
-63.145

@<SCITEGIC>MOL_PROPERTY
W(SA)
SciTegic.value.DoubleValue
2.401

@<SCITEGIC>MOL_PROPERTY
Valence
SciTegic.value.DoubleValue
10.756

@<SCITEGIC>MOL_PROPERTY
Coulomb
SciTegic.value.DoubleValue
1.146

@<SCITEGIC>MOL_PROPERTY
VdW
SciTegic.value.DoubleValue
0.738

@<SCITEGIC>MOL_PROPERTY
VdW6
SciTegic.value.DoubleValue
-10.212

@<SCITEGIC>MOL_PROPERTY
VdW12
SciTegic.value.DoubleValue
10.950

@<SCITEGIC>MOL_PROPERTY
Bond
SciTegic.value.DoubleValue
0.214

@<SCITEGIC>MOL_PROPERTY
Angle
SciTegic.value.DoubleValue
3.129

@<SCITEGIC>MOL_PROPERTY
Pdih
SciTegic.value.DoubleValue
7.413

@<SCITEGIC>MOL_PROPERTY
Idih
SciTegic.value.DoubleValue
0.001

@<SCITEGIC>MOL_PROPERTY
Tether
SciTegic.value.DoubleValue
0.000

@<TRIPOS>MOLECULE
guest-8_vm2.mol2 : vm2 ligand conformer 135
          25          24           1
SMALL
USER_CHARGES
 
@<TRIPOS>ATOM
       1    C1      19.743953   19.554319   26.931964 C.2        1 MOL1         0.6168
       2    O1      20.548106   20.156834   27.615713 O.co2      1 MOL1        -0.6703
       3    O2      18.631104   19.971191   26.677534 O.co2      1 MOL1        -0.6703
       4    C2      20.148313   18.189388   26.381892 C.3        1 MOL1        -0.1963
       5    H1      19.240662   17.645875   26.092737 H          1 MOL1         0.0750
       6    H2      20.606855   17.627213   27.203850 H          1 MOL1         0.0750
       7    C3      21.134658   18.258039   25.187146 C.3        1 MOL1        -0.1860
       8    H3      22.027524   18.825273   25.484814 H          1 MOL1         0.0752
       9    H4      21.471998   17.241349   24.944155 H          1 MOL1         0.0752
      10    C4      20.501613   18.898248   23.931236 C.3        1 MOL1        -0.1858
      11    H5      20.185159   19.925612   24.158076 H          1 MOL1         0.0752
      12    H6      19.600517   18.334043   23.658751 H          1 MOL1         0.0752
      13    C5      21.484714   18.912923   22.739690 C.3        1 MOL1        -0.1858
      14    H7      22.430327   19.368647   23.063639 H          1 MOL1         0.0752
      15    H8      21.723359   17.880320   22.450658 H          1 MOL1         0.0752
      16    C6      20.972137   19.688900   21.500269 C.3        1 MOL1        -0.1858
      17    H9      21.772556   19.674845   20.747957 H          1 MOL1         0.0752
      18    H10     20.820524   20.746858   21.754535 H          1 MOL1         0.0752
      19    C7      19.691882   19.104385   20.852629 C.3        1 MOL1        -0.1834
      20    H11     19.762341   19.226916   19.762996 H          1 MOL1         0.0752
      21    H12     19.632566   18.022512   21.034982 H          1 MOL1         0.0752
      22    C8      18.396520   19.799773   21.327926 C.3        1 MOL1        -0.2849
      23    H13     18.253594   19.702182   22.410194 H          1 MOL1         0.0764
      24    H14     18.416566   20.870060   21.084812 H          1 MOL1         0.0764
      25    H15     17.520937   19.359761   20.833451 H          1 MOL1         0.0764
@<TRIPOS>BOND
    1     1     2    1
    2     1     3    2
    3     1     4    1
    4     4     5    1
    5     4     6    1
    6     4     7    1
    7     7     8    1
    8     7     9    1
    9     7    10    1
   10    10    11    1
   11    10    12    1
   12    10    13    1
   13    13    14    1
   14    13    15    1
   15    13    16    1
   16    16    17    1
   17    16    18    1
   18    16    19    1
   19    19    20    1
   20    19    21    1
   21    19    22    1
   22    22    23    1
   23    22    24    1
   24    22    25    1
@<TRIPOS>SUBSTRUCTURE
       1 MOL1            1 RESIDUE      1      MOL     
@<SCITEGIC>MOL_PROPERTY
VM2 Rank
SciTegic.value.IntegerValue
135

@<SCITEGIC>MOL_PROPERTY
Conf_Id
SciTegic.value.IntegerValue
192

@<SCITEGIC>MOL_PROPERTY
Probability
SciTegic.value.DoubleValue
0.00

@<SCITEGIC>MOL_PROPERTY
Sum Probability
SciTegic.value.DoubleValue
99.97

@<SCITEGIC>MOL_PROPERTY
Delta G
SciTegic.value.DoubleValue
5.488

@<SCITEGIC>MOL_PROPERTY
G
SciTegic.value.DoubleValue
-2.474

@<SCITEGIC>MOL_PROPERTY
E
SciTegic.value.DoubleValue
-27.527

@<SCITEGIC>MOL_PROPERTY
-TS
SciTegic.value.DoubleValue
25.053

@<SCITEGIC>MOL_PROPERTY
U+W
SciTegic.value.DoubleValue
-48.094

@<SCITEGIC>MOL_PROPERTY
U
SciTegic.value.DoubleValue
12.391

@<SCITEGIC>MOL_PROPERTY
W
SciTegic.value.DoubleValue
-60.485

@<SCITEGIC>MOL_PROPERTY
W(PB)
SciTegic.value.DoubleValue
-62.925

@<SCITEGIC>MOL_PROPERTY
W(SA)
SciTegic.value.DoubleValue
2.439

@<SCITEGIC>MOL_PROPERTY
Valence
SciTegic.value.DoubleValue
10.774

@<SCITEGIC>MOL_PROPERTY
Coulomb
SciTegic.value.DoubleValue
0.820

@<SCITEGIC>MOL_PROPERTY
VdW
SciTegic.value.DoubleValue
0.796

@<SCITEGIC>MOL_PROPERTY
VdW6
SciTegic.value.DoubleValue
-10.157

@<SCITEGIC>MOL_PROPERTY
VdW12
SciTegic.value.DoubleValue
10.953

@<SCITEGIC>MOL_PROPERTY
Bond
SciTegic.value.DoubleValue
0.213

@<SCITEGIC>MOL_PROPERTY
Angle
SciTegic.value.DoubleValue
3.162

@<SCITEGIC>MOL_PROPERTY
Pdih
SciTegic.value.DoubleValue
7.399

@<SCITEGIC>MOL_PROPERTY
Idih
SciTegic.value.DoubleValue
0.001

@<SCITEGIC>MOL_PROPERTY
Tether
SciTegic.value.DoubleValue
0.000

@<TRIPOS>MOLECULE
guest-8_vm2.mol2 : vm2 ligand conformer 136
          25          24           1
SMALL
USER_CHARGES
 
@<TRIPOS>ATOM
       1    C1      20.661807   19.027603   26.686495 C.2        1 MOL1         0.6168
       2    O1      21.855810   19.163231   26.504775 O.co2      1 MOL1        -0.6703
       3    O2      20.156083   18.003018   27.100750 O.co2      1 MOL1        -0.6703
       4    C2      19.751485   20.218821   26.400709 C.3        1 MOL1        -0.1963
       5    H1      20.217375   21.102647   26.852047 H          1 MOL1         0.0750
       6    H2      18.796940   20.063311   26.917848 H          1 MOL1         0.0750
       7    C3      19.508852   20.475088   24.890909 C.3        1 MOL1        -0.1860
       8    H3      18.974061   21.427148   24.773415 H          1 MOL1         0.0752
       9    H4      20.476216   20.598474   24.388998 H          1 MOL1         0.0752
      10    C4      18.685524   19.346647   24.223078 C.3        1 MOL1        -0.1858
      11    H5      17.710581   19.290719   24.726249 H          1 MOL1         0.0752
      12    H6      19.166014   18.371395   24.381959 H          1 MOL1         0.0752
      13    C5      18.447615   19.577496   22.709252 C.3        1 MOL1        -0.1858
      14    H7      17.438256   19.220588   22.463046 H          1 MOL1         0.0752
      15    H8      18.447475   20.652402   22.482570 H          1 MOL1         0.0752
      16    C6      19.443140   18.838335   21.779886 C.3        1 MOL1        -0.1858
      17    H9      19.139692   19.015523   20.739058 H          1 MOL1         0.0752
      18    H10     19.359863   17.755409   21.944764 H          1 MOL1         0.0752
      19    C7      20.915730   19.270055   21.953520 C.3        1 MOL1        -0.1834
      20    H11     20.994317   20.363100   21.875976 H          1 MOL1         0.0752
      21    H12     21.271475   18.988312   22.953744 H          1 MOL1         0.0752
      22    C8      21.826954   18.613706   20.896627 C.3        1 MOL1        -0.2849
      23    H13     21.523517   18.902074   19.881719 H          1 MOL1         0.0764
      24    H14     22.870094   18.924310   21.039419 H          1 MOL1         0.0764
      25    H15     21.786297   17.518987   20.969138 H          1 MOL1         0.0764
@<TRIPOS>BOND
    1     1     2    1
    2     1     3    2
    3     1     4    1
    4     4     5    1
    5     4     6    1
    6     4     7    1
    7     7     8    1
    8     7     9    1
    9     7    10    1
   10    10    11    1
   11    10    12    1
   12    10    13    1
   13    13    14    1
   14    13    15    1
   15    13    16    1
   16    16    17    1
   17    16    18    1
   18    16    19    1
   19    19    20    1
   20    19    21    1
   21    19    22    1
   22    22    23    1
   23    22    24    1
   24    22    25    1
@<TRIPOS>SUBSTRUCTURE
       1 MOL1            1 RESIDUE      1      MOL     
@<SCITEGIC>MOL_PROPERTY
VM2 Rank
SciTegic.value.IntegerValue
136

@<SCITEGIC>MOL_PROPERTY
Conf_Id
SciTegic.value.IntegerValue
455

@<SCITEGIC>MOL_PROPERTY
Probability
SciTegic.value.DoubleValue
0.00

@<SCITEGIC>MOL_PROPERTY
Sum Probability
SciTegic.value.DoubleValue
99.97

@<SCITEGIC>MOL_PROPERTY
Delta G
SciTegic.value.DoubleValue
5.492

@<SCITEGIC>MOL_PROPERTY
G
SciTegic.value.DoubleValue
-2.471

@<SCITEGIC>MOL_PROPERTY
E
SciTegic.value.DoubleValue
-27.597

@<SCITEGIC>MOL_PROPERTY
-TS
SciTegic.value.DoubleValue
25.126

@<SCITEGIC>MOL_PROPERTY
U+W
SciTegic.value.DoubleValue
-48.165

@<SCITEGIC>MOL_PROPERTY
U
SciTegic.value.DoubleValue
12.689

@<SCITEGIC>MOL_PROPERTY
W
SciTegic.value.DoubleValue
-60.854

@<SCITEGIC>MOL_PROPERTY
W(PB)
SciTegic.value.DoubleValue
-63.277

@<SCITEGIC>MOL_PROPERTY
W(SA)
SciTegic.value.DoubleValue
2.424

@<SCITEGIC>MOL_PROPERTY
Valence
SciTegic.value.DoubleValue
10.791

@<SCITEGIC>MOL_PROPERTY
Coulomb
SciTegic.value.DoubleValue
1.261

@<SCITEGIC>MOL_PROPERTY
VdW
SciTegic.value.DoubleValue
0.637

@<SCITEGIC>MOL_PROPERTY
VdW6
SciTegic.value.DoubleValue
-10.463

@<SCITEGIC>MOL_PROPERTY
VdW12
SciTegic.value.DoubleValue
11.099

@<SCITEGIC>MOL_PROPERTY
Bond
SciTegic.value.DoubleValue
0.216

@<SCITEGIC>MOL_PROPERTY
Angle
SciTegic.value.DoubleValue
3.125

@<SCITEGIC>MOL_PROPERTY
Pdih
SciTegic.value.DoubleValue
7.449

@<SCITEGIC>MOL_PROPERTY
Idih
SciTegic.value.DoubleValue
0.001

@<SCITEGIC>MOL_PROPERTY
Tether
SciTegic.value.DoubleValue
0.000

@<TRIPOS>MOLECULE
guest-8_vm2.mol2 : vm2 ligand conformer 137
          25          24           1
SMALL
USER_CHARGES
 
@<TRIPOS>ATOM
       1    C1      19.773936   19.696210   26.828469 C.2        1 MOL1         0.6168
       2    O1      20.572771   20.450060   27.348831 O.co2      1 MOL1        -0.6703
       3    O2      18.624453   20.001662   26.578824 O.co2      1 MOL1        -0.6703
       4    C2      20.235569   18.280988   26.491812 C.3        1 MOL1        -0.1963
       5    H1      19.350723   17.647896   26.353679 H          1 MOL1         0.0750
       6    H2      20.769853   17.893492   27.367198 H          1 MOL1         0.0750
       7    C3      21.153808   18.196660   25.244894 C.3        1 MOL1        -0.1860
       8    H3      22.022066   18.855198   25.386585 H          1 MOL1         0.0752
       9    H4      21.543457   17.173366   25.158418 H          1 MOL1         0.0752
      10    C4      20.418197   18.575124   23.939653 C.3        1 MOL1        -0.1858
      11    H5      20.044143   19.603714   24.023149 H          1 MOL1         0.0752
      12    H6      19.545214   17.921858   23.806430 H          1 MOL1         0.0752
      13    C5      21.343641   18.461877   22.707906 C.3        1 MOL1        -0.1858
      14    H7      22.164065   19.186526   22.800589 H          1 MOL1         0.0752
      15    H8      21.810167   17.467357   22.702269 H          1 MOL1         0.0752
      16    C6      20.625569   18.667712   21.350296 C.3        1 MOL1        -0.1858
      17    H9      19.862703   17.890515   21.205852 H          1 MOL1         0.0752
      18    H10     21.368285   18.507401   20.556875 H          1 MOL1         0.0752
      19    C7      20.004077   20.072802   21.151016 C.3        1 MOL1        -0.1834
      20    H11     20.560876   20.821467   21.731318 H          1 MOL1         0.0752
      21    H12     20.115644   20.359288   20.096146 H          1 MOL1         0.0752
      22    C8      18.500978   20.130904   21.504299 C.3        1 MOL1        -0.2849
      23    H13     18.317798   19.877502   22.554803 H          1 MOL1         0.0764
      24    H14     18.104628   21.139485   21.329860 H          1 MOL1         0.0764
      25    H15     17.926390   19.432373   20.882290 H          1 MOL1         0.0764
@<TRIPOS>BOND
    1     1     2    1
    2     1     3    2
    3     1     4    1
    4     4     5    1
    5     4     6    1
    6     4     7    1
    7     7     8    1
    8     7     9    1
    9     7    10    1
   10    10    11    1
   11    10    12    1
   12    10    13    1
   13    13    14    1
   14    13    15    1
   15    13    16    1
   16    16    17    1
   17    16    18    1
   18    16    19    1
   19    19    20    1
   20    19    21    1
   21    19    22    1
   22    22    23    1
   23    22    24    1
   24    22    25    1
@<TRIPOS>SUBSTRUCTURE
       1 MOL1            1 RESIDUE      1      MOL     
@<SCITEGIC>MOL_PROPERTY
VM2 Rank
SciTegic.value.IntegerValue
137

@<SCITEGIC>MOL_PROPERTY
Conf_Id
SciTegic.value.IntegerValue
989

@<SCITEGIC>MOL_PROPERTY
Probability
SciTegic.value.DoubleValue
0.00

@<SCITEGIC>MOL_PROPERTY
Sum Probability
SciTegic.value.DoubleValue
99.97

@<SCITEGIC>MOL_PROPERTY
Delta G
SciTegic.value.DoubleValue
5.494

@<SCITEGIC>MOL_PROPERTY
G
SciTegic.value.DoubleValue
-2.468

@<SCITEGIC>MOL_PROPERTY
E
SciTegic.value.DoubleValue
-27.527

@<SCITEGIC>MOL_PROPERTY
-TS
SciTegic.value.DoubleValue
25.058

@<SCITEGIC>MOL_PROPERTY
U+W
SciTegic.value.DoubleValue
-48.094

@<SCITEGIC>MOL_PROPERTY
U
SciTegic.value.DoubleValue
12.670

@<SCITEGIC>MOL_PROPERTY
W
SciTegic.value.DoubleValue
-60.764

@<SCITEGIC>MOL_PROPERTY
W(PB)
SciTegic.value.DoubleValue
-63.199

@<SCITEGIC>MOL_PROPERTY
W(SA)
SciTegic.value.DoubleValue
2.435

@<SCITEGIC>MOL_PROPERTY
Valence
SciTegic.value.DoubleValue
10.772

@<SCITEGIC>MOL_PROPERTY
Coulomb
SciTegic.value.DoubleValue
1.133

@<SCITEGIC>MOL_PROPERTY
VdW
SciTegic.value.DoubleValue
0.764

@<SCITEGIC>MOL_PROPERTY
VdW6
SciTegic.value.DoubleValue
-10.207

@<SCITEGIC>MOL_PROPERTY
VdW12
SciTegic.value.DoubleValue
10.971

@<SCITEGIC>MOL_PROPERTY
Bond
SciTegic.value.DoubleValue
0.213

@<SCITEGIC>MOL_PROPERTY
Angle
SciTegic.value.DoubleValue
3.170

@<SCITEGIC>MOL_PROPERTY
Pdih
SciTegic.value.DoubleValue
7.388

@<SCITEGIC>MOL_PROPERTY
Idih
SciTegic.value.DoubleValue
0.001

@<SCITEGIC>MOL_PROPERTY
Tether
SciTegic.value.DoubleValue
0.000

@<TRIPOS>MOLECULE
guest-8_vm2.mol2 : vm2 ligand conformer 138
          25          24           1
SMALL
USER_CHARGES
 
@<TRIPOS>ATOM
       1    C1      19.954749   19.795308   26.843145 C.2        1 MOL1         0.6168
       2    O1      20.835214   20.579374   27.138383 O.co2      1 MOL1        -0.6703
       3    O2      18.780258   20.098790   26.769459 O.co2      1 MOL1        -0.6703
       4    C2      20.344992   18.344569   26.574036 C.3        1 MOL1        -0.1963
       5    H1      19.448041   17.719171   26.658747 H          1 MOL1         0.0750
       6    H2      21.025473   18.034183   27.375615 H          1 MOL1         0.0750
       7    C3      21.026827   18.119688   25.199452 C.3        1 MOL1        -0.1860
       8    H3      21.906186   18.773746   25.118428 H          1 MOL1         0.0752
       9    H4      21.395468   17.086252   25.148798 H          1 MOL1         0.0752
      10    C4      20.071733   18.379367   24.012818 C.3        1 MOL1        -0.1858
      11    H5      19.705398   19.411966   24.057773 H          1 MOL1         0.0752
      12    H6      19.190313   17.730323   24.104993 H          1 MOL1         0.0752
      13    C5      20.763933   18.115634   22.654799 C.3        1 MOL1        -0.1858
      14    H7      21.680208   18.715684   22.570042 H          1 MOL1         0.0752
      15    H8      21.082828   17.064628   22.631593 H          1 MOL1         0.0752
      16    C6      19.843497   18.376845   21.435397 C.3        1 MOL1        -0.1858
      17    H9      18.793101   18.204417   21.707049 H          1 MOL1         0.0752
      18    H10     20.078562   17.630730   20.664100 H          1 MOL1         0.0752
      19    C7      20.003690   19.777048   20.792942 C.3        1 MOL1        -0.1834
      20    H11     21.037757   19.906113   20.444715 H          1 MOL1         0.0752
      21    H12     19.369760   19.823932   19.896794 H          1 MOL1         0.0752
      22    C8      19.628107   20.947376   21.725570 C.3        1 MOL1        -0.2849
      23    H13     19.642123   21.896880   21.175162 H          1 MOL1         0.0764
      24    H14     18.621708   20.811958   22.142564 H          1 MOL1         0.0764
      25    H15     20.340169   21.036221   22.555599 H          1 MOL1         0.0764
@<TRIPOS>BOND
    1     1     2    1
    2     1     3    2
    3     1     4    1
    4     4     5    1
    5     4     6    1
    6     4     7    1
    7     7     8    1
    8     7     9    1
    9     7    10    1
   10    10    11    1
   11    10    12    1
   12    10    13    1
   13    13    14    1
   14    13    15    1
   15    13    16    1
   16    16    17    1
   17    16    18    1
   18    16    19    1
   19    19    20    1
   20    19    21    1
   21    19    22    1
   22    22    23    1
   23    22    24    1
   24    22    25    1
@<TRIPOS>SUBSTRUCTURE
       1 MOL1            1 RESIDUE      1      MOL     
@<SCITEGIC>MOL_PROPERTY
VM2 Rank
SciTegic.value.IntegerValue
138

@<SCITEGIC>MOL_PROPERTY
Conf_Id
SciTegic.value.IntegerValue
1076

@<SCITEGIC>MOL_PROPERTY
Probability
SciTegic.value.DoubleValue
0.00

@<SCITEGIC>MOL_PROPERTY
Sum Probability
SciTegic.value.DoubleValue
99.98

@<SCITEGIC>MOL_PROPERTY
Delta G
SciTegic.value.DoubleValue
5.502

@<SCITEGIC>MOL_PROPERTY
G
SciTegic.value.DoubleValue
-2.461

@<SCITEGIC>MOL_PROPERTY
E
SciTegic.value.DoubleValue
-27.521

@<SCITEGIC>MOL_PROPERTY
-TS
SciTegic.value.DoubleValue
25.060

@<SCITEGIC>MOL_PROPERTY
U+W
SciTegic.value.DoubleValue
-48.089

@<SCITEGIC>MOL_PROPERTY
U
SciTegic.value.DoubleValue
12.640

@<SCITEGIC>MOL_PROPERTY
W
SciTegic.value.DoubleValue
-60.728

@<SCITEGIC>MOL_PROPERTY
W(PB)
SciTegic.value.DoubleValue
-63.138

@<SCITEGIC>MOL_PROPERTY
W(SA)
SciTegic.value.DoubleValue
2.409

@<SCITEGIC>MOL_PROPERTY
Valence
SciTegic.value.DoubleValue
10.756

@<SCITEGIC>MOL_PROPERTY
Coulomb
SciTegic.value.DoubleValue
1.145

@<SCITEGIC>MOL_PROPERTY
VdW
SciTegic.value.DoubleValue
0.738

@<SCITEGIC>MOL_PROPERTY
VdW6
SciTegic.value.DoubleValue
-10.212

@<SCITEGIC>MOL_PROPERTY
VdW12
SciTegic.value.DoubleValue
10.950

@<SCITEGIC>MOL_PROPERTY
Bond
SciTegic.value.DoubleValue
0.214

@<SCITEGIC>MOL_PROPERTY
Angle
SciTegic.value.DoubleValue
3.129

@<SCITEGIC>MOL_PROPERTY
Pdih
SciTegic.value.DoubleValue
7.413

@<SCITEGIC>MOL_PROPERTY
Idih
SciTegic.value.DoubleValue
0.001

@<SCITEGIC>MOL_PROPERTY
Tether
SciTegic.value.DoubleValue
0.000

@<TRIPOS>MOLECULE
guest-8_vm2.mol2 : vm2 ligand conformer 139
          25          24           1
SMALL
USER_CHARGES
 
@<TRIPOS>ATOM
       1    C1      20.223140   19.756201   27.108777 C.2        1 MOL1         0.6168
       2    O1      21.311162   19.894139   27.632213 O.co2      1 MOL1        -0.6703
       3    O2      19.177406   19.729996   27.727321 O.co2      1 MOL1        -0.6703
       4    C2      20.169190   19.583705   25.595066 C.3        1 MOL1        -0.1963
       5    H1      21.004388   20.143460   25.157476 H          1 MOL1         0.0750
       6    H2      19.239890   20.045131   25.244098 H          1 MOL1         0.0750
       7    C3      20.229843   18.098668   25.157908 C.3        1 MOL1        -0.1860
       8    H3      21.075097   17.617059   25.668838 H          1 MOL1         0.0752
       9    H4      19.325573   17.581462   25.507061 H          1 MOL1         0.0752
      10    C4      20.397336   17.885009   23.632297 C.3        1 MOL1        -0.1858
      11    H5      20.479146   16.802897   23.462078 H          1 MOL1         0.0752
      12    H6      21.353722   18.304742   23.299104 H          1 MOL1         0.0752
      13    C5      19.223327   18.413649   22.764833 C.3        1 MOL1        -0.1858
      14    H7      19.088713   17.739518   21.909227 H          1 MOL1         0.0752
      15    H8      18.288946   18.339814   23.337436 H          1 MOL1         0.0752
      16    C6      19.380833   19.863593   22.229154 C.3        1 MOL1        -0.1858
      17    H9      19.454540   20.566674   23.066169 H          1 MOL1         0.0752
      18    H10     18.459217   20.134397   21.696460 H          1 MOL1         0.0752
      19    C7      20.581328   20.101790   21.278365 C.3        1 MOL1        -0.1834
      20    H11     20.568875   21.153710   20.961609 H          1 MOL1         0.0752
      21    H12     21.528545   19.961999   21.814575 H          1 MOL1         0.0752
      22    C8      20.559436   19.207251   20.020066 C.3        1 MOL1        -0.2849
      23    H13     19.607076   19.306655   19.483309 H          1 MOL1         0.0764
      24    H14     21.366828   19.491353   19.332919 H          1 MOL1         0.0764
      25    H15     20.701586   18.150725   20.279904 H          1 MOL1         0.0764
@<TRIPOS>BOND
    1     1     2    1
    2     1     3    2
    3     1     4    1
    4     4     5    1
    5     4     6    1
    6     4     7    1
    7     7     8    1
    8     7     9    1
    9     7    10    1
   10    10    11    1
   11    10    12    1
   12    10    13    1
   13    13    14    1
   14    13    15    1
   15    13    16    1
   16    16    17    1
   17    16    18    1
   18    16    19    1
   19    19    20    1
   20    19    21    1
   21    19    22    1
   22    22    23    1
   23    22    24    1
   24    22    25    1
@<TRIPOS>SUBSTRUCTURE
       1 MOL1            1 RESIDUE      1      MOL     
@<SCITEGIC>MOL_PROPERTY
VM2 Rank
SciTegic.value.IntegerValue
139

@<SCITEGIC>MOL_PROPERTY
Conf_Id
SciTegic.value.IntegerValue
541

@<SCITEGIC>MOL_PROPERTY
Probability
SciTegic.value.DoubleValue
0.00

@<SCITEGIC>MOL_PROPERTY
Sum Probability
SciTegic.value.DoubleValue
99.98

@<SCITEGIC>MOL_PROPERTY
Delta G
SciTegic.value.DoubleValue
5.606

@<SCITEGIC>MOL_PROPERTY
G
SciTegic.value.DoubleValue
-2.356

@<SCITEGIC>MOL_PROPERTY
E
SciTegic.value.DoubleValue
-27.058

@<SCITEGIC>MOL_PROPERTY
-TS
SciTegic.value.DoubleValue
24.702

@<SCITEGIC>MOL_PROPERTY
U+W
SciTegic.value.DoubleValue
-47.626

@<SCITEGIC>MOL_PROPERTY
U
SciTegic.value.DoubleValue
11.838

@<SCITEGIC>MOL_PROPERTY
W
SciTegic.value.DoubleValue
-59.464

@<SCITEGIC>MOL_PROPERTY
W(PB)
SciTegic.value.DoubleValue
-61.851

@<SCITEGIC>MOL_PROPERTY
W(SA)
SciTegic.value.DoubleValue
2.386

@<SCITEGIC>MOL_PROPERTY
Valence
SciTegic.value.DoubleValue
11.761

@<SCITEGIC>MOL_PROPERTY
Coulomb
SciTegic.value.DoubleValue
-1.045

@<SCITEGIC>MOL_PROPERTY
VdW
SciTegic.value.DoubleValue
1.123

@<SCITEGIC>MOL_PROPERTY
VdW6
SciTegic.value.DoubleValue
-10.752

@<SCITEGIC>MOL_PROPERTY
VdW12
SciTegic.value.DoubleValue
11.874

@<SCITEGIC>MOL_PROPERTY
Bond
SciTegic.value.DoubleValue
0.310

@<SCITEGIC>MOL_PROPERTY
Angle
SciTegic.value.DoubleValue
4.049

@<SCITEGIC>MOL_PROPERTY
Pdih
SciTegic.value.DoubleValue
7.401

@<SCITEGIC>MOL_PROPERTY
Idih
SciTegic.value.DoubleValue
0.001

@<SCITEGIC>MOL_PROPERTY
Tether
SciTegic.value.DoubleValue
0.000

@<TRIPOS>MOLECULE
guest-8_vm2.mol2 : vm2 ligand conformer 140
          25          24           1
SMALL
USER_CHARGES
 
@<TRIPOS>ATOM
       1    C1      20.351040   19.549395   27.127015 C.2        1 MOL1         0.6168
       2    O1      21.295263   20.313912   27.154072 O.co2      1 MOL1        -0.6703
       3    O2      19.552130   19.434339   28.035527 O.co2      1 MOL1        -0.6703
       4    C2      20.145102   18.702642   25.876210 C.3        1 MOL1        -0.1963
       5    H1      19.686508   17.753626   26.178301 H          1 MOL1         0.0750
       6    H2      21.134003   18.471550   25.464120 H          1 MOL1         0.0750
       7    C3      19.264717   19.408225   24.812510 C.3        1 MOL1        -0.1860
       8    H3      18.321404   19.715834   25.284459 H          1 MOL1         0.0752
       9    H4      19.753120   20.336203   24.488377 H          1 MOL1         0.0752
      10    C4      18.931817   18.518997   23.586964 C.3        1 MOL1        -0.1858
      11    H5      18.301869   19.094384   22.899925 H          1 MOL1         0.0752
      12    H6      18.307171   17.681497   23.925952 H          1 MOL1         0.0752
      13    C5      20.153055   17.933980   22.825087 C.3        1 MOL1        -0.1858
      14    H7      20.694922   17.264175   23.505267 H          1 MOL1         0.0752
      15    H8      19.795134   17.288707   22.011570 H          1 MOL1         0.0752
      16    C6      21.158693   18.968681   22.250924 C.3        1 MOL1        -0.1858
      17    H9      22.148298   18.492431   22.229989 H          1 MOL1         0.0752
      18    H10     21.266943   19.828856   22.922019 H          1 MOL1         0.0752
      19    C7      20.857080   19.453693   20.810985 C.3        1 MOL1        -0.1834
      20    H11     21.689035   20.091504   20.482041 H          1 MOL1         0.0752
      21    H12     20.840877   18.594664   20.126226 H          1 MOL1         0.0752
      22    C8      19.544103   20.250136   20.666708 C.3        1 MOL1        -0.2849
      23    H13     19.491278   20.725906   19.678998 H          1 MOL1         0.0764
      24    H14     18.671665   19.592688   20.759583 H          1 MOL1         0.0764
      25    H15     19.473780   21.038240   21.427665 H          1 MOL1         0.0764
@<TRIPOS>BOND
    1     1     2    1
    2     1     3    2
    3     1     4    1
    4     4     5    1
    5     4     6    1
    6     4     7    1
    7     7     8    1
    8     7     9    1
    9     7    10    1
   10    10    11    1
   11    10    12    1
   12    10    13    1
   13    13    14    1
   14    13    15    1
   15    13    16    1
   16    16    17    1
   17    16    18    1
   18    16    19    1
   19    19    20    1
   20    19    21    1
   21    19    22    1
   22    22    23    1
   23    22    24    1
   24    22    25    1
@<TRIPOS>SUBSTRUCTURE
       1 MOL1            1 RESIDUE      1      MOL     
@<SCITEGIC>MOL_PROPERTY
VM2 Rank
SciTegic.value.IntegerValue
140

@<SCITEGIC>MOL_PROPERTY
Conf_Id
SciTegic.value.IntegerValue
174

@<SCITEGIC>MOL_PROPERTY
Probability
SciTegic.value.DoubleValue
0.00

@<SCITEGIC>MOL_PROPERTY
Sum Probability
SciTegic.value.DoubleValue
99.98

@<SCITEGIC>MOL_PROPERTY
Delta G
SciTegic.value.DoubleValue
5.685

@<SCITEGIC>MOL_PROPERTY
G
SciTegic.value.DoubleValue
-2.278

@<SCITEGIC>MOL_PROPERTY
E
SciTegic.value.DoubleValue
-26.875

@<SCITEGIC>MOL_PROPERTY
-TS
SciTegic.value.DoubleValue
24.598

@<SCITEGIC>MOL_PROPERTY
U+W
SciTegic.value.DoubleValue
-47.443

@<SCITEGIC>MOL_PROPERTY
U
SciTegic.value.DoubleValue
12.177

@<SCITEGIC>MOL_PROPERTY
W
SciTegic.value.DoubleValue
-59.620

@<SCITEGIC>MOL_PROPERTY
W(PB)
SciTegic.value.DoubleValue
-62.022

@<SCITEGIC>MOL_PROPERTY
W(SA)
SciTegic.value.DoubleValue
2.402

@<SCITEGIC>MOL_PROPERTY
Valence
SciTegic.value.DoubleValue
11.760

@<SCITEGIC>MOL_PROPERTY
Coulomb
SciTegic.value.DoubleValue
-0.594

@<SCITEGIC>MOL_PROPERTY
VdW
SciTegic.value.DoubleValue
1.012

@<SCITEGIC>MOL_PROPERTY
VdW6
SciTegic.value.DoubleValue
-10.894

@<SCITEGIC>MOL_PROPERTY
VdW12
SciTegic.value.DoubleValue
11.906

@<SCITEGIC>MOL_PROPERTY
Bond
SciTegic.value.DoubleValue
0.319

@<SCITEGIC>MOL_PROPERTY
Angle
SciTegic.value.DoubleValue
4.240

@<SCITEGIC>MOL_PROPERTY
Pdih
SciTegic.value.DoubleValue
7.199

@<SCITEGIC>MOL_PROPERTY
Idih
SciTegic.value.DoubleValue
0.001

@<SCITEGIC>MOL_PROPERTY
Tether
SciTegic.value.DoubleValue
0.000

@<TRIPOS>MOLECULE
guest-8_vm2.mol2 : vm2 ligand conformer 141
          25          24           1
SMALL
USER_CHARGES
 
@<TRIPOS>ATOM
       1    C1      20.136206   19.689983   26.773152 C.2        1 MOL1         0.6168
       2    O1      21.182032   20.291141   26.922044 O.co2      1 MOL1        -0.6703
       3    O2      19.043026   20.195929   26.936277 O.co2      1 MOL1        -0.6703
       4    C2      20.203177   18.203197   26.429283 C.3        1 MOL1        -0.1963
       5    H1      19.766678   17.670781   27.282198 H          1 MOL1         0.0750
       6    H2      21.254679   17.896691   26.373167 H          1 MOL1         0.0750
       7    C3      19.449988   17.786507   25.134437 C.3        1 MOL1        -0.1860
       8    H3      19.236145   16.711138   25.199560 H          1 MOL1         0.0752
       9    H4      18.472214   18.286171   25.091345 H          1 MOL1         0.0752
      10    C4      20.229789   18.031227   23.818432 C.3        1 MOL1        -0.1858
      11    H5      19.672675   17.544958   23.007817 H          1 MOL1         0.0752
      12    H6      21.206183   17.530618   23.867870 H          1 MOL1         0.0752
      13    C5      20.427893   19.526714   23.471867 C.3        1 MOL1        -0.1858
      14    H7      19.458656   20.042121   23.474728 H          1 MOL1         0.0752
      15    H8      21.028798   20.003247   24.255649 H          1 MOL1         0.0752
      16    C6      21.151390   19.760646   22.120992 C.3        1 MOL1        -0.1858
      17    H9      22.150354   19.306405   22.169597 H          1 MOL1         0.0752
      18    H10     21.315926   20.839477   21.995702 H          1 MOL1         0.0752
      19    C7      20.418438   19.222089   20.866938 C.3        1 MOL1        -0.1834
      20    H11     21.026900   19.452884   19.981764 H          1 MOL1         0.0752
      21    H12     20.349055   18.127252   20.907562 H          1 MOL1         0.0752
      22    C8      19.011060   19.826566   20.672577 C.3        1 MOL1        -0.2849
      23    H13     18.574826   19.487800   19.724061 H          1 MOL1         0.0764
      24    H14     18.331896   19.521394   21.478645 H          1 MOL1         0.0764
      25    H15     19.053625   20.923288   20.653594 H          1 MOL1         0.0764
@<TRIPOS>BOND
    1     1     2    1
    2     1     3    2
    3     1     4    1
    4     4     5    1
    5     4     6    1
    6     4     7    1
    7     7     8    1
    8     7     9    1
    9     7    10    1
   10    10    11    1
   11    10    12    1
   12    10    13    1
   13    13    14    1
   14    13    15    1
   15    13    16    1
   16    16    17    1
   17    16    18    1
   18    16    19    1
   19    19    20    1
   20    19    21    1
   21    19    22    1
   22    22    23    1
   23    22    24    1
   24    22    25    1
@<TRIPOS>SUBSTRUCTURE
       1 MOL1            1 RESIDUE      1      MOL     
@<SCITEGIC>MOL_PROPERTY
VM2 Rank
SciTegic.value.IntegerValue
141

@<SCITEGIC>MOL_PROPERTY
Conf_Id
SciTegic.value.IntegerValue
572

@<SCITEGIC>MOL_PROPERTY
Probability
SciTegic.value.DoubleValue
0.00

@<SCITEGIC>MOL_PROPERTY
Sum Probability
SciTegic.value.DoubleValue
99.98

@<SCITEGIC>MOL_PROPERTY
Delta G
SciTegic.value.DoubleValue
5.725

@<SCITEGIC>MOL_PROPERTY
G
SciTegic.value.DoubleValue
-2.238

@<SCITEGIC>MOL_PROPERTY
E
SciTegic.value.DoubleValue
-27.551

@<SCITEGIC>MOL_PROPERTY
-TS
SciTegic.value.DoubleValue
25.313

@<SCITEGIC>MOL_PROPERTY
U+W
SciTegic.value.DoubleValue
-48.119

@<SCITEGIC>MOL_PROPERTY
U
SciTegic.value.DoubleValue
12.472

@<SCITEGIC>MOL_PROPERTY
W
SciTegic.value.DoubleValue
-60.590

@<SCITEGIC>MOL_PROPERTY
W(PB)
SciTegic.value.DoubleValue
-62.977

@<SCITEGIC>MOL_PROPERTY
W(SA)
SciTegic.value.DoubleValue
2.387

@<SCITEGIC>MOL_PROPERTY
Valence
SciTegic.value.DoubleValue
10.550

@<SCITEGIC>MOL_PROPERTY
Coulomb
SciTegic.value.DoubleValue
1.040

@<SCITEGIC>MOL_PROPERTY
VdW
SciTegic.value.DoubleValue
0.882

@<SCITEGIC>MOL_PROPERTY
VdW6
SciTegic.value.DoubleValue
-11.389

@<SCITEGIC>MOL_PROPERTY
VdW12
SciTegic.value.DoubleValue
12.271

@<SCITEGIC>MOL_PROPERTY
Bond
SciTegic.value.DoubleValue
0.286

@<SCITEGIC>MOL_PROPERTY
Angle
SciTegic.value.DoubleValue
3.973

@<SCITEGIC>MOL_PROPERTY
Pdih
SciTegic.value.DoubleValue
6.285

@<SCITEGIC>MOL_PROPERTY
Idih
SciTegic.value.DoubleValue
0.006

@<SCITEGIC>MOL_PROPERTY
Tether
SciTegic.value.DoubleValue
0.000

@<TRIPOS>MOLECULE
guest-8_vm2.mol2 : vm2 ligand conformer 142
          25          24           1
SMALL
USER_CHARGES
 
@<TRIPOS>ATOM
       1    C1      19.666708   19.049436   26.546854 C.2        1 MOL1         0.6168
       2    O1      20.414713   18.319963   27.168276 O.co2      1 MOL1        -0.6703
       3    O2      18.518416   18.758133   26.275239 O.co2      1 MOL1        -0.6703
       4    C2      20.172175   20.433898   26.145627 C.3        1 MOL1        -0.1963
       5    H1      20.373311   20.971532   27.079376 H          1 MOL1         0.0750
       6    H2      19.363442   20.974910   25.639583 H          1 MOL1         0.0750
       7    C3      21.456217   20.443576   25.269129 C.3        1 MOL1        -0.1860
       8    H3      21.911046   21.440432   25.344928 H          1 MOL1         0.0752
       9    H4      22.195754   19.741962   25.679392 H          1 MOL1         0.0752
      10    C4      21.216935   20.146924   23.767944 C.3        1 MOL1        -0.1858
      11    H5      22.153272   20.336903   23.225940 H          1 MOL1         0.0752
      12    H6      20.478857   20.856477   23.371298 H          1 MOL1         0.0752
      13    C5      20.761089   18.696652   23.478757 C.3        1 MOL1        -0.1858
      14    H7      21.419554   17.999543   24.014586 H          1 MOL1         0.0752
      15    H8      19.752664   18.531889   23.876890 H          1 MOL1         0.0752
      16    C6      20.784011   18.335345   21.972060 C.3        1 MOL1        -0.1858
      17    H9      20.488347   17.283666   21.857391 H          1 MOL1         0.0752
      18    H10     21.817538   18.401193   21.605889 H          1 MOL1         0.0752
      19    C7      19.878766   19.211459   21.070954 C.3        1 MOL1        -0.1834
      20    H11     20.216628   20.255921   21.096731 H          1 MOL1         0.0752
      21    H12     19.995312   18.880061   20.030008 H          1 MOL1         0.0752
      22    C8      18.383969   19.138614   21.451161 C.3        1 MOL1        -0.2849
      23    H13     18.204636   19.564029   22.446870 H          1 MOL1         0.0764
      24    H14     17.776358   19.704149   20.733068 H          1 MOL1         0.0764
      25    H15     18.029036   18.099890   21.451765 H          1 MOL1         0.0764
@<TRIPOS>BOND
    1     1     2    1
    2     1     3    2
    3     1     4    1
    4     4     5    1
    5     4     6    1
    6     4     7    1
    7     7     8    1
    8     7     9    1
    9     7    10    1
   10    10    11    1
   11    10    12    1
   12    10    13    1
   13    13    14    1
   14    13    15    1
   15    13    16    1
   16    16    17    1
   17    16    18    1
   18    16    19    1
   19    19    20    1
   20    19    21    1
   21    19    22    1
   22    22    23    1
   23    22    24    1
   24    22    25    1
@<TRIPOS>SUBSTRUCTURE
       1 MOL1            1 RESIDUE      1      MOL     
@<SCITEGIC>MOL_PROPERTY
VM2 Rank
SciTegic.value.IntegerValue
142

@<SCITEGIC>MOL_PROPERTY
Conf_Id
SciTegic.value.IntegerValue
831

@<SCITEGIC>MOL_PROPERTY
Probability
SciTegic.value.DoubleValue
0.00

@<SCITEGIC>MOL_PROPERTY
Sum Probability
SciTegic.value.DoubleValue
99.98

@<SCITEGIC>MOL_PROPERTY
Delta G
SciTegic.value.DoubleValue
5.811

@<SCITEGIC>MOL_PROPERTY
G
SciTegic.value.DoubleValue
-2.151

@<SCITEGIC>MOL_PROPERTY
E
SciTegic.value.DoubleValue
-27.594

@<SCITEGIC>MOL_PROPERTY
-TS
SciTegic.value.DoubleValue
25.443

@<SCITEGIC>MOL_PROPERTY
U+W
SciTegic.value.DoubleValue
-48.162

@<SCITEGIC>MOL_PROPERTY
U
SciTegic.value.DoubleValue
12.721

@<SCITEGIC>MOL_PROPERTY
W
SciTegic.value.DoubleValue
-60.883

@<SCITEGIC>MOL_PROPERTY
W(PB)
SciTegic.value.DoubleValue
-63.249

@<SCITEGIC>MOL_PROPERTY
W(SA)
SciTegic.value.DoubleValue
2.365

@<SCITEGIC>MOL_PROPERTY
Valence
SciTegic.value.DoubleValue
10.325

@<SCITEGIC>MOL_PROPERTY
Coulomb
SciTegic.value.DoubleValue
1.750

@<SCITEGIC>MOL_PROPERTY
VdW
SciTegic.value.DoubleValue
0.646

@<SCITEGIC>MOL_PROPERTY
VdW6
SciTegic.value.DoubleValue
-11.745

@<SCITEGIC>MOL_PROPERTY
VdW12
SciTegic.value.DoubleValue
12.391

@<SCITEGIC>MOL_PROPERTY
Bond
SciTegic.value.DoubleValue
0.275

@<SCITEGIC>MOL_PROPERTY
Angle
SciTegic.value.DoubleValue
3.728

@<SCITEGIC>MOL_PROPERTY
Pdih
SciTegic.value.DoubleValue
6.316

@<SCITEGIC>MOL_PROPERTY
Idih
SciTegic.value.DoubleValue
0.007

@<SCITEGIC>MOL_PROPERTY
Tether
SciTegic.value.DoubleValue
0.000

@<TRIPOS>MOLECULE
guest-8_vm2.mol2 : vm2 ligand conformer 143
          25          24           1
SMALL
USER_CHARGES
 
@<TRIPOS>ATOM
       1    C1      20.067878   19.871427   26.913870 C.2        1 MOL1         0.6168
       2    O1      21.174233   20.318055   27.144593 O.co2      1 MOL1        -0.6703
       3    O2      19.235459   19.658371   27.773271 O.co2      1 MOL1        -0.6703
       4    C2      19.711441   19.540555   25.469149 C.3        1 MOL1        -0.1963
       5    H1      20.225501   20.262129   24.827993 H          1 MOL1         0.0750
       6    H2      18.635106   19.704943   25.340292 H          1 MOL1         0.0750
       7    C3      20.078938   18.084485   25.079880 C.3        1 MOL1        -0.1860
       8    H3      21.155875   17.917297   25.218790 H          1 MOL1         0.0752
       9    H4      19.572676   17.411435   25.785684 H          1 MOL1         0.0752
      10    C4      19.655244   17.691519   23.641057 C.3        1 MOL1        -0.1858
      11    H5      18.730074   18.208903   23.355508 H          1 MOL1         0.0752
      12    H6      19.400414   16.623022   23.649434 H          1 MOL1         0.0752
      13    C5      20.751546   17.888865   22.561011 C.3        1 MOL1        -0.1858
      14    H7      21.643652   17.320091   22.856010 H          1 MOL1         0.0752
      15    H8      20.408208   17.428095   21.625645 H          1 MOL1         0.0752
      16    C6      21.172338   19.352758   22.273903 C.3        1 MOL1        -0.1858
      17    H9      21.953251   19.344370   21.501551 H          1 MOL1         0.0752
      18    H10     21.650118   19.775098   23.166524 H          1 MOL1         0.0752
      19    C7      20.028255   20.287586   21.808053 C.3        1 MOL1        -0.1834
      20    H11     19.258282   20.365079   22.586172 H          1 MOL1         0.0752
      21    H12     20.434271   21.300171   21.679060 H          1 MOL1         0.0752
      22    C8      19.377667   19.840379   20.481213 C.3        1 MOL1        -0.2849
      23    H13     18.861326   18.878962   20.595203 H          1 MOL1         0.0764
      24    H14     18.636733   20.578680   20.148575 H          1 MOL1         0.0764
      25    H15     20.130912   19.735989   19.689601 H          1 MOL1         0.0764
@<TRIPOS>BOND
    1     1     2    1
    2     1     3    2
    3     1     4    1
    4     4     5    1
    5     4     6    1
    6     4     7    1
    7     7     8    1
    8     7     9    1
    9     7    10    1
   10    10    11    1
   11    10    12    1
   12    10    13    1
   13    13    14    1
   14    13    15    1
   15    13    16    1
   16    16    17    1
   17    16    18    1
   18    16    19    1
   19    19    20    1
   20    19    21    1
   21    19    22    1
   22    22    23    1
   23    22    24    1
   24    22    25    1
@<TRIPOS>SUBSTRUCTURE
       1 MOL1            1 RESIDUE      1      MOL     
@<SCITEGIC>MOL_PROPERTY
VM2 Rank
SciTegic.value.IntegerValue
143

@<SCITEGIC>MOL_PROPERTY
Conf_Id
SciTegic.value.IntegerValue
283

@<SCITEGIC>MOL_PROPERTY
Probability
SciTegic.value.DoubleValue
0.00

@<SCITEGIC>MOL_PROPERTY
Sum Probability
SciTegic.value.DoubleValue
99.98

@<SCITEGIC>MOL_PROPERTY
Delta G
SciTegic.value.DoubleValue
5.871

@<SCITEGIC>MOL_PROPERTY
G
SciTegic.value.DoubleValue
-2.091

@<SCITEGIC>MOL_PROPERTY
E
SciTegic.value.DoubleValue
-27.534

@<SCITEGIC>MOL_PROPERTY
-TS
SciTegic.value.DoubleValue
25.443

@<SCITEGIC>MOL_PROPERTY
U+W
SciTegic.value.DoubleValue
-48.102

@<SCITEGIC>MOL_PROPERTY
U
SciTegic.value.DoubleValue
11.683

@<SCITEGIC>MOL_PROPERTY
W
SciTegic.value.DoubleValue
-59.784

@<SCITEGIC>MOL_PROPERTY
W(PB)
SciTegic.value.DoubleValue
-62.170

@<SCITEGIC>MOL_PROPERTY
W(SA)
SciTegic.value.DoubleValue
2.386

@<SCITEGIC>MOL_PROPERTY
Valence
SciTegic.value.DoubleValue
11.569

@<SCITEGIC>MOL_PROPERTY
Coulomb
SciTegic.value.DoubleValue
-0.570

@<SCITEGIC>MOL_PROPERTY
VdW
SciTegic.value.DoubleValue
0.684

@<SCITEGIC>MOL_PROPERTY
VdW6
SciTegic.value.DoubleValue
-11.332

@<SCITEGIC>MOL_PROPERTY
VdW12
SciTegic.value.DoubleValue
12.016

@<SCITEGIC>MOL_PROPERTY
Bond
SciTegic.value.DoubleValue
0.291

@<SCITEGIC>MOL_PROPERTY
Angle
SciTegic.value.DoubleValue
3.994

@<SCITEGIC>MOL_PROPERTY
Pdih
SciTegic.value.DoubleValue
7.283

@<SCITEGIC>MOL_PROPERTY
Idih
SciTegic.value.DoubleValue
0.001

@<SCITEGIC>MOL_PROPERTY
Tether
SciTegic.value.DoubleValue
0.000

@<TRIPOS>MOLECULE
guest-8_vm2.mol2 : vm2 ligand conformer 144
          25          24           1
SMALL
USER_CHARGES
 
@<TRIPOS>ATOM
       1    C1      20.163094   19.877561   26.912680 C.2        1 MOL1         0.6168
       2    O1      21.035213   19.773488   27.752596 O.co2      1 MOL1        -0.6703
       3    O2      19.014408   20.179982   27.169183 O.co2      1 MOL1        -0.6703
       4    C2      20.525790   19.592697   25.459737 C.3        1 MOL1        -0.1963
       5    H1      21.569135   19.892869   25.306589 H          1 MOL1         0.0750
       6    H2      19.909385   20.241832   24.831504 H          1 MOL1         0.0750
       7    C3      20.338284   18.101057   25.076886 C.3        1 MOL1        -0.1860
       8    H3      20.942394   17.499172   25.769882 H          1 MOL1         0.0752
       9    H4      19.294971   17.797991   25.240263 H          1 MOL1         0.0752
      10    C4      20.775480   17.763262   23.628127 C.3        1 MOL1        -0.1858
      11    H5      21.164789   16.736065   23.629074 H          1 MOL1         0.0752
      12    H6      21.620188   18.394129   23.322122 H          1 MOL1         0.0752
      13    C5      19.638392   17.817410   22.573888 C.3        1 MOL1        -0.1858
      14    H7      20.016167   17.402993   21.630150 H          1 MOL1         0.0752
      15    H8      18.833303   17.139719   22.888450 H          1 MOL1         0.0752
      16    C6      19.027492   19.215135   22.298851 C.3        1 MOL1        -0.1858
      17    H9      18.520418   19.574223   23.202924 H          1 MOL1         0.0752
      18    H10     18.236416   19.105954   21.544729 H          1 MOL1         0.0752
      19    C7      20.031689   20.287821   21.808157 C.3        1 MOL1        -0.1834
      20    H11     19.496773   21.240069   21.690239 H          1 MOL1         0.0752
      21    H12     20.803279   20.464090   22.568362 H          1 MOL1         0.0752
      22    C8      20.703159   19.925587   20.465894 C.3        1 MOL1        -0.2849
      23    H13     21.340660   19.038219   20.566376 H          1 MOL1         0.0764
      24    H14     19.951284   19.724661   19.691790 H          1 MOL1         0.0764
      25    H15     21.335725   20.752080   20.117338 H          1 MOL1         0.0764
@<TRIPOS>BOND
    1     1     2    1
    2     1     3    2
    3     1     4    1
    4     4     5    1
    5     4     6    1
    6     4     7    1
    7     7     8    1
    8     7     9    1
    9     7    10    1
   10    10    11    1
   11    10    12    1
   12    10    13    1
   13    13    14    1
   14    13    15    1
   15    13    16    1
   16    16    17    1
   17    16    18    1
   18    16    19    1
   19    19    20    1
   20    19    21    1
   21    19    22    1
   22    22    23    1
   23    22    24    1
   24    22    25    1
@<TRIPOS>SUBSTRUCTURE
       1 MOL1            1 RESIDUE      1      MOL     
@<SCITEGIC>MOL_PROPERTY
VM2 Rank
SciTegic.value.IntegerValue
144

@<SCITEGIC>MOL_PROPERTY
Conf_Id
SciTegic.value.IntegerValue
434

@<SCITEGIC>MOL_PROPERTY
Probability
SciTegic.value.DoubleValue
0.00

@<SCITEGIC>MOL_PROPERTY
Sum Probability
SciTegic.value.DoubleValue
99.99

@<SCITEGIC>MOL_PROPERTY
Delta G
SciTegic.value.DoubleValue
5.935

@<SCITEGIC>MOL_PROPERTY
G
SciTegic.value.DoubleValue
-2.027

@<SCITEGIC>MOL_PROPERTY
E
SciTegic.value.DoubleValue
-27.470

@<SCITEGIC>MOL_PROPERTY
-TS
SciTegic.value.DoubleValue
25.442

@<SCITEGIC>MOL_PROPERTY
U+W
SciTegic.value.DoubleValue
-48.037

@<SCITEGIC>MOL_PROPERTY
U
SciTegic.value.DoubleValue
11.683

@<SCITEGIC>MOL_PROPERTY
W
SciTegic.value.DoubleValue
-59.720

@<SCITEGIC>MOL_PROPERTY
W(PB)
SciTegic.value.DoubleValue
-62.088

@<SCITEGIC>MOL_PROPERTY
W(SA)
SciTegic.value.DoubleValue
2.368

@<SCITEGIC>MOL_PROPERTY
Valence
SciTegic.value.DoubleValue
11.569

@<SCITEGIC>MOL_PROPERTY
Coulomb
SciTegic.value.DoubleValue
-0.570

@<SCITEGIC>MOL_PROPERTY
VdW
SciTegic.value.DoubleValue
0.684

@<SCITEGIC>MOL_PROPERTY
VdW6
SciTegic.value.DoubleValue
-11.332

@<SCITEGIC>MOL_PROPERTY
VdW12
SciTegic.value.DoubleValue
12.017

@<SCITEGIC>MOL_PROPERTY
Bond
SciTegic.value.DoubleValue
0.291

@<SCITEGIC>MOL_PROPERTY
Angle
SciTegic.value.DoubleValue
3.994

@<SCITEGIC>MOL_PROPERTY
Pdih
SciTegic.value.DoubleValue
7.284

@<SCITEGIC>MOL_PROPERTY
Idih
SciTegic.value.DoubleValue
0.001

@<SCITEGIC>MOL_PROPERTY
Tether
SciTegic.value.DoubleValue
0.000

@<TRIPOS>MOLECULE
guest-8_vm2.mol2 : vm2 ligand conformer 145
          25          24           1
SMALL
USER_CHARGES
 
@<TRIPOS>ATOM
       1    C1      20.760673   19.488572   26.428228 C.2        1 MOL1         0.6168
       2    O1      21.810090   19.632900   25.833028 O.co2      1 MOL1        -0.6703
       3    O2      20.660427   18.866977   27.468231 O.co2      1 MOL1        -0.6703
       4    C2      19.510984   20.166647   25.870198 C.3        1 MOL1        -0.1963
       5    H1      19.784757   20.756150   24.988608 H          1 MOL1         0.0750
       6    H2      19.172584   20.883438   26.627116 H          1 MOL1         0.0750
       7    C3      18.349104   19.192597   25.536740 C.3        1 MOL1        -0.1860
       8    H3      18.074113   18.652468   26.453305 H          1 MOL1         0.0752
       9    H4      17.462603   19.774696   25.251155 H          1 MOL1         0.0752
      10    C4      18.657015   18.156376   24.425712 C.3        1 MOL1        -0.1858
      11    H5      17.812103   17.455240   24.388521 H          1 MOL1         0.0752
      12    H6      19.532473   17.551072   24.698596 H          1 MOL1         0.0752
      13    C5      18.834158   18.763380   23.010398 C.3        1 MOL1        -0.1858
      14    H7      18.372065   18.083478   22.281599 H          1 MOL1         0.0752
      15    H8      18.285202   19.711725   22.933398 H          1 MOL1         0.0752
      16    C6      20.313135   18.965818   22.606706 C.3        1 MOL1        -0.1858
      17    H9      20.839521   18.002792   22.653147 H          1 MOL1         0.0752
      18    H10     20.815239   19.631085   23.318804 H          1 MOL1         0.0752
      19    C7      20.441009   19.552665   21.185026 C.3        1 MOL1        -0.1834
      20    H11     19.950257   18.885776   20.462694 H          1 MOL1         0.0752
      21    H12     19.918272   20.517875   21.135285 H          1 MOL1         0.0752
      22    C8      21.916406   19.748067   20.781734 C.3        1 MOL1        -0.2849
      23    H13     22.455912   18.791949   20.791469 H          1 MOL1         0.0764
      24    H14     21.989083   20.168469   19.770315 H          1 MOL1         0.0764
      25    H15     22.423988   20.434609   21.472073 H          1 MOL1         0.0764
@<TRIPOS>BOND
    1     1     2    1
    2     1     3    2
    3     1     4    1
    4     4     5    1
    5     4     6    1
    6     4     7    1
    7     7     8    1
    8     7     9    1
    9     7    10    1
   10    10    11    1
   11    10    12    1
   12    10    13    1
   13    13    14    1
   14    13    15    1
   15    13    16    1
   16    16    17    1
   17    16    18    1
   18    16    19    1
   19    19    20    1
   20    19    21    1
   21    19    22    1
   22    22    23    1
   23    22    24    1
   24    22    25    1
@<TRIPOS>SUBSTRUCTURE
       1 MOL1            1 RESIDUE      1      MOL     
@<SCITEGIC>MOL_PROPERTY
VM2 Rank
SciTegic.value.IntegerValue
145

@<SCITEGIC>MOL_PROPERTY
Conf_Id
SciTegic.value.IntegerValue
836

@<SCITEGIC>MOL_PROPERTY
Probability
SciTegic.value.DoubleValue
0.00

@<SCITEGIC>MOL_PROPERTY
Sum Probability
SciTegic.value.DoubleValue
99.99

@<SCITEGIC>MOL_PROPERTY
Delta G
SciTegic.value.DoubleValue
5.974

@<SCITEGIC>MOL_PROPERTY
G
SciTegic.value.DoubleValue
-1.988

@<SCITEGIC>MOL_PROPERTY
E
SciTegic.value.DoubleValue
-27.115

@<SCITEGIC>MOL_PROPERTY
-TS
SciTegic.value.DoubleValue
25.127

@<SCITEGIC>MOL_PROPERTY
U+W
SciTegic.value.DoubleValue
-47.683

@<SCITEGIC>MOL_PROPERTY
U
SciTegic.value.DoubleValue
13.358

@<SCITEGIC>MOL_PROPERTY
W
SciTegic.value.DoubleValue
-61.041

@<SCITEGIC>MOL_PROPERTY
W(PB)
SciTegic.value.DoubleValue
-63.441

@<SCITEGIC>MOL_PROPERTY
W(SA)
SciTegic.value.DoubleValue
2.400

@<SCITEGIC>MOL_PROPERTY
Valence
SciTegic.value.DoubleValue
11.157

@<SCITEGIC>MOL_PROPERTY
Coulomb
SciTegic.value.DoubleValue
1.807

@<SCITEGIC>MOL_PROPERTY
VdW
SciTegic.value.DoubleValue
0.394

@<SCITEGIC>MOL_PROPERTY
VdW6
SciTegic.value.DoubleValue
-10.846

@<SCITEGIC>MOL_PROPERTY
VdW12
SciTegic.value.DoubleValue
11.239

@<SCITEGIC>MOL_PROPERTY
Bond
SciTegic.value.DoubleValue
0.228

@<SCITEGIC>MOL_PROPERTY
Angle
SciTegic.value.DoubleValue
3.384

@<SCITEGIC>MOL_PROPERTY
Pdih
SciTegic.value.DoubleValue
7.541

@<SCITEGIC>MOL_PROPERTY
Idih
SciTegic.value.DoubleValue
0.004

@<SCITEGIC>MOL_PROPERTY
Tether
SciTegic.value.DoubleValue
0.000

@<TRIPOS>MOLECULE
guest-8_vm2.mol2 : vm2 ligand conformer 146
          25          24           1
SMALL
USER_CHARGES
 
@<TRIPOS>ATOM
       1    C1      19.991975   19.958661   26.167031 C.2        1 MOL1         0.6168
       2    O1      20.947852   20.709430   26.182483 O.co2      1 MOL1        -0.6703
       3    O2      18.849766   20.329450   25.978216 O.co2      1 MOL1        -0.6703
       4    C2      20.224235   18.489549   26.514999 C.3        1 MOL1        -0.1963
       5    H1      19.637241   18.291438   27.419291 H          1 MOL1         0.0750
       6    H2      21.277094   18.349069   26.787758 H          1 MOL1         0.0750
       7    C3      19.810912   17.474210   25.412648 C.3        1 MOL1        -0.1860
       8    H3      19.639353   16.503545   25.897060 H          1 MOL1         0.0752
       9    H4      18.844216   17.761855   24.978424 H          1 MOL1         0.0752
      10    C4      20.869984   17.257917   24.300209 C.3        1 MOL1        -0.1858
      11    H5      20.534925   16.434733   23.654537 H          1 MOL1         0.0752
      12    H6      21.805463   16.914741   24.762558 H          1 MOL1         0.0752
      13    C5      21.177215   18.487033   23.409994 C.3        1 MOL1        -0.1858
      14    H7      21.598819   19.297155   24.018152 H          1 MOL1         0.0752
      15    H8      21.962968   18.206210   22.695700 H          1 MOL1         0.0752
      16    C6      19.949801   19.002669   22.623765 C.3        1 MOL1        -0.1858
      17    H9      19.179671   19.354834   23.322676 H          1 MOL1         0.0752
      18    H10     19.508922   18.178106   22.047452 H          1 MOL1         0.0752
      19    C7      20.327754   20.155842   21.670552 C.3        1 MOL1        -0.1834
      20    H11     20.764126   20.982426   22.248648 H          1 MOL1         0.0752
      21    H12     21.098343   19.816991   20.964432 H          1 MOL1         0.0752
      22    C8      19.103506   20.669239   20.886102 C.3        1 MOL1        -0.2849
      23    H13     18.664211   19.869214   20.275972 H          1 MOL1         0.0764
      24    H14     18.329773   21.043986   21.569082 H          1 MOL1         0.0764
      25    H15     19.389840   21.489508   20.215178 H          1 MOL1         0.0764
@<TRIPOS>BOND
    1     1     2    1
    2     1     3    2
    3     1     4    1
    4     4     5    1
    5     4     6    1
    6     4     7    1
    7     7     8    1
    8     7     9    1
    9     7    10    1
   10    10    11    1
   11    10    12    1
   12    10    13    1
   13    13    14    1
   14    13    15    1
   15    13    16    1
   16    16    17    1
   17    16    18    1
   18    16    19    1
   19    19    20    1
   20    19    21    1
   21    19    22    1
   22    22    23    1
   23    22    24    1
   24    22    25    1
@<TRIPOS>SUBSTRUCTURE
       1 MOL1            1 RESIDUE      1      MOL     
@<SCITEGIC>MOL_PROPERTY
VM2 Rank
SciTegic.value.IntegerValue
146

@<SCITEGIC>MOL_PROPERTY
Conf_Id
SciTegic.value.IntegerValue
740

@<SCITEGIC>MOL_PROPERTY
Probability
SciTegic.value.DoubleValue
0.00

@<SCITEGIC>MOL_PROPERTY
Sum Probability
SciTegic.value.DoubleValue
99.99

@<SCITEGIC>MOL_PROPERTY
Delta G
SciTegic.value.DoubleValue
6.000

@<SCITEGIC>MOL_PROPERTY
G
SciTegic.value.DoubleValue
-1.963

@<SCITEGIC>MOL_PROPERTY
E
SciTegic.value.DoubleValue
-27.679

@<SCITEGIC>MOL_PROPERTY
-TS
SciTegic.value.DoubleValue
25.717

@<SCITEGIC>MOL_PROPERTY
U+W
SciTegic.value.DoubleValue
-48.247

@<SCITEGIC>MOL_PROPERTY
U
SciTegic.value.DoubleValue
13.046

@<SCITEGIC>MOL_PROPERTY
W
SciTegic.value.DoubleValue
-61.293

@<SCITEGIC>MOL_PROPERTY
W(PB)
SciTegic.value.DoubleValue
-63.664

@<SCITEGIC>MOL_PROPERTY
W(SA)
SciTegic.value.DoubleValue
2.371

@<SCITEGIC>MOL_PROPERTY
Valence
SciTegic.value.DoubleValue
10.098

@<SCITEGIC>MOL_PROPERTY
Coulomb
SciTegic.value.DoubleValue
2.795

@<SCITEGIC>MOL_PROPERTY
VdW
SciTegic.value.DoubleValue
0.153

@<SCITEGIC>MOL_PROPERTY
VdW6
SciTegic.value.DoubleValue
-11.571

@<SCITEGIC>MOL_PROPERTY
VdW12
SciTegic.value.DoubleValue
11.724

@<SCITEGIC>MOL_PROPERTY
Bond
SciTegic.value.DoubleValue
0.240

@<SCITEGIC>MOL_PROPERTY
Angle
SciTegic.value.DoubleValue
3.695

@<SCITEGIC>MOL_PROPERTY
Pdih
SciTegic.value.DoubleValue
6.146

@<SCITEGIC>MOL_PROPERTY
Idih
SciTegic.value.DoubleValue
0.017

@<SCITEGIC>MOL_PROPERTY
Tether
SciTegic.value.DoubleValue
0.000

@<TRIPOS>MOLECULE
guest-8_vm2.mol2 : vm2 ligand conformer 147
          25          24           1
SMALL
USER_CHARGES
 
@<TRIPOS>ATOM
       1    C1      20.779910   18.930916   26.162526 C.2        1 MOL1         0.6168
       2    O1      21.753094   19.659112   26.177947 O.co2      1 MOL1        -0.6703
       3    O2      20.840673   17.732787   25.966127 O.co2      1 MOL1        -0.6703
       4    C2      19.422937   19.534451   26.519858 C.3        1 MOL1        -0.1963
       5    H1      19.561727   20.586070   26.798208 H          1 MOL1         0.0750
       6    H2      19.083138   19.013692   27.422576 H          1 MOL1         0.0750
       7    C3      18.330383   19.405299   25.421417 C.3        1 MOL1        -0.1860
       8    H3      18.355316   18.399618   24.981220 H          1 MOL1         0.0752
       9    H4      17.350555   19.488779   25.910543 H          1 MOL1         0.0752
      10    C4      18.391677   20.490682   24.315014 C.3        1 MOL1        -0.1858
      11    H5      18.305287   21.480469   24.783534 H          1 MOL1         0.0752
      12    H6      17.506878   20.384674   23.672612 H          1 MOL1         0.0752
      13    C5      19.654464   20.473362   23.419093 C.3        1 MOL1        -0.1858
      14    H7      19.584201   21.309236   22.709963 H          1 MOL1         0.0752
      15    H8      20.548965   20.666559   24.024441 H          1 MOL1         0.0752
      16    C6      19.830138   19.158759   22.624396 C.3        1 MOL1        -0.1858
      17    H9      18.916839   18.950533   22.050861 H          1 MOL1         0.0752
      18    H10     19.973246   18.319528   23.317799 H          1 MOL1         0.0752
      19    C7      21.037708   19.229796   21.666272 C.3        1 MOL1        -0.1834
      20    H11     20.907567   20.066072   20.965603 H          1 MOL1         0.0752
      21    H12     21.951801   19.433101   22.241561 H          1 MOL1         0.0752
      22    C8      21.212016   17.918837   20.873351 C.3        1 MOL1        -0.2849
      23    H13     20.322671   17.706000   20.265860 H          1 MOL1         0.0764
      24    H14     22.075549   17.986216   20.199010 H          1 MOL1         0.0764
      25    H15     21.375905   17.070329   21.550650 H          1 MOL1         0.0764
@<TRIPOS>BOND
    1     1     2    1
    2     1     3    2
    3     1     4    1
    4     4     5    1
    5     4     6    1
    6     4     7    1
    7     7     8    1
    8     7     9    1
    9     7    10    1
   10    10    11    1
   11    10    12    1
   12    10    13    1
   13    13    14    1
   14    13    15    1
   15    13    16    1
   16    16    17    1
   17    16    18    1
   18    16    19    1
   19    19    20    1
   20    19    21    1
   21    19    22    1
   22    22    23    1
   23    22    24    1
   24    22    25    1
@<TRIPOS>SUBSTRUCTURE
       1 MOL1            1 RESIDUE      1      MOL     
@<SCITEGIC>MOL_PROPERTY
VM2 Rank
SciTegic.value.IntegerValue
147

@<SCITEGIC>MOL_PROPERTY
Conf_Id
SciTegic.value.IntegerValue
226

@<SCITEGIC>MOL_PROPERTY
Probability
SciTegic.value.DoubleValue
0.00

@<SCITEGIC>MOL_PROPERTY
Sum Probability
SciTegic.value.DoubleValue
99.99

@<SCITEGIC>MOL_PROPERTY
Delta G
SciTegic.value.DoubleValue
6.028

@<SCITEGIC>MOL_PROPERTY
G
SciTegic.value.DoubleValue
-1.935

@<SCITEGIC>MOL_PROPERTY
E
SciTegic.value.DoubleValue
-27.651

@<SCITEGIC>MOL_PROPERTY
-TS
SciTegic.value.DoubleValue
25.716

@<SCITEGIC>MOL_PROPERTY
U+W
SciTegic.value.DoubleValue
-48.219

@<SCITEGIC>MOL_PROPERTY
U
SciTegic.value.DoubleValue
13.046

@<SCITEGIC>MOL_PROPERTY
W
SciTegic.value.DoubleValue
-61.265

@<SCITEGIC>MOL_PROPERTY
W(PB)
SciTegic.value.DoubleValue
-63.654

@<SCITEGIC>MOL_PROPERTY
W(SA)
SciTegic.value.DoubleValue
2.389

@<SCITEGIC>MOL_PROPERTY
Valence
SciTegic.value.DoubleValue
10.098

@<SCITEGIC>MOL_PROPERTY
Coulomb
SciTegic.value.DoubleValue
2.796

@<SCITEGIC>MOL_PROPERTY
VdW
SciTegic.value.DoubleValue
0.153

@<SCITEGIC>MOL_PROPERTY
VdW6
SciTegic.value.DoubleValue
-11.571

@<SCITEGIC>MOL_PROPERTY
VdW12
SciTegic.value.DoubleValue
11.724

@<SCITEGIC>MOL_PROPERTY
Bond
SciTegic.value.DoubleValue
0.240

@<SCITEGIC>MOL_PROPERTY
Angle
SciTegic.value.DoubleValue
3.695

@<SCITEGIC>MOL_PROPERTY
Pdih
SciTegic.value.DoubleValue
6.145

@<SCITEGIC>MOL_PROPERTY
Idih
SciTegic.value.DoubleValue
0.018

@<SCITEGIC>MOL_PROPERTY
Tether
SciTegic.value.DoubleValue
0.000

@<TRIPOS>MOLECULE
guest-8_vm2.mol2 : vm2 ligand conformer 148
          25          24           1
SMALL
USER_CHARGES
 
@<TRIPOS>ATOM
       1    C1      20.527631   19.221431   26.932034 C.2        1 MOL1         0.6168
       2    O1      21.481455   19.959516   26.781968 O.co2      1 MOL1        -0.6703
       3    O2      19.875239   19.166109   27.956119 O.co2      1 MOL1        -0.6703
       4    C2      20.140681   18.295204   25.782277 C.3        1 MOL1        -0.1963
       5    H1      20.010636   17.292174   26.204962 H          1 MOL1         0.0750
       6    H2      20.985528   18.234894   25.089376 H          1 MOL1         0.0750
       7    C3      18.838298   18.714209   25.045029 C.3        1 MOL1        -0.1860
       8    H3      18.520777   17.911859   24.365522 H          1 MOL1         0.0752
       9    H4      18.040327   18.807858   25.794722 H          1 MOL1         0.0752
      10    C4      18.946365   20.050119   24.264007 C.3        1 MOL1        -0.1858
      11    H5      19.657139   20.728248   24.755554 H          1 MOL1         0.0752
      12    H6      17.971535   20.553823   24.316170 H          1 MOL1         0.0752
      13    C5      19.309755   19.896800   22.765606 C.3        1 MOL1        -0.1858
      14    H7      18.541901   19.288474   22.269885 H          1 MOL1         0.0752
      15    H8      19.267226   20.889849   22.298100 H          1 MOL1         0.0752
      16    C6      20.706826   19.283252   22.511631 C.3        1 MOL1        -0.1858
      17    H9      20.710116   18.229176   22.817382 H          1 MOL1         0.0752
      18    H10     21.445485   19.799768   23.139874 H          1 MOL1         0.0752
      19    C7      21.158632   19.380282   21.035852 C.3        1 MOL1        -0.1834
      20    H11     21.177784   20.433068   20.722000 H          1 MOL1         0.0752
      21    H12     22.191829   19.014722   20.958242 H          1 MOL1         0.0752
      22    C8      20.268119   18.567079   20.071477 C.3        1 MOL1        -0.2849
      23    H13     20.214361   17.514829   20.379668 H          1 MOL1         0.0764
      24    H14     19.247400   18.968026   20.035798 H          1 MOL1         0.0764
      25    H15     20.674706   18.600746   19.052455 H          1 MOL1         0.0764
@<TRIPOS>BOND
    1     1     2    1
    2     1     3    2
    3     1     4    1
    4     4     5    1
    5     4     6    1
    6     4     7    1
    7     7     8    1
    8     7     9    1
    9     7    10    1
   10    10    11    1
   11    10    12    1
   12    10    13    1
   13    13    14    1
   14    13    15    1
   15    13    16    1
   16    16    17    1
   17    16    18    1
   18    16    19    1
   19    19    20    1
   20    19    21    1
   21    19    22    1
   22    22    23    1
   23    22    24    1
   24    22    25    1
@<TRIPOS>SUBSTRUCTURE
       1 MOL1            1 RESIDUE      1      MOL     
@<SCITEGIC>MOL_PROPERTY
VM2 Rank
SciTegic.value.IntegerValue
148

@<SCITEGIC>MOL_PROPERTY
Conf_Id
SciTegic.value.IntegerValue
266

@<SCITEGIC>MOL_PROPERTY
Probability
SciTegic.value.DoubleValue
0.00

@<SCITEGIC>MOL_PROPERTY
Sum Probability
SciTegic.value.DoubleValue
99.99

@<SCITEGIC>MOL_PROPERTY
Delta G
SciTegic.value.DoubleValue
6.227

@<SCITEGIC>MOL_PROPERTY
G
SciTegic.value.DoubleValue
-1.735

@<SCITEGIC>MOL_PROPERTY
E
SciTegic.value.DoubleValue
-26.995

@<SCITEGIC>MOL_PROPERTY
-TS
SciTegic.value.DoubleValue
25.260

@<SCITEGIC>MOL_PROPERTY
U+W
SciTegic.value.DoubleValue
-47.563

@<SCITEGIC>MOL_PROPERTY
U
SciTegic.value.DoubleValue
12.455

@<SCITEGIC>MOL_PROPERTY
W
SciTegic.value.DoubleValue
-60.018

@<SCITEGIC>MOL_PROPERTY
W(PB)
SciTegic.value.DoubleValue
-62.428

@<SCITEGIC>MOL_PROPERTY
W(SA)
SciTegic.value.DoubleValue
2.410

@<SCITEGIC>MOL_PROPERTY
Valence
SciTegic.value.DoubleValue
11.319

@<SCITEGIC>MOL_PROPERTY
Coulomb
SciTegic.value.DoubleValue
0.248

@<SCITEGIC>MOL_PROPERTY
VdW
SciTegic.value.DoubleValue
0.888

@<SCITEGIC>MOL_PROPERTY
VdW6
SciTegic.value.DoubleValue
-10.931

@<SCITEGIC>MOL_PROPERTY
VdW12
SciTegic.value.DoubleValue
11.819

@<SCITEGIC>MOL_PROPERTY
Bond
SciTegic.value.DoubleValue
0.269

@<SCITEGIC>MOL_PROPERTY
Angle
SciTegic.value.DoubleValue
3.444

@<SCITEGIC>MOL_PROPERTY
Pdih
SciTegic.value.DoubleValue
7.605

@<SCITEGIC>MOL_PROPERTY
Idih
SciTegic.value.DoubleValue
0.001

@<SCITEGIC>MOL_PROPERTY
Tether
SciTegic.value.DoubleValue
0.000

@<TRIPOS>MOLECULE
guest-8_vm2.mol2 : vm2 ligand conformer 149
          25          24           1
SMALL
USER_CHARGES
 
@<TRIPOS>ATOM
       1    C1      19.739145   19.655810   26.871125 C.2        1 MOL1         0.6168
       2    O1      19.969685   19.041335   27.893983 O.co2      1 MOL1        -0.6703
       3    O2      18.743919   20.332222   26.701955 O.co2      1 MOL1        -0.6703
       4    C2      20.746221   19.557946   25.730814 C.3        1 MOL1        -0.1963
       5    H1      21.747231   19.468196   26.169038 H          1 MOL1         0.0750
       6    H2      20.717062   20.504281   25.180222 H          1 MOL1         0.0750
       7    C3      20.465950   18.359836   24.786035 C.3        1 MOL1        -0.1860
       8    H3      20.438730   17.442156   25.389534 H          1 MOL1         0.0752
       9    H4      19.465954   18.465796   24.350426 H          1 MOL1         0.0752
      10    C4      21.533809   18.184918   23.676140 C.3        1 MOL1        -0.1858
      11    H5      21.395510   17.210979   23.187469 H          1 MOL1         0.0752
      12    H6      22.519943   18.136066   24.157745 H          1 MOL1         0.0752
      13    C5      21.563547   19.301388   22.597296 C.3        1 MOL1        -0.1858
      14    H7      21.277378   20.271524   23.019099 H          1 MOL1         0.0752
      15    H8      22.606788   19.423756   22.276088 H          1 MOL1         0.0752
      16    C6      20.729665   18.998189   21.324279 C.3        1 MOL1        -0.1858
      17    H9      21.090403   18.061188   20.878784 H          1 MOL1         0.0752
      18    H10     20.933051   19.780516   20.580479 H          1 MOL1         0.0752
      19    C7      19.198749   18.896930   21.523132 C.3        1 MOL1        -0.1834
      20    H11     18.738839   18.642422   20.558457 H          1 MOL1         0.0752
      21    H12     18.959328   18.065267   22.197468 H          1 MOL1         0.0752
      22    C8      18.562310   20.205425   22.041241 C.3        1 MOL1        -0.2849
      23    H13     17.470763   20.105744   22.097409 H          1 MOL1         0.0764
      24    H14     18.924824   20.458841   23.045281 H          1 MOL1         0.0764
      25    H15     18.791697   21.044687   21.372089 H          1 MOL1         0.0764
@<TRIPOS>BOND
    1     1     2    1
    2     1     3    2
    3     1     4    1
    4     4     5    1
    5     4     6    1
    6     4     7    1
    7     7     8    1
    8     7     9    1
    9     7    10    1
   10    10    11    1
   11    10    12    1
   12    10    13    1
   13    13    14    1
   14    13    15    1
   15    13    16    1
   16    16    17    1
   17    16    18    1
   18    16    19    1
   19    19    20    1
   20    19    21    1
   21    19    22    1
   22    22    23    1
   23    22    24    1
   24    22    25    1
@<TRIPOS>SUBSTRUCTURE
       1 MOL1            1 RESIDUE      1      MOL     
@<SCITEGIC>MOL_PROPERTY
VM2 Rank
SciTegic.value.IntegerValue
149

@<SCITEGIC>MOL_PROPERTY
Conf_Id
SciTegic.value.IntegerValue
480

@<SCITEGIC>MOL_PROPERTY
Probability
SciTegic.value.DoubleValue
0.00

@<SCITEGIC>MOL_PROPERTY
Sum Probability
SciTegic.value.DoubleValue
99.99

@<SCITEGIC>MOL_PROPERTY
Delta G
SciTegic.value.DoubleValue
6.278

@<SCITEGIC>MOL_PROPERTY
G
SciTegic.value.DoubleValue
-1.684

@<SCITEGIC>MOL_PROPERTY
E
SciTegic.value.DoubleValue
-27.070

@<SCITEGIC>MOL_PROPERTY
-TS
SciTegic.value.DoubleValue
25.385

@<SCITEGIC>MOL_PROPERTY
U+W
SciTegic.value.DoubleValue
-47.637

@<SCITEGIC>MOL_PROPERTY
U
SciTegic.value.DoubleValue
12.577

@<SCITEGIC>MOL_PROPERTY
W
SciTegic.value.DoubleValue
-60.214

@<SCITEGIC>MOL_PROPERTY
W(PB)
SciTegic.value.DoubleValue
-62.544

@<SCITEGIC>MOL_PROPERTY
W(SA)
SciTegic.value.DoubleValue
2.329

@<SCITEGIC>MOL_PROPERTY
Valence
SciTegic.value.DoubleValue
11.827

@<SCITEGIC>MOL_PROPERTY
Coulomb
SciTegic.value.DoubleValue
0.089

@<SCITEGIC>MOL_PROPERTY
VdW
SciTegic.value.DoubleValue
0.661

@<SCITEGIC>MOL_PROPERTY
VdW6
SciTegic.value.DoubleValue
-11.301

@<SCITEGIC>MOL_PROPERTY
VdW12
SciTegic.value.DoubleValue
11.962

@<SCITEGIC>MOL_PROPERTY
Bond
SciTegic.value.DoubleValue
0.300

@<SCITEGIC>MOL_PROPERTY
Angle
SciTegic.value.DoubleValue
3.988

@<SCITEGIC>MOL_PROPERTY
Pdih
SciTegic.value.DoubleValue
7.539

@<SCITEGIC>MOL_PROPERTY
Idih
SciTegic.value.DoubleValue
0.000

@<SCITEGIC>MOL_PROPERTY
Tether
SciTegic.value.DoubleValue
0.000

@<TRIPOS>MOLECULE
guest-8_vm2.mol2 : vm2 ligand conformer 150
          25          24           1
SMALL
USER_CHARGES
 
@<TRIPOS>ATOM
       1    C1      20.374639   19.440942   27.051018 C.2        1 MOL1         0.6168
       2    O1      21.301329   20.222238   27.140138 O.co2      1 MOL1        -0.6703
       3    O2      19.319600   19.578932   27.638357 O.co2      1 MOL1        -0.6703
       4    C2      20.555863   18.208289   26.169733 C.3        1 MOL1        -0.1963
       5    H1      19.820489   17.452134   26.470025 H          1 MOL1         0.0750
       6    H2      21.546309   17.791610   26.387293 H          1 MOL1         0.0750
       7    C3      20.438128   18.498105   24.650856 C.3        1 MOL1        -0.1860
       8    H3      21.168818   19.271688   24.380333 H          1 MOL1         0.0752
       9    H4      20.706118   17.591678   24.091615 H          1 MOL1         0.0752
      10    C4      19.017061   18.950016   24.242114 C.3        1 MOL1        -0.1858
      11    H5      18.783546   19.910202   24.722473 H          1 MOL1         0.0752
      12    H6      18.287159   18.227224   24.631467 H          1 MOL1         0.0752
      13    C5      18.808472   19.077477   22.712232 C.3        1 MOL1        -0.1858
      14    H7      18.947444   18.099173   22.235812 H          1 MOL1         0.0752
      15    H8      17.755908   19.342593   22.543707 H          1 MOL1         0.0752
      16    C6      19.691056   20.156438   22.029731 C.3        1 MOL1        -0.1858
      17    H9      19.934298   20.942501   22.757571 H          1 MOL1         0.0752
      18    H10     19.103359   20.651745   21.244844 H          1 MOL1         0.0752
      19    C7      20.997243   19.619784   21.392816 C.3        1 MOL1        -0.1834
      20    H11     21.634864   20.474648   21.128967 H          1 MOL1         0.0752
      21    H12     21.565432   19.025143   22.118342 H          1 MOL1         0.0752
      22    C8      20.749609   18.781780   20.119003 C.3        1 MOL1        -0.2849
      23    H13     20.189898   19.359188   19.371778 H          1 MOL1         0.0764
      24    H14     21.703447   18.481066   19.666658 H          1 MOL1         0.0764
      25    H15     20.184053   17.868380   20.339802 H          1 MOL1         0.0764
@<TRIPOS>BOND
    1     1     2    1
    2     1     3    2
    3     1     4    1
    4     4     5    1
    5     4     6    1
    6     4     7    1
    7     7     8    1
    8     7     9    1
    9     7    10    1
   10    10    11    1
   11    10    12    1
   12    10    13    1
   13    13    14    1
   14    13    15    1
   15    13    16    1
   16    16    17    1
   17    16    18    1
   18    16    19    1
   19    19    20    1
   20    19    21    1
   21    19    22    1
   22    22    23    1
   23    22    24    1
   24    22    25    1
@<TRIPOS>SUBSTRUCTURE
       1 MOL1            1 RESIDUE      1      MOL     
@<SCITEGIC>MOL_PROPERTY
VM2 Rank
SciTegic.value.IntegerValue
150

@<SCITEGIC>MOL_PROPERTY
Conf_Id
SciTegic.value.IntegerValue
707

@<SCITEGIC>MOL_PROPERTY
Probability
SciTegic.value.DoubleValue
0.00

@<SCITEGIC>MOL_PROPERTY
Sum Probability
SciTegic.value.DoubleValue
99.99

@<SCITEGIC>MOL_PROPERTY
Delta G
SciTegic.value.DoubleValue
6.290

@<SCITEGIC>MOL_PROPERTY
G
SciTegic.value.DoubleValue
-1.672

@<SCITEGIC>MOL_PROPERTY
E
SciTegic.value.DoubleValue
-26.816

@<SCITEGIC>MOL_PROPERTY
-TS
SciTegic.value.DoubleValue
25.143

@<SCITEGIC>MOL_PROPERTY
U+W
SciTegic.value.DoubleValue
-47.383

@<SCITEGIC>MOL_PROPERTY
U
SciTegic.value.DoubleValue
12.751

@<SCITEGIC>MOL_PROPERTY
W
SciTegic.value.DoubleValue
-60.134

@<SCITEGIC>MOL_PROPERTY
W(PB)
SciTegic.value.DoubleValue
-62.535

@<SCITEGIC>MOL_PROPERTY
W(SA)
SciTegic.value.DoubleValue
2.401

@<SCITEGIC>MOL_PROPERTY
Valence
SciTegic.value.DoubleValue
11.503

@<SCITEGIC>MOL_PROPERTY
Coulomb
SciTegic.value.DoubleValue
0.344

@<SCITEGIC>MOL_PROPERTY
VdW
SciTegic.value.DoubleValue
0.904

@<SCITEGIC>MOL_PROPERTY
VdW6
SciTegic.value.DoubleValue
-10.720

@<SCITEGIC>MOL_PROPERTY
VdW12
SciTegic.value.DoubleValue
11.623

@<SCITEGIC>MOL_PROPERTY
Bond
SciTegic.value.DoubleValue
0.257

@<SCITEGIC>MOL_PROPERTY
Angle
SciTegic.value.DoubleValue
3.380

@<SCITEGIC>MOL_PROPERTY
Pdih
SciTegic.value.DoubleValue
7.866

@<SCITEGIC>MOL_PROPERTY
Idih
SciTegic.value.DoubleValue
0.001

@<SCITEGIC>MOL_PROPERTY
Tether
SciTegic.value.DoubleValue
0.000

@<TRIPOS>MOLECULE
guest-8_vm2.mol2 : vm2 ligand conformer 151
          25          24           1
SMALL
USER_CHARGES
 
@<TRIPOS>ATOM
       1    C1      19.917146   19.412100   27.056200 C.2        1 MOL1         0.6168
       2    O1      20.959433   19.684043   27.619053 O.co2      1 MOL1        -0.6703
       3    O2      18.901027   20.069509   27.167718 O.co2      1 MOL1        -0.6703
       4    C2      19.873617   18.164852   26.177897 C.3        1 MOL1        -0.1963
       5    H1      18.949314   17.626253   26.417714 H          1 MOL1         0.0750
       6    H2      20.705707   17.508652   26.460303 H          1 MOL1         0.0750
       7    C3      19.918677   18.464600   24.657055 C.3        1 MOL1        -0.1860
       8    H3      19.754817   17.530575   24.103045 H          1 MOL1         0.0752
       9    H4      19.089872   19.138961   24.404389 H          1 MOL1         0.0752
      10    C4      21.261294   19.092096   24.216201 C.3        1 MOL1        -0.1858
      11    H5      22.085600   18.468005   24.587430 H          1 MOL1         0.0752
      12    H6      21.382519   20.074790   24.692490 H          1 MOL1         0.0752
      13    C5      21.416529   19.242771   22.682094 C.3        1 MOL1        -0.1858
      14    H7      22.422953   19.638530   22.489572 H          1 MOL1         0.0752
      15    H8      21.391230   18.254089   22.207498 H          1 MOL1         0.0752
      16    C6      20.389035   20.200616   22.022016 C.3        1 MOL1        -0.1858
      17    H9      20.891087   20.765473   21.224744 H          1 MOL1         0.0752
      18    H10     20.065067   20.950363   22.756684 H          1 MOL1         0.0752
      19    C7      19.146975   19.502210   21.414330 C.3        1 MOL1        -0.1834
      20    H11     18.675686   18.841007   22.151576 H          1 MOL1         0.0752
      21    H12     18.400232   20.269138   21.167015 H          1 MOL1         0.0752
      22    C8      19.469266   18.701204   20.133434 C.3        1 MOL1        -0.2849
      23    H13     20.151119   17.867159   20.339228 H          1 MOL1         0.0764
      24    H14     18.551040   18.281476   19.702689 H          1 MOL1         0.0764
      25    H15     19.933691   19.344266   19.374616 H          1 MOL1         0.0764
@<TRIPOS>BOND
    1     1     2    1
    2     1     3    2
    3     1     4    1
    4     4     5    1
    5     4     6    1
    6     4     7    1
    7     7     8    1
    8     7     9    1
    9     7    10    1
   10    10    11    1
   11    10    12    1
   12    10    13    1
   13    13    14    1
   14    13    15    1
   15    13    16    1
   16    16    17    1
   17    16    18    1
   18    16    19    1
   19    19    20    1
   20    19    21    1
   21    19    22    1
   22    22    23    1
   23    22    24    1
   24    22    25    1
@<TRIPOS>SUBSTRUCTURE
       1 MOL1            1 RESIDUE      1      MOL     
@<SCITEGIC>MOL_PROPERTY
VM2 Rank
SciTegic.value.IntegerValue
151

@<SCITEGIC>MOL_PROPERTY
Conf_Id
SciTegic.value.IntegerValue
418

@<SCITEGIC>MOL_PROPERTY
Probability
SciTegic.value.DoubleValue
0.00

@<SCITEGIC>MOL_PROPERTY
Sum Probability
SciTegic.value.DoubleValue
99.99

@<SCITEGIC>MOL_PROPERTY
Delta G
SciTegic.value.DoubleValue
6.311

@<SCITEGIC>MOL_PROPERTY
G
SciTegic.value.DoubleValue
-1.652

@<SCITEGIC>MOL_PROPERTY
E
SciTegic.value.DoubleValue
-26.796

@<SCITEGIC>MOL_PROPERTY
-TS
SciTegic.value.DoubleValue
25.144

@<SCITEGIC>MOL_PROPERTY
U+W
SciTegic.value.DoubleValue
-47.363

@<SCITEGIC>MOL_PROPERTY
U
SciTegic.value.DoubleValue
12.751

@<SCITEGIC>MOL_PROPERTY
W
SciTegic.value.DoubleValue
-60.114

@<SCITEGIC>MOL_PROPERTY
W(PB)
SciTegic.value.DoubleValue
-62.501

@<SCITEGIC>MOL_PROPERTY
W(SA)
SciTegic.value.DoubleValue
2.387

@<SCITEGIC>MOL_PROPERTY
Valence
SciTegic.value.DoubleValue
11.503

@<SCITEGIC>MOL_PROPERTY
Coulomb
SciTegic.value.DoubleValue
0.344

@<SCITEGIC>MOL_PROPERTY
VdW
SciTegic.value.DoubleValue
0.904

@<SCITEGIC>MOL_PROPERTY
VdW6
SciTegic.value.DoubleValue
-10.719

@<SCITEGIC>MOL_PROPERTY
VdW12
SciTegic.value.DoubleValue
11.623

@<SCITEGIC>MOL_PROPERTY
Bond
SciTegic.value.DoubleValue
0.257

@<SCITEGIC>MOL_PROPERTY
Angle
SciTegic.value.DoubleValue
3.378

@<SCITEGIC>MOL_PROPERTY
Pdih
SciTegic.value.DoubleValue
7.868

@<SCITEGIC>MOL_PROPERTY
Idih
SciTegic.value.DoubleValue
0.001

@<SCITEGIC>MOL_PROPERTY
Tether
SciTegic.value.DoubleValue
0.000

@<TRIPOS>MOLECULE
guest-8_vm2.mol2 : vm2 ligand conformer 152
          25          24           1
SMALL
USER_CHARGES
 
@<TRIPOS>ATOM
       1    C1      20.515537   19.705638   26.862305 C.2        1 MOL1         0.6168
       2    O1      21.412188   20.503221   26.671254 O.co2      1 MOL1        -0.6703
       3    O2      20.388752   19.068456   27.889385 O.co2      1 MOL1        -0.6703
       4    C2      19.503357   19.478193   25.745232 C.3        1 MOL1        -0.1963
       5    H1      19.398607   20.419720   25.195587 H          1 MOL1         0.0750
       6    H2      18.532365   19.261759   26.206152 H          1 MOL1         0.0750
       7    C3      19.912813   18.324453   24.792415 C.3        1 MOL1        -0.1860
       8    H3      20.880710   18.556908   24.334023 H          1 MOL1         0.0752
       9    H4      20.071168   17.418670   25.393723 H          1 MOL1         0.0752
      10    C4      18.850817   18.012713   23.707167 C.3        1 MOL1        -0.1858
      11    H5      17.890409   17.838755   24.211293 H          1 MOL1         0.0752
      12    H6      19.101319   17.063779   23.213956 H          1 MOL1         0.0752
      13    C5      18.653601   19.114652   22.631003 C.3        1 MOL1        -0.1858
      14    H7      17.596114   19.102203   22.334243 H          1 MOL1         0.0752
      15    H8      18.823125   20.114021   23.047535 H          1 MOL1         0.0752
      16    C6      19.489678   18.918667   21.338557 C.3        1 MOL1        -0.1858
      17    H9      19.170860   19.667551   20.600882 H          1 MOL1         0.0752
      18    H10     19.241368   17.942633   20.900074 H          1 MOL1         0.0752
      19    C7      21.025175   19.014071   21.501788 C.3        1 MOL1        -0.1834
      20    H11     21.384390   18.220841   22.169224 H          1 MOL1         0.0752
      21    H12     21.491388   18.818905   20.526368 H          1 MOL1         0.0752
      22    C8      21.501081   20.393937   22.006894 C.3        1 MOL1        -0.2849
      23    H13     21.132409   20.600571   23.019375 H          1 MOL1         0.0764
      24    H14     22.597424   20.434549   22.037733 H          1 MOL1         0.0764
      25    H15     21.151034   21.195977   21.344368 H          1 MOL1         0.0764
@<TRIPOS>BOND
    1     1     2    1
    2     1     3    2
    3     1     4    1
    4     4     5    1
    5     4     6    1
    6     4     7    1
    7     7     8    1
    8     7     9    1
    9     7    10    1
   10    10    11    1
   11    10    12    1
   12    10    13    1
   13    13    14    1
   14    13    15    1
   15    13    16    1
   16    16    17    1
   17    16    18    1
   18    16    19    1
   19    19    20    1
   20    19    21    1
   21    19    22    1
   22    22    23    1
   23    22    24    1
   24    22    25    1
@<TRIPOS>SUBSTRUCTURE
       1 MOL1            1 RESIDUE      1      MOL     
@<SCITEGIC>MOL_PROPERTY
VM2 Rank
SciTegic.value.IntegerValue
152

@<SCITEGIC>MOL_PROPERTY
Conf_Id
SciTegic.value.IntegerValue
703

@<SCITEGIC>MOL_PROPERTY
Probability
SciTegic.value.DoubleValue
0.00

@<SCITEGIC>MOL_PROPERTY
Sum Probability
SciTegic.value.DoubleValue
99.99

@<SCITEGIC>MOL_PROPERTY
Delta G
SciTegic.value.DoubleValue
6.325

@<SCITEGIC>MOL_PROPERTY
G
SciTegic.value.DoubleValue
-1.638

@<SCITEGIC>MOL_PROPERTY
E
SciTegic.value.DoubleValue
-27.023

@<SCITEGIC>MOL_PROPERTY
-TS
SciTegic.value.DoubleValue
25.385

@<SCITEGIC>MOL_PROPERTY
U+W
SciTegic.value.DoubleValue
-47.590

@<SCITEGIC>MOL_PROPERTY
U
SciTegic.value.DoubleValue
12.576

@<SCITEGIC>MOL_PROPERTY
W
SciTegic.value.DoubleValue
-60.167

@<SCITEGIC>MOL_PROPERTY
W(PB)
SciTegic.value.DoubleValue
-62.530

@<SCITEGIC>MOL_PROPERTY
W(SA)
SciTegic.value.DoubleValue
2.363

@<SCITEGIC>MOL_PROPERTY
Valence
SciTegic.value.DoubleValue
11.827

@<SCITEGIC>MOL_PROPERTY
Coulomb
SciTegic.value.DoubleValue
0.088

@<SCITEGIC>MOL_PROPERTY
VdW
SciTegic.value.DoubleValue
0.661

@<SCITEGIC>MOL_PROPERTY
VdW6
SciTegic.value.DoubleValue
-11.300

@<SCITEGIC>MOL_PROPERTY
VdW12
SciTegic.value.DoubleValue
11.961

@<SCITEGIC>MOL_PROPERTY
Bond
SciTegic.value.DoubleValue
0.300

@<SCITEGIC>MOL_PROPERTY
Angle
SciTegic.value.DoubleValue
3.988

@<SCITEGIC>MOL_PROPERTY
Pdih
SciTegic.value.DoubleValue
7.540

@<SCITEGIC>MOL_PROPERTY
Idih
SciTegic.value.DoubleValue
0.000

@<SCITEGIC>MOL_PROPERTY
Tether
SciTegic.value.DoubleValue
0.000

@<TRIPOS>MOLECULE
guest-8_vm2.mol2 : vm2 ligand conformer 153
          25          24           1
SMALL
USER_CHARGES
 
@<TRIPOS>ATOM
       1    C1      19.874993   19.234303   27.149256 C.2        1 MOL1         0.6168
       2    O1      20.730708   19.722359   27.861098 O.co2      1 MOL1        -0.6703
       3    O2      18.696149   19.520902   27.221635 O.co2      1 MOL1        -0.6703
       4    C2      20.303873   18.189918   26.122407 C.3        1 MOL1        -0.1963
       5    H1      19.420855   17.615516   25.817166 H          1 MOL1         0.0750
       6    H2      20.978119   17.489865   26.629597 H          1 MOL1         0.0750
       7    C3      21.013646   18.782094   24.876987 C.3        1 MOL1        -0.1860
       8    H3      21.875355   19.381635   25.201507 H          1 MOL1         0.0752
       9    H4      21.414066   17.955176   24.277556 H          1 MOL1         0.0752
      10    C4      20.067644   19.650231   24.011914 C.3        1 MOL1        -0.1858
      11    H5      19.672165   20.467853   24.629856 H          1 MOL1         0.0752
      12    H6      19.201214   19.054180   23.701309 H          1 MOL1         0.0752
      13    C5      20.768296   20.270011   22.776435 C.3        1 MOL1        -0.1858
      14    H7      20.147088   21.081160   22.373078 H          1 MOL1         0.0752
      15    H8      21.698732   20.748736   23.110873 H          1 MOL1         0.0752
      16    C6      21.098784   19.263452   21.641960 C.3        1 MOL1        -0.1858
      17    H9      21.268212   18.258033   22.046513 H          1 MOL1         0.0752
      18    H10     22.051866   19.565051   21.186646 H          1 MOL1         0.0752
      19    C7      20.041944   19.200279   20.511622 C.3        1 MOL1        -0.1834
      20    H11     19.937150   20.191164   20.048623 H          1 MOL1         0.0752
      21    H12     20.413370   18.530738   19.723652 H          1 MOL1         0.0752
      22    C8      18.656964   18.700450   20.972686 C.3        1 MOL1        -0.2849
      23    H13     17.991170   18.564268   20.110772 H          1 MOL1         0.0764
      24    H14     18.739248   17.737483   21.493226 H          1 MOL1         0.0764
      25    H15     18.180628   19.422029   21.647981 H          1 MOL1         0.0764
@<TRIPOS>BOND
    1     1     2    1
    2     1     3    2
    3     1     4    1
    4     4     5    1
    5     4     6    1
    6     4     7    1
    7     7     8    1
    8     7     9    1
    9     7    10    1
   10    10    11    1
   11    10    12    1
   12    10    13    1
   13    13    14    1
   14    13    15    1
   15    13    16    1
   16    16    17    1
   17    16    18    1
   18    16    19    1
   19    19    20    1
   20    19    21    1
   21    19    22    1
   22    22    23    1
   23    22    24    1
   24    22    25    1
@<TRIPOS>SUBSTRUCTURE
       1 MOL1            1 RESIDUE      1      MOL     
@<SCITEGIC>MOL_PROPERTY
VM2 Rank
SciTegic.value.IntegerValue
153

@<SCITEGIC>MOL_PROPERTY
Conf_Id
SciTegic.value.IntegerValue
384

@<SCITEGIC>MOL_PROPERTY
Probability
SciTegic.value.DoubleValue
0.00

@<SCITEGIC>MOL_PROPERTY
Sum Probability
SciTegic.value.DoubleValue
99.99

@<SCITEGIC>MOL_PROPERTY
Delta G
SciTegic.value.DoubleValue
6.389

@<SCITEGIC>MOL_PROPERTY
G
SciTegic.value.DoubleValue
-1.574

@<SCITEGIC>MOL_PROPERTY
E
SciTegic.value.DoubleValue
-26.710

@<SCITEGIC>MOL_PROPERTY
-TS
SciTegic.value.DoubleValue
25.136

@<SCITEGIC>MOL_PROPERTY
U+W
SciTegic.value.DoubleValue
-47.278

@<SCITEGIC>MOL_PROPERTY
U
SciTegic.value.DoubleValue
12.718

@<SCITEGIC>MOL_PROPERTY
W
SciTegic.value.DoubleValue
-59.995

@<SCITEGIC>MOL_PROPERTY
W(PB)
SciTegic.value.DoubleValue
-62.409

@<SCITEGIC>MOL_PROPERTY
W(SA)
SciTegic.value.DoubleValue
2.414

@<SCITEGIC>MOL_PROPERTY
Valence
SciTegic.value.DoubleValue
11.548

@<SCITEGIC>MOL_PROPERTY
Coulomb
SciTegic.value.DoubleValue
0.194

@<SCITEGIC>MOL_PROPERTY
VdW
SciTegic.value.DoubleValue
0.975

@<SCITEGIC>MOL_PROPERTY
VdW6
SciTegic.value.DoubleValue
-10.624

@<SCITEGIC>MOL_PROPERTY
VdW12
SciTegic.value.DoubleValue
11.599

@<SCITEGIC>MOL_PROPERTY
Bond
SciTegic.value.DoubleValue
0.265

@<SCITEGIC>MOL_PROPERTY
Angle
SciTegic.value.DoubleValue
3.381

@<SCITEGIC>MOL_PROPERTY
Pdih
SciTegic.value.DoubleValue
7.902

@<SCITEGIC>MOL_PROPERTY
Idih
SciTegic.value.DoubleValue
0.000

@<SCITEGIC>MOL_PROPERTY
Tether
SciTegic.value.DoubleValue
0.000

@<TRIPOS>MOLECULE
guest-8_vm2.mol2 : vm2 ligand conformer 154
          25          24           1
SMALL
USER_CHARGES
 
@<TRIPOS>ATOM
       1    C1      20.120812   19.519839   27.090617 C.2        1 MOL1         0.6168
       2    O1      21.032292   19.215465   27.834904 O.co2      1 MOL1        -0.6703
       3    O2      18.953446   19.273383   27.322032 O.co2      1 MOL1        -0.6703
       4    C2      20.461569   20.271730   25.807005 C.3        1 MOL1        -0.1963
       5    H1      21.132278   21.094073   26.081965 H          1 MOL1         0.0750
       6    H2      19.546899   20.734020   25.420344 H          1 MOL1         0.0750
       7    C3      21.144359   19.395707   24.720150 C.3        1 MOL1        -0.1860
       8    H3      21.465498   20.039056   23.892722 H          1 MOL1         0.0752
       9    H4      22.062025   18.967396   25.146314 H          1 MOL1         0.0752
      10    C4      20.259312   18.239525   24.184644 C.3        1 MOL1        -0.1858
      11    H5      19.883999   17.661338   25.039990 H          1 MOL1         0.0752
      12    H6      20.881042   17.540437   23.609089 H          1 MOL1         0.0752
      13    C5      19.053297   18.689043   23.317380 C.3        1 MOL1        -0.1858
      14    H7      18.214092   18.012045   23.527320 H          1 MOL1         0.0752
      15    H8      18.707285   19.686964   23.612810 H          1 MOL1         0.0752
      16    C6      19.308465   18.654049   21.789502 C.3        1 MOL1        -0.1858
      17    H9      18.369281   18.905253   21.277990 H          1 MOL1         0.0752
      18    H10     19.560584   17.629383   21.484078 H          1 MOL1         0.0752
      19    C7      20.413710   19.619669   21.309350 C.3        1 MOL1        -0.1834
      20    H11     20.213255   20.631480   21.687701 H          1 MOL1         0.0752
      21    H12     21.384169   19.306518   21.715849 H          1 MOL1         0.0752
      22    C8      20.505737   19.655590   19.770416 C.3        1 MOL1        -0.2849
      23    H13     20.730301   18.659344   19.367433 H          1 MOL1         0.0764
      24    H14     19.561935   20.000030   19.327818 H          1 MOL1         0.0764
      25    H15     21.300996   20.339473   19.446577 H          1 MOL1         0.0764
@<TRIPOS>BOND
    1     1     2    1
    2     1     3    2
    3     1     4    1
    4     4     5    1
    5     4     6    1
    6     4     7    1
    7     7     8    1
    8     7     9    1
    9     7    10    1
   10    10    11    1
   11    10    12    1
   12    10    13    1
   13    13    14    1
   14    13    15    1
   15    13    16    1
   16    16    17    1
   17    16    18    1
   18    16    19    1
   19    19    20    1
   20    19    21    1
   21    19    22    1
   22    22    23    1
   23    22    24    1
   24    22    25    1
@<TRIPOS>SUBSTRUCTURE
       1 MOL1            1 RESIDUE      1      MOL     
@<SCITEGIC>MOL_PROPERTY
VM2 Rank
SciTegic.value.IntegerValue
154

@<SCITEGIC>MOL_PROPERTY
Conf_Id
SciTegic.value.IntegerValue
1118

@<SCITEGIC>MOL_PROPERTY
Probability
SciTegic.value.DoubleValue
0.00

@<SCITEGIC>MOL_PROPERTY
Sum Probability
SciTegic.value.DoubleValue
99.99

@<SCITEGIC>MOL_PROPERTY
Delta G
SciTegic.value.DoubleValue
6.394

@<SCITEGIC>MOL_PROPERTY
G
SciTegic.value.DoubleValue
-1.568

@<SCITEGIC>MOL_PROPERTY
E
SciTegic.value.DoubleValue
-26.654

@<SCITEGIC>MOL_PROPERTY
-TS
SciTegic.value.DoubleValue
25.086

@<SCITEGIC>MOL_PROPERTY
U+W
SciTegic.value.DoubleValue
-47.221

@<SCITEGIC>MOL_PROPERTY
U
SciTegic.value.DoubleValue
12.590

@<SCITEGIC>MOL_PROPERTY
W
SciTegic.value.DoubleValue
-59.811

@<SCITEGIC>MOL_PROPERTY
W(PB)
SciTegic.value.DoubleValue
-62.229

@<SCITEGIC>MOL_PROPERTY
W(SA)
SciTegic.value.DoubleValue
2.418

@<SCITEGIC>MOL_PROPERTY
Valence
SciTegic.value.DoubleValue
11.587

@<SCITEGIC>MOL_PROPERTY
Coulomb
SciTegic.value.DoubleValue
0.121

@<SCITEGIC>MOL_PROPERTY
VdW
SciTegic.value.DoubleValue
0.881

@<SCITEGIC>MOL_PROPERTY
VdW6
SciTegic.value.DoubleValue
-10.830

@<SCITEGIC>MOL_PROPERTY
VdW12
SciTegic.value.DoubleValue
11.711

@<SCITEGIC>MOL_PROPERTY
Bond
SciTegic.value.DoubleValue
0.286

@<SCITEGIC>MOL_PROPERTY
Angle
SciTegic.value.DoubleValue
3.540

@<SCITEGIC>MOL_PROPERTY
Pdih
SciTegic.value.DoubleValue
7.760

@<SCITEGIC>MOL_PROPERTY
Idih
SciTegic.value.DoubleValue
0.001

@<SCITEGIC>MOL_PROPERTY
Tether
SciTegic.value.DoubleValue
0.000

@<TRIPOS>MOLECULE
guest-8_vm2.mol2 : vm2 ligand conformer 155
          25          24           1
SMALL
USER_CHARGES
 
@<TRIPOS>ATOM
       1    C1      19.866712   19.298559   27.148230 C.2        1 MOL1         0.6168
       2    O1      20.814676   19.063010   27.871451 O.co2      1 MOL1        -0.6703
       3    O2      18.797097   18.727963   27.234227 O.co2      1 MOL1        -0.6703
       4    C2      20.024260   20.384213   26.087270 C.3        1 MOL1        -0.1963
       5    H1      20.499382   21.246571   26.569472 H          1 MOL1         0.0750
       6    H2      19.026690   20.708974   25.767558 H          1 MOL1         0.0750
       7    C3      20.864905   19.949968   24.858341 C.3        1 MOL1        -0.1860
       8    H3      21.047601   20.831540   24.231525 H          1 MOL1         0.0752
       9    H4      21.848099   19.596215   25.198180 H          1 MOL1         0.0752
      10    C4      20.170362   18.845501   24.024862 C.3        1 MOL1        -0.1858
      11    H5      19.183372   19.195083   23.699133 H          1 MOL1         0.0752
      12    H6      19.990146   17.974698   24.669833 H          1 MOL1         0.0752
      13    C5      21.009017   18.382708   22.806696 C.3        1 MOL1        -0.1858
      14    H7      22.028475   18.163555   23.152263 H          1 MOL1         0.0752
      15    H8      20.612824   17.429335   22.431636 H          1 MOL1         0.0752
      16    C6      21.080858   19.403713   21.639733 C.3        1 MOL1        -0.1858
      17    H9      22.080942   19.336765   21.190306 H          1 MOL1         0.0752
      18    H10     20.990900   20.431713   22.011703 H          1 MOL1         0.0752
      19    C7      20.046520   19.163949   20.512251 C.3        1 MOL1        -0.1834
      20    H11     20.241147   19.880108   19.702079 H          1 MOL1         0.0752
      21    H12     20.195642   18.164398   20.081133 H          1 MOL1         0.0752
      22    C8      18.578592   19.314417   20.962941 C.3        1 MOL1        -0.2849
      23    H13     18.414445   20.283144   21.452495 H          1 MOL1         0.0764
      24    H14     17.903379   19.251839   20.099869 H          1 MOL1         0.0764
      25    H15     18.295944   18.518060   21.662600 H          1 MOL1         0.0764
@<TRIPOS>BOND
    1     1     2    1
    2     1     3    2
    3     1     4    1
    4     4     5    1
    5     4     6    1
    6     4     7    1
    7     7     8    1
    8     7     9    1
    9     7    10    1
   10    10    11    1
   11    10    12    1
   12    10    13    1
   13    13    14    1
   14    13    15    1
   15    13    16    1
   16    16    17    1
   17    16    18    1
   18    16    19    1
   19    19    20    1
   20    19    21    1
   21    19    22    1
   22    22    23    1
   23    22    24    1
   24    22    25    1
@<TRIPOS>SUBSTRUCTURE
       1 MOL1            1 RESIDUE      1      MOL     
@<SCITEGIC>MOL_PROPERTY
VM2 Rank
SciTegic.value.IntegerValue
155

@<SCITEGIC>MOL_PROPERTY
Conf_Id
SciTegic.value.IntegerValue
657

@<SCITEGIC>MOL_PROPERTY
Probability
SciTegic.value.DoubleValue
0.00

@<SCITEGIC>MOL_PROPERTY
Sum Probability
SciTegic.value.DoubleValue
99.99

@<SCITEGIC>MOL_PROPERTY
Delta G
SciTegic.value.DoubleValue
6.405

@<SCITEGIC>MOL_PROPERTY
G
SciTegic.value.DoubleValue
-1.558

@<SCITEGIC>MOL_PROPERTY
E
SciTegic.value.DoubleValue
-26.694

@<SCITEGIC>MOL_PROPERTY
-TS
SciTegic.value.DoubleValue
25.136

@<SCITEGIC>MOL_PROPERTY
U+W
SciTegic.value.DoubleValue
-47.262

@<SCITEGIC>MOL_PROPERTY
U
SciTegic.value.DoubleValue
12.718

@<SCITEGIC>MOL_PROPERTY
W
SciTegic.value.DoubleValue
-59.980

@<SCITEGIC>MOL_PROPERTY
W(PB)
SciTegic.value.DoubleValue
-62.376

@<SCITEGIC>MOL_PROPERTY
W(SA)
SciTegic.value.DoubleValue
2.397

@<SCITEGIC>MOL_PROPERTY
Valence
SciTegic.value.DoubleValue
11.548

@<SCITEGIC>MOL_PROPERTY
Coulomb
SciTegic.value.DoubleValue
0.195

@<SCITEGIC>MOL_PROPERTY
VdW
SciTegic.value.DoubleValue
0.975

@<SCITEGIC>MOL_PROPERTY
VdW6
SciTegic.value.DoubleValue
-10.625

@<SCITEGIC>MOL_PROPERTY
VdW12
SciTegic.value.DoubleValue
11.599

@<SCITEGIC>MOL_PROPERTY
Bond
SciTegic.value.DoubleValue
0.265

@<SCITEGIC>MOL_PROPERTY
Angle
SciTegic.value.DoubleValue
3.381

@<SCITEGIC>MOL_PROPERTY
Pdih
SciTegic.value.DoubleValue
7.902

@<SCITEGIC>MOL_PROPERTY
Idih
SciTegic.value.DoubleValue
0.001

@<SCITEGIC>MOL_PROPERTY
Tether
SciTegic.value.DoubleValue
0.000

@<TRIPOS>MOLECULE
guest-8_vm2.mol2 : vm2 ligand conformer 156
          25          24           1
SMALL
USER_CHARGES
 
@<TRIPOS>ATOM
       1    C1      20.290165   19.812128   26.397218 C.2        1 MOL1         0.6168
       2    O1      21.292223   20.453499   26.147743 O.co2      1 MOL1        -0.6703
       3    O2      19.250565   20.313184   26.779022 O.co2      1 MOL1        -0.6703
       4    C2      20.375688   18.288691   26.333247 C.3        1 MOL1        -0.1963
       5    H1      19.451863   17.862185   26.742181 H          1 MOL1         0.0750
       6    H2      21.183505   17.996622   27.014206 H          1 MOL1         0.0750
       7    C3      20.665793   17.699171   24.924306 C.3        1 MOL1        -0.1860
       8    H3      21.458312   18.275969   24.429187 H          1 MOL1         0.0752
       9    H4      21.076145   16.689700   25.061151 H          1 MOL1         0.0752
      10    C4      19.422117   17.575440   24.005917 C.3        1 MOL1        -0.1858
      11    H5      18.658671   16.977251   24.521455 H          1 MOL1         0.0752
      12    H6      19.698365   16.993598   23.116918 H          1 MOL1         0.0752
      13    C5      18.781137   18.912738   23.552729 C.3        1 MOL1        -0.1858
      14    H7      17.921345   18.685849   22.908080 H          1 MOL1         0.0752
      15    H8      18.364742   19.431444   24.425371 H          1 MOL1         0.0752
      16    C6      19.726754   19.878800   22.795277 C.3        1 MOL1        -0.1858
      17    H9      20.546261   20.195395   23.453709 H          1 MOL1         0.0752
      18    H10     19.165158   20.790875   22.552213 H          1 MOL1         0.0752
      19    C7      20.304568   19.281919   21.492209 C.3        1 MOL1        -0.1834
      20    H11     20.934714   18.413148   21.724063 H          1 MOL1         0.0752
      21    H12     19.485587   18.923938   20.853380 H          1 MOL1         0.0752
      22    C8      21.143990   20.318431   20.718334 C.3        1 MOL1        -0.2849
      23    H13     21.986191   20.673233   21.326812 H          1 MOL1         0.0764
      24    H14     21.551323   19.877924   19.799105 H          1 MOL1         0.0764
      25    H15     20.534322   21.186965   20.436906 H          1 MOL1         0.0764
@<TRIPOS>BOND
    1     1     2    1
    2     1     3    2
    3     1     4    1
    4     4     5    1
    5     4     6    1
    6     4     7    1
    7     7     8    1
    8     7     9    1
    9     7    10    1
   10    10    11    1
   11    10    12    1
   12    10    13    1
   13    13    14    1
   14    13    15    1
   15    13    16    1
   16    16    17    1
   17    16    18    1
   18    16    19    1
   19    19    20    1
   20    19    21    1
   21    19    22    1
   22    22    23    1
   23    22    24    1
   24    22    25    1
@<TRIPOS>SUBSTRUCTURE
       1 MOL1            1 RESIDUE      1      MOL     
@<SCITEGIC>MOL_PROPERTY
VM2 Rank
SciTegic.value.IntegerValue
156

@<SCITEGIC>MOL_PROPERTY
Conf_Id
SciTegic.value.IntegerValue
524

@<SCITEGIC>MOL_PROPERTY
Probability
SciTegic.value.DoubleValue
0.00

@<SCITEGIC>MOL_PROPERTY
Sum Probability
SciTegic.value.DoubleValue
99.99

@<SCITEGIC>MOL_PROPERTY
Delta G
SciTegic.value.DoubleValue
6.407

@<SCITEGIC>MOL_PROPERTY
G
SciTegic.value.DoubleValue
-1.555

@<SCITEGIC>MOL_PROPERTY
E
SciTegic.value.DoubleValue
-27.544

@<SCITEGIC>MOL_PROPERTY
-TS
SciTegic.value.DoubleValue
25.989

@<SCITEGIC>MOL_PROPERTY
U+W
SciTegic.value.DoubleValue
-48.112

@<SCITEGIC>MOL_PROPERTY
U
SciTegic.value.DoubleValue
13.027

@<SCITEGIC>MOL_PROPERTY
W
SciTegic.value.DoubleValue
-61.139

@<SCITEGIC>MOL_PROPERTY
W(PB)
SciTegic.value.DoubleValue
-63.503

@<SCITEGIC>MOL_PROPERTY
W(SA)
SciTegic.value.DoubleValue
2.364

@<SCITEGIC>MOL_PROPERTY
Valence
SciTegic.value.DoubleValue
10.559

@<SCITEGIC>MOL_PROPERTY
Coulomb
SciTegic.value.DoubleValue
2.239

@<SCITEGIC>MOL_PROPERTY
VdW
SciTegic.value.DoubleValue
0.229

@<SCITEGIC>MOL_PROPERTY
VdW6
SciTegic.value.DoubleValue
-12.344

@<SCITEGIC>MOL_PROPERTY
VdW12
SciTegic.value.DoubleValue
12.573

@<SCITEGIC>MOL_PROPERTY
Bond
SciTegic.value.DoubleValue
0.282

@<SCITEGIC>MOL_PROPERTY
Angle
SciTegic.value.DoubleValue
4.052

@<SCITEGIC>MOL_PROPERTY
Pdih
SciTegic.value.DoubleValue
6.208

@<SCITEGIC>MOL_PROPERTY
Idih
SciTegic.value.DoubleValue
0.016

@<SCITEGIC>MOL_PROPERTY
Tether
SciTegic.value.DoubleValue
0.000

@<TRIPOS>MOLECULE
guest-8_vm2.mol2 : vm2 ligand conformer 157
          25          24           1
SMALL
USER_CHARGES
 
@<TRIPOS>ATOM
       1    C1      20.108937   19.154966   27.101700 C.2        1 MOL1         0.6168
       2    O1      21.039986   19.442575   27.828220 O.co2      1 MOL1        -0.6703
       3    O2      18.960774   19.490975   27.315841 O.co2      1 MOL1        -0.6703
       4    C2      20.396798   18.306630   25.866153 C.3        1 MOL1        -0.1963
       5    H1      19.452899   17.883107   25.506257 H          1 MOL1         0.0750
       6    H2      21.012594   17.459961   26.191191 H          1 MOL1         0.0750
       7    C3      21.133381   19.069091   24.729947 C.3        1 MOL1        -0.1860
       8    H3      22.078034   19.461100   25.131367 H          1 MOL1         0.0752
       9    H4      21.409931   18.357523   23.943273 H          1 MOL1         0.0752
      10    C4      20.324988   20.246575   24.124260 C.3        1 MOL1        -0.1858
      11    H5      20.990096   20.867637   23.509077 H          1 MOL1         0.0752
      12    H6      19.989982   20.898379   24.942611 H          1 MOL1         0.0752
      13    C5      19.090488   19.825793   23.283050 C.3        1 MOL1        -0.1858
      14    H7      18.680484   18.872147   23.637035 H          1 MOL1         0.0752
      15    H8      18.297786   20.567615   23.450350 H          1 MOL1         0.0752
      16    C6      19.344505   19.752399   21.756342 C.3        1 MOL1        -0.1858
      17    H9      19.662568   20.738222   21.390588 H          1 MOL1         0.0752
      18    H10     18.389926   19.533001   21.258890 H          1 MOL1         0.0752
      19    C7      20.383269   18.689483   21.337157 C.3        1 MOL1        -0.1834
      20    H11     21.372904   18.962211   21.726178 H          1 MOL1         0.0752
      21    H12     20.117708   17.717443   21.775004 H          1 MOL1         0.0752
      22    C8      20.469873   18.555512   19.803329 C.3        1 MOL1        -0.2849
      23    H13     20.758501   19.508973   19.341879 H          1 MOL1         0.0764
      24    H14     21.217990   17.802816   19.522665 H          1 MOL1         0.0764
      25    H15     19.504700   18.247781   19.380201 H          1 MOL1         0.0764
@<TRIPOS>BOND
    1     1     2    1
    2     1     3    2
    3     1     4    1
    4     4     5    1
    5     4     6    1
    6     4     7    1
    7     7     8    1
    8     7     9    1
    9     7    10    1
   10    10    11    1
   11    10    12    1
   12    10    13    1
   13    13    14    1
   14    13    15    1
   15    13    16    1
   16    16    17    1
   17    16    18    1
   18    16    19    1
   19    19    20    1
   20    19    21    1
   21    19    22    1
   22    22    23    1
   23    22    24    1
   24    22    25    1
@<TRIPOS>SUBSTRUCTURE
       1 MOL1            1 RESIDUE      1      MOL     
@<SCITEGIC>MOL_PROPERTY
VM2 Rank
SciTegic.value.IntegerValue
157

@<SCITEGIC>MOL_PROPERTY
Conf_Id
SciTegic.value.IntegerValue
221

@<SCITEGIC>MOL_PROPERTY
Probability
SciTegic.value.DoubleValue
0.00

@<SCITEGIC>MOL_PROPERTY
Sum Probability
SciTegic.value.DoubleValue
100.00

@<SCITEGIC>MOL_PROPERTY
Delta G
SciTegic.value.DoubleValue
6.443

@<SCITEGIC>MOL_PROPERTY
G
SciTegic.value.DoubleValue
-1.519

@<SCITEGIC>MOL_PROPERTY
E
SciTegic.value.DoubleValue
-26.606

@<SCITEGIC>MOL_PROPERTY
-TS
SciTegic.value.DoubleValue
25.086

@<SCITEGIC>MOL_PROPERTY
U+W
SciTegic.value.DoubleValue
-47.174

@<SCITEGIC>MOL_PROPERTY
U
SciTegic.value.DoubleValue
12.589

@<SCITEGIC>MOL_PROPERTY
W
SciTegic.value.DoubleValue
-59.762

@<SCITEGIC>MOL_PROPERTY
W(PB)
SciTegic.value.DoubleValue
-62.181

@<SCITEGIC>MOL_PROPERTY
W(SA)
SciTegic.value.DoubleValue
2.419

@<SCITEGIC>MOL_PROPERTY
Valence
SciTegic.value.DoubleValue
11.588

@<SCITEGIC>MOL_PROPERTY
Coulomb
SciTegic.value.DoubleValue
0.120

@<SCITEGIC>MOL_PROPERTY
VdW
SciTegic.value.DoubleValue
0.881

@<SCITEGIC>MOL_PROPERTY
VdW6
SciTegic.value.DoubleValue
-10.829

@<SCITEGIC>MOL_PROPERTY
VdW12
SciTegic.value.DoubleValue
11.710

@<SCITEGIC>MOL_PROPERTY
Bond
SciTegic.value.DoubleValue
0.286

@<SCITEGIC>MOL_PROPERTY
Angle
SciTegic.value.DoubleValue
3.540

@<SCITEGIC>MOL_PROPERTY
Pdih
SciTegic.value.DoubleValue
7.761

@<SCITEGIC>MOL_PROPERTY
Idih
SciTegic.value.DoubleValue
0.001

@<SCITEGIC>MOL_PROPERTY
Tether
SciTegic.value.DoubleValue
0.000

@<TRIPOS>MOLECULE
guest-8_vm2.mol2 : vm2 ligand conformer 158
          25          24           1
SMALL
USER_CHARGES
 
@<TRIPOS>ATOM
       1    C1      20.075057   19.509214   27.106611 C.2        1 MOL1         0.6168
       2    O1      21.152359   19.151033   27.540461 O.co2      1 MOL1        -0.6703
       3    O2      19.012472   19.213272   27.617015 O.co2      1 MOL1        -0.6703
       4    C2      20.053840   20.395387   25.864323 C.3        1 MOL1        -0.1963
       5    H1      21.046399   20.844130   25.736989 H          1 MOL1         0.0750
       6    H2      19.356475   21.218139   26.060943 H          1 MOL1         0.0750
       7    C3      19.630512   19.656826   24.567961 C.3        1 MOL1        -0.1860
       8    H3      18.649950   19.186018   24.723043 H          1 MOL1         0.0752
       9    H4      19.497806   20.397707   23.771790 H          1 MOL1         0.0752
      10    C4      20.659867   18.586227   24.131271 C.3        1 MOL1        -0.1858
      11    H5      20.752039   17.847380   24.939162 H          1 MOL1         0.0752
      12    H6      21.654767   19.037783   24.017870 H          1 MOL1         0.0752
      13    C5      20.262874   17.837758   22.832934 C.3        1 MOL1        -0.1858
      14    H7      20.588459   16.793662   22.935593 H          1 MOL1         0.0752
      15    H8      19.170647   17.793504   22.731693 H          1 MOL1         0.0752
      16    C6      20.912735   18.394050   21.538342 C.3        1 MOL1        -0.1858
      17    H9      20.674778   17.715246   20.708131 H          1 MOL1         0.0752
      18    H10     22.005118   18.360115   21.648723 H          1 MOL1         0.0752
      19    C7      20.498948   19.829120   21.134829 C.3        1 MOL1        -0.1834
      20    H11     20.783268   20.540031   21.920841 H          1 MOL1         0.0752
      21    H12     21.073791   20.119964   20.244943 H          1 MOL1         0.0752
      22    C8      18.994335   19.961112   20.812252 C.3        1 MOL1        -0.2849
      23    H13     18.702063   19.264041   20.016302 H          1 MOL1         0.0764
      24    H14     18.374470   19.753526   21.692968 H          1 MOL1         0.0764
      25    H15     18.761932   20.978672   20.472824 H          1 MOL1         0.0764
@<TRIPOS>BOND
    1     1     2    1
    2     1     3    2
    3     1     4    1
    4     4     5    1
    5     4     6    1
    6     4     7    1
    7     7     8    1
    8     7     9    1
    9     7    10    1
   10    10    11    1
   11    10    12    1
   12    10    13    1
   13    13    14    1
   14    13    15    1
   15    13    16    1
   16    16    17    1
   17    16    18    1
   18    16    19    1
   19    19    20    1
   20    19    21    1
   21    19    22    1
   22    22    23    1
   23    22    24    1
   24    22    25    1
@<TRIPOS>SUBSTRUCTURE
       1 MOL1            1 RESIDUE      1      MOL     
@<SCITEGIC>MOL_PROPERTY
VM2 Rank
SciTegic.value.IntegerValue
158

@<SCITEGIC>MOL_PROPERTY
Conf_Id
SciTegic.value.IntegerValue
286

@<SCITEGIC>MOL_PROPERTY
Probability
SciTegic.value.DoubleValue
0.00

@<SCITEGIC>MOL_PROPERTY
Sum Probability
SciTegic.value.DoubleValue
100.00

@<SCITEGIC>MOL_PROPERTY
Delta G
SciTegic.value.DoubleValue
6.483

@<SCITEGIC>MOL_PROPERTY
G
SciTegic.value.DoubleValue
-1.479

@<SCITEGIC>MOL_PROPERTY
E
SciTegic.value.DoubleValue
-26.985

@<SCITEGIC>MOL_PROPERTY
-TS
SciTegic.value.DoubleValue
25.505

@<SCITEGIC>MOL_PROPERTY
U+W
SciTegic.value.DoubleValue
-47.552

@<SCITEGIC>MOL_PROPERTY
U
SciTegic.value.DoubleValue
12.398

@<SCITEGIC>MOL_PROPERTY
W
SciTegic.value.DoubleValue
-59.950

@<SCITEGIC>MOL_PROPERTY
W(PB)
SciTegic.value.DoubleValue
-62.336

@<SCITEGIC>MOL_PROPERTY
W(SA)
SciTegic.value.DoubleValue
2.386

@<SCITEGIC>MOL_PROPERTY
Valence
SciTegic.value.DoubleValue
11.446

@<SCITEGIC>MOL_PROPERTY
Coulomb
SciTegic.value.DoubleValue
0.281

@<SCITEGIC>MOL_PROPERTY
VdW
SciTegic.value.DoubleValue
0.670

@<SCITEGIC>MOL_PROPERTY
VdW6
SciTegic.value.DoubleValue
-11.120

@<SCITEGIC>MOL_PROPERTY
VdW12
SciTegic.value.DoubleValue
11.790

@<SCITEGIC>MOL_PROPERTY
Bond
SciTegic.value.DoubleValue
0.259

@<SCITEGIC>MOL_PROPERTY
Angle
SciTegic.value.DoubleValue
3.688

@<SCITEGIC>MOL_PROPERTY
Pdih
SciTegic.value.DoubleValue
7.498

@<SCITEGIC>MOL_PROPERTY
Idih
SciTegic.value.DoubleValue
0.001

@<SCITEGIC>MOL_PROPERTY
Tether
SciTegic.value.DoubleValue
0.000

@<TRIPOS>MOLECULE
guest-8_vm2.mol2 : vm2 ligand conformer 159
          25          24           1
SMALL
USER_CHARGES
 
@<TRIPOS>ATOM
       1    C1      20.123740   19.783577   26.750404 C.2        1 MOL1         0.6168
       2    O1      21.281299   20.153494   26.768987 O.co2      1 MOL1        -0.6703
       3    O2      19.535492   19.367127   27.729226 O.co2      1 MOL1        -0.6703
       4    C2      19.356824   19.869806   25.433970 C.3        1 MOL1        -0.1963
       5    H1      19.909913   20.524721   24.751877 H          1 MOL1         0.0750
       6    H2      18.404481   20.370561   25.643087 H          1 MOL1         0.0750
       7    C3      19.079387   18.491981   24.772095 C.3        1 MOL1        -0.1860
       8    H3      18.495766   17.879846   25.473375 H          1 MOL1         0.0752
       9    H4      18.439894   18.625025   23.890897 H          1 MOL1         0.0752
      10    C4      20.354733   17.707119   24.376466 C.3        1 MOL1        -0.1858
      11    H5      20.056136   16.728329   23.977304 H          1 MOL1         0.0752
      12    H6      20.933066   17.493396   25.285791 H          1 MOL1         0.0752
      13    C5      21.290175   18.400727   23.351435 C.3        1 MOL1        -0.1858
      14    H7      21.665912   19.352216   23.750513 H          1 MOL1         0.0752
      15    H8      22.177329   17.762344   23.241789 H          1 MOL1         0.0752
      16    C6      20.677498   18.601987   21.941363 C.3        1 MOL1        -0.1858
      17    H9      19.940911   17.813967   21.733813 H          1 MOL1         0.0752
      18    H10     21.476856   18.475524   21.198439 H          1 MOL1         0.0752
      19    C7      20.044983   19.996662   21.729224 C.3        1 MOL1        -0.1834
      20    H11     19.224061   20.159304   22.436728 H          1 MOL1         0.0752
      21    H12     20.793854   20.775413   21.928660 H          1 MOL1         0.0752
      22    C8      19.508868   20.161522   20.292830 C.3        1 MOL1        -0.2849
      23    H13     18.735501   19.413417   20.074763 H          1 MOL1         0.0764
      24    H14     19.065660   21.156602   20.157291 H          1 MOL1         0.0764
      25    H15     20.314929   20.046422   19.556423 H          1 MOL1         0.0764
@<TRIPOS>BOND
    1     1     2    1
    2     1     3    2
    3     1     4    1
    4     4     5    1
    5     4     6    1
    6     4     7    1
    7     7     8    1
    8     7     9    1
    9     7    10    1
   10    10    11    1
   11    10    12    1
   12    10    13    1
   13    13    14    1
   14    13    15    1
   15    13    16    1
   16    16    17    1
   17    16    18    1
   18    16    19    1
   19    19    20    1
   20    19    21    1
   21    19    22    1
   22    22    23    1
   23    22    24    1
   24    22    25    1
@<TRIPOS>SUBSTRUCTURE
       1 MOL1            1 RESIDUE      1      MOL     
@<SCITEGIC>MOL_PROPERTY
VM2 Rank
SciTegic.value.IntegerValue
159

@<SCITEGIC>MOL_PROPERTY
Conf_Id
SciTegic.value.IntegerValue
727

@<SCITEGIC>MOL_PROPERTY
Probability
SciTegic.value.DoubleValue
0.00

@<SCITEGIC>MOL_PROPERTY
Sum Probability
SciTegic.value.DoubleValue
100.00

@<SCITEGIC>MOL_PROPERTY
Delta G
SciTegic.value.DoubleValue
6.518

@<SCITEGIC>MOL_PROPERTY
G
SciTegic.value.DoubleValue
-1.444

@<SCITEGIC>MOL_PROPERTY
E
SciTegic.value.DoubleValue
-27.002

@<SCITEGIC>MOL_PROPERTY
-TS
SciTegic.value.DoubleValue
25.558

@<SCITEGIC>MOL_PROPERTY
U+W
SciTegic.value.DoubleValue
-47.570

@<SCITEGIC>MOL_PROPERTY
U
SciTegic.value.DoubleValue
12.713

@<SCITEGIC>MOL_PROPERTY
W
SciTegic.value.DoubleValue
-60.283

@<SCITEGIC>MOL_PROPERTY
W(PB)
SciTegic.value.DoubleValue
-62.652

@<SCITEGIC>MOL_PROPERTY
W(SA)
SciTegic.value.DoubleValue
2.369

@<SCITEGIC>MOL_PROPERTY
Valence
SciTegic.value.DoubleValue
11.394

@<SCITEGIC>MOL_PROPERTY
Coulomb
SciTegic.value.DoubleValue
0.936

@<SCITEGIC>MOL_PROPERTY
VdW
SciTegic.value.DoubleValue
0.383

@<SCITEGIC>MOL_PROPERTY
VdW6
SciTegic.value.DoubleValue
-11.631

@<SCITEGIC>MOL_PROPERTY
VdW12
SciTegic.value.DoubleValue
12.014

@<SCITEGIC>MOL_PROPERTY
Bond
SciTegic.value.DoubleValue
0.274

@<SCITEGIC>MOL_PROPERTY
Angle
SciTegic.value.DoubleValue
3.833

@<SCITEGIC>MOL_PROPERTY
Pdih
SciTegic.value.DoubleValue
7.287

@<SCITEGIC>MOL_PROPERTY
Idih
SciTegic.value.DoubleValue
0.001

@<SCITEGIC>MOL_PROPERTY
Tether
SciTegic.value.DoubleValue
0.000

@<TRIPOS>MOLECULE
guest-8_vm2.mol2 : vm2 ligand conformer 160
          25          24           1
SMALL
USER_CHARGES
 
@<TRIPOS>ATOM
       1    C1      20.087066   19.829745   26.619298 C.2        1 MOL1         0.6168
       2    O1      21.070039   20.233826   27.209276 O.co2      1 MOL1        -0.6703
       3    O2      19.175967   20.548865   26.259155 O.co2      1 MOL1        -0.6703
       4    C2      19.977655   18.331961   26.346974 C.3        1 MOL1        -0.1963
       5    H1      18.945348   18.102156   26.059389 H          1 MOL1         0.0750
       6    H2      20.158136   17.814276   27.296191 H          1 MOL1         0.0750
       7    C3      20.973802   17.806514   25.277271 C.3        1 MOL1        -0.1860
       8    H3      21.998648   17.989525   25.628671 H          1 MOL1         0.0752
       9    H4      20.868200   16.716682   25.191270 H          1 MOL1         0.0752
      10    C4      20.804349   18.447673   23.878086 C.3        1 MOL1        -0.1858
      11    H5      21.587938   18.055621   23.215796 H          1 MOL1         0.0752
      12    H6      20.968353   19.530471   23.955034 H          1 MOL1         0.0752
      13    C5      19.420666   18.175647   23.242942 C.3        1 MOL1        -0.1858
      14    H7      19.193142   17.104399   23.326968 H          1 MOL1         0.0752
      15    H8      18.643793   18.704544   23.811241 H          1 MOL1         0.0752
      16    C6      19.316976   18.580709   21.750977 C.3        1 MOL1        -0.1858
      17    H9      18.320146   18.283729   21.397550 H          1 MOL1         0.0752
      18    H10     20.031318   18.000540   21.151071 H          1 MOL1         0.0752
      19    C7      19.492028   20.095855   21.478848 C.3        1 MOL1        -0.1834
      20    H11     18.825302   20.383341   20.654208 H          1 MOL1         0.0752
      21    H12     19.167420   20.678954   22.352067 H          1 MOL1         0.0752
      22    C8      20.934450   20.483204   21.083173 C.3        1 MOL1        -0.2849
      23    H13     21.651966   20.250354   21.877967 H          1 MOL1         0.0764
      24    H14     21.247489   19.949651   20.176353 H          1 MOL1         0.0764
      25    H15     20.999969   21.559631   20.878778 H          1 MOL1         0.0764
@<TRIPOS>BOND
    1     1     2    1
    2     1     3    2
    3     1     4    1
    4     4     5    1
    5     4     6    1
    6     4     7    1
    7     7     8    1
    8     7     9    1
    9     7    10    1
   10    10    11    1
   11    10    12    1
   12    10    13    1
   13    13    14    1
   14    13    15    1
   15    13    16    1
   16    16    17    1
   17    16    18    1
   18    16    19    1
   19    19    20    1
   20    19    21    1
   21    19    22    1
   22    22    23    1
   23    22    24    1
   24    22    25    1
@<TRIPOS>SUBSTRUCTURE
       1 MOL1            1 RESIDUE      1      MOL     
@<SCITEGIC>MOL_PROPERTY
VM2 Rank
SciTegic.value.IntegerValue
160

@<SCITEGIC>MOL_PROPERTY
Conf_Id
SciTegic.value.IntegerValue
849

@<SCITEGIC>MOL_PROPERTY
Probability
SciTegic.value.DoubleValue
0.00

@<SCITEGIC>MOL_PROPERTY
Sum Probability
SciTegic.value.DoubleValue
100.00

@<SCITEGIC>MOL_PROPERTY
Delta G
SciTegic.value.DoubleValue
6.611

@<SCITEGIC>MOL_PROPERTY
G
SciTegic.value.DoubleValue
-1.351

@<SCITEGIC>MOL_PROPERTY
E
SciTegic.value.DoubleValue
-26.594

@<SCITEGIC>MOL_PROPERTY
-TS
SciTegic.value.DoubleValue
25.243

@<SCITEGIC>MOL_PROPERTY
U+W
SciTegic.value.DoubleValue
-47.162

@<SCITEGIC>MOL_PROPERTY
U
SciTegic.value.DoubleValue
13.833

@<SCITEGIC>MOL_PROPERTY
W
SciTegic.value.DoubleValue
-60.995

@<SCITEGIC>MOL_PROPERTY
W(PB)
SciTegic.value.DoubleValue
-63.364

@<SCITEGIC>MOL_PROPERTY
W(SA)
SciTegic.value.DoubleValue
2.370

@<SCITEGIC>MOL_PROPERTY
Valence
SciTegic.value.DoubleValue
11.236

@<SCITEGIC>MOL_PROPERTY
Coulomb
SciTegic.value.DoubleValue
1.973

@<SCITEGIC>MOL_PROPERTY
VdW
SciTegic.value.DoubleValue
0.624

@<SCITEGIC>MOL_PROPERTY
VdW6
SciTegic.value.DoubleValue
-11.284

@<SCITEGIC>MOL_PROPERTY
VdW12
SciTegic.value.DoubleValue
11.908

@<SCITEGIC>MOL_PROPERTY
Bond
SciTegic.value.DoubleValue
0.259

@<SCITEGIC>MOL_PROPERTY
Angle
SciTegic.value.DoubleValue
3.439

@<SCITEGIC>MOL_PROPERTY
Pdih
SciTegic.value.DoubleValue
7.536

@<SCITEGIC>MOL_PROPERTY
Idih
SciTegic.value.DoubleValue
0.001

@<SCITEGIC>MOL_PROPERTY
Tether
SciTegic.value.DoubleValue
0.000

@<TRIPOS>MOLECULE
guest-8_vm2.mol2 : vm2 ligand conformer 161
          25          24           1
SMALL
USER_CHARGES
 
@<TRIPOS>ATOM
       1    C1      20.091775   19.829337   26.735724 C.2        1 MOL1         0.6168
       2    O1      21.074080   20.539342   26.825803 O.co2      1 MOL1        -0.6703
       3    O2      18.953058   20.237962   26.851654 O.co2      1 MOL1        -0.6703
       4    C2      20.303297   18.337532   26.492464 C.3        1 MOL1        -0.1963
       5    H1      19.392276   17.802190   26.786068 H          1 MOL1         0.0750
       6    H2      21.099202   18.004482   27.168889 H          1 MOL1         0.0750
       7    C3      20.684754   17.986196   25.030983 C.3        1 MOL1        -0.1860
       8    H3      21.585050   18.549216   24.753036 H          1 MOL1         0.0752
       9    H4      20.949751   16.921688   24.978627 H          1 MOL1         0.0752
      10    C4      19.536376   18.275839   24.034041 C.3        1 MOL1        -0.1858
      11    H5      19.277933   19.341191   24.065134 H          1 MOL1         0.0752
      12    H6      18.639988   17.733104   24.363329 H          1 MOL1         0.0752
      13    C5      19.864571   17.844407   22.582178 C.3        1 MOL1        -0.1858
      14    H7      20.225748   16.807208   22.603092 H          1 MOL1         0.0752
      15    H8      18.940071   17.823621   21.989385 H          1 MOL1         0.0752
      16    C6      20.917105   18.729158   21.861909 C.3        1 MOL1        -0.1858
      17    H9      21.519580   18.079988   21.212130 H          1 MOL1         0.0752
      18    H10     21.621455   19.164688   22.581312 H          1 MOL1         0.0752
      19    C7      20.317777   19.848442   20.974980 C.3        1 MOL1        -0.1834
      20    H11     21.139160   20.352429   20.447296 H          1 MOL1         0.0752
      21    H12     19.681098   19.402970   20.198213 H          1 MOL1         0.0752
      22    C8      19.510207   20.905786   21.756265 C.3        1 MOL1        -0.2849
      23    H13     20.101149   21.320815   22.583280 H          1 MOL1         0.0764
      24    H14     19.221471   21.733915   21.096336 H          1 MOL1         0.0764
      25    H15     18.589438   20.474974   22.168752 H          1 MOL1         0.0764
@<TRIPOS>BOND
    1     1     2    1
    2     1     3    2
    3     1     4    1
    4     4     5    1
    5     4     6    1
    6     4     7    1
    7     7     8    1
    8     7     9    1
    9     7    10    1
   10    10    11    1
   11    10    12    1
   12    10    13    1
   13    13    14    1
   14    13    15    1
   15    13    16    1
   16    16    17    1
   17    16    18    1
   18    16    19    1
   19    19    20    1
   20    19    21    1
   21    19    22    1
   22    22    23    1
   23    22    24    1
   24    22    25    1
@<TRIPOS>SUBSTRUCTURE
       1 MOL1            1 RESIDUE      1      MOL     
@<SCITEGIC>MOL_PROPERTY
VM2 Rank
SciTegic.value.IntegerValue
161

@<SCITEGIC>MOL_PROPERTY
Conf_Id
SciTegic.value.IntegerValue
228

@<SCITEGIC>MOL_PROPERTY
Probability
SciTegic.value.DoubleValue
0.00

@<SCITEGIC>MOL_PROPERTY
Sum Probability
SciTegic.value.DoubleValue
100.00

@<SCITEGIC>MOL_PROPERTY
Delta G
SciTegic.value.DoubleValue
6.637

@<SCITEGIC>MOL_PROPERTY
G
SciTegic.value.DoubleValue
-1.325

@<SCITEGIC>MOL_PROPERTY
E
SciTegic.value.DoubleValue
-26.455

@<SCITEGIC>MOL_PROPERTY
-TS
SciTegic.value.DoubleValue
25.130

@<SCITEGIC>MOL_PROPERTY
U+W
SciTegic.value.DoubleValue
-47.023

@<SCITEGIC>MOL_PROPERTY
U
SciTegic.value.DoubleValue
13.848

@<SCITEGIC>MOL_PROPERTY
W
SciTegic.value.DoubleValue
-60.871

@<SCITEGIC>MOL_PROPERTY
W(PB)
SciTegic.value.DoubleValue
-63.249

@<SCITEGIC>MOL_PROPERTY
W(SA)
SciTegic.value.DoubleValue
2.378

@<SCITEGIC>MOL_PROPERTY
Valence
SciTegic.value.DoubleValue
11.487

@<SCITEGIC>MOL_PROPERTY
Coulomb
SciTegic.value.DoubleValue
1.559

@<SCITEGIC>MOL_PROPERTY
VdW
SciTegic.value.DoubleValue
0.803

@<SCITEGIC>MOL_PROPERTY
VdW6
SciTegic.value.DoubleValue
-10.837

@<SCITEGIC>MOL_PROPERTY
VdW12
SciTegic.value.DoubleValue
11.639

@<SCITEGIC>MOL_PROPERTY
Bond
SciTegic.value.DoubleValue
0.263

@<SCITEGIC>MOL_PROPERTY
Angle
SciTegic.value.DoubleValue
3.376

@<SCITEGIC>MOL_PROPERTY
Pdih
SciTegic.value.DoubleValue
7.847

@<SCITEGIC>MOL_PROPERTY
Idih
SciTegic.value.DoubleValue
0.001

@<SCITEGIC>MOL_PROPERTY
Tether
SciTegic.value.DoubleValue
0.000

@<TRIPOS>MOLECULE
guest-8_vm2.mol2 : vm2 ligand conformer 162
          25          24           1
SMALL
USER_CHARGES
 
@<TRIPOS>ATOM
       1    C1      20.357920   18.980308   26.866773 C.2        1 MOL1         0.6168
       2    O1      21.547203   18.806971   26.686521 O.co2      1 MOL1        -0.6703
       3    O2      19.651459   18.206775   27.483275 O.co2      1 MOL1        -0.6703
       4    C2      19.720599   20.252992   26.316136 C.3        1 MOL1        -0.1963
       5    H1      20.516540   20.955002   26.044000 H          1 MOL1         0.0750
       6    H2      19.165082   20.719868   27.137764 H          1 MOL1         0.0750
       7    C3      18.760417   20.015892   25.118135 C.3        1 MOL1        -0.1860
       8    H3      17.934442   19.373836   25.454082 H          1 MOL1         0.0752
       9    H4      18.306173   20.971817   24.824580 H          1 MOL1         0.0752
      10    C4      19.422280   19.363494   23.879026 C.3        1 MOL1        -0.1858
      11    H5      18.630689   19.150405   23.149935 H          1 MOL1         0.0752
      12    H6      19.862628   18.396248   24.157213 H          1 MOL1         0.0752
      13    C5      20.497418   20.253915   23.211760 C.3        1 MOL1        -0.1858
      14    H7      20.042952   21.203311   22.897903 H          1 MOL1         0.0752
      15    H8      21.269230   20.507582   23.949416 H          1 MOL1         0.0752
      16    C6      21.204028   19.595243   22.000092 C.3        1 MOL1        -0.1858
      17    H9      21.740959   18.693194   22.324234 H          1 MOL1         0.0752
      18    H10     21.977540   20.292353   21.650074 H          1 MOL1         0.0752
      19    C7      20.274292   19.267073   20.805027 C.3        1 MOL1        -0.1834
      20    H11     19.402744   19.936116   20.804781 H          1 MOL1         0.0752
      21    H12     20.815913   19.471536   19.871153 H          1 MOL1         0.0752
      22    C8      19.817386   17.791338   20.779256 C.3        1 MOL1        -0.2849
      23    H13     19.262982   17.520087   21.684962 H          1 MOL1         0.0764
      24    H14     19.163688   17.606421   19.917121 H          1 MOL1         0.0764
      25    H15     20.680182   17.117626   20.696934 H          1 MOL1         0.0764
@<TRIPOS>BOND
    1     1     2    1
    2     1     3    2
    3     1     4    1
    4     4     5    1
    5     4     6    1
    6     4     7    1
    7     7     8    1
    8     7     9    1
    9     7    10    1
   10    10    11    1
   11    10    12    1
   12    10    13    1
   13    13    14    1
   14    13    15    1
   15    13    16    1
   16    16    17    1
   17    16    18    1
   18    16    19    1
   19    19    20    1
   20    19    21    1
   21    19    22    1
   22    22    23    1
   23    22    24    1
   24    22    25    1
@<TRIPOS>SUBSTRUCTURE
       1 MOL1            1 RESIDUE      1      MOL     
@<SCITEGIC>MOL_PROPERTY
VM2 Rank
SciTegic.value.IntegerValue
162

@<SCITEGIC>MOL_PROPERTY
Conf_Id
SciTegic.value.IntegerValue
535

@<SCITEGIC>MOL_PROPERTY
Probability
SciTegic.value.DoubleValue
0.00

@<SCITEGIC>MOL_PROPERTY
Sum Probability
SciTegic.value.DoubleValue
100.00

@<SCITEGIC>MOL_PROPERTY
Delta G
SciTegic.value.DoubleValue
6.657

@<SCITEGIC>MOL_PROPERTY
G
SciTegic.value.DoubleValue
-1.305

@<SCITEGIC>MOL_PROPERTY
E
SciTegic.value.DoubleValue
-26.412

@<SCITEGIC>MOL_PROPERTY
-TS
SciTegic.value.DoubleValue
25.107

@<SCITEGIC>MOL_PROPERTY
U+W
SciTegic.value.DoubleValue
-46.980

@<SCITEGIC>MOL_PROPERTY
U
SciTegic.value.DoubleValue
13.601

@<SCITEGIC>MOL_PROPERTY
W
SciTegic.value.DoubleValue
-60.581

@<SCITEGIC>MOL_PROPERTY
W(PB)
SciTegic.value.DoubleValue
-63.002

@<SCITEGIC>MOL_PROPERTY
W(SA)
SciTegic.value.DoubleValue
2.421

@<SCITEGIC>MOL_PROPERTY
Valence
SciTegic.value.DoubleValue
11.436

@<SCITEGIC>MOL_PROPERTY
Coulomb
SciTegic.value.DoubleValue
1.346

@<SCITEGIC>MOL_PROPERTY
VdW
SciTegic.value.DoubleValue
0.819

@<SCITEGIC>MOL_PROPERTY
VdW6
SciTegic.value.DoubleValue
-10.981

@<SCITEGIC>MOL_PROPERTY
VdW12
SciTegic.value.DoubleValue
11.799

@<SCITEGIC>MOL_PROPERTY
Bond
SciTegic.value.DoubleValue
0.269

@<SCITEGIC>MOL_PROPERTY
Angle
SciTegic.value.DoubleValue
3.573

@<SCITEGIC>MOL_PROPERTY
Pdih
SciTegic.value.DoubleValue
7.592

@<SCITEGIC>MOL_PROPERTY
Idih
SciTegic.value.DoubleValue
0.001

@<SCITEGIC>MOL_PROPERTY
Tether
SciTegic.value.DoubleValue
0.000

@<TRIPOS>MOLECULE
guest-8_vm2.mol2 : vm2 ligand conformer 163
          25          24           1
SMALL
USER_CHARGES
 
@<TRIPOS>ATOM
       1    C1      20.658230   19.511129   26.491494 C.2        1 MOL1         0.6168
       2    O1      21.458567   20.298565   26.026870 O.co2      1 MOL1        -0.6703
       3    O2      20.075550   19.690461   27.543334 O.co2      1 MOL1        -0.6703
       4    C2      20.409344   18.202841   25.743694 C.3        1 MOL1        -0.1963
       5    H1      20.711001   17.390019   26.414166 H          1 MOL1         0.0750
       6    H2      21.077266   18.150527   24.877288 H          1 MOL1         0.0750
       7    C3      18.934851   17.983885   25.310489 C.3        1 MOL1        -0.1860
       8    H3      18.832907   16.979688   24.877524 H          1 MOL1         0.0752
       9    H4      18.303526   17.991378   26.209813 H          1 MOL1         0.0752
      10    C4      18.379876   19.028691   24.308662 C.3        1 MOL1        -0.1858
      11    H5      18.451990   20.040144   24.731584 H          1 MOL1         0.0752
      12    H6      17.305208   18.832298   24.193225 H          1 MOL1         0.0752
      13    C5      19.025907   18.978606   22.900138 C.3        1 MOL1        -0.1858
      14    H7      19.397805   17.966045   22.698003 H          1 MOL1         0.0752
      15    H8      18.243526   19.172003   22.153759 H          1 MOL1         0.0752
      16    C6      20.149623   20.025346   22.698925 C.3        1 MOL1        -0.1858
      17    H9      20.972645   19.846966   23.400524 H          1 MOL1         0.0752
      18    H10     19.754805   21.021785   22.939074 H          1 MOL1         0.0752
      19    C7      20.708254   20.054672   21.257131 C.3        1 MOL1        -0.1834
      20    H11     19.892493   20.242902   20.545603 H          1 MOL1         0.0752
      21    H12     21.401506   20.902155   21.165809 H          1 MOL1         0.0752
      22    C8      21.452797   18.759804   20.865263 C.3        1 MOL1        -0.2849
      23    H13     20.771580   17.900612   20.830206 H          1 MOL1         0.0764
      24    H14     21.907545   18.864042   19.871704 H          1 MOL1         0.0764
      25    H15     22.253552   18.535579   21.581986 H          1 MOL1         0.0764
@<TRIPOS>BOND
    1     1     2    1
    2     1     3    2
    3     1     4    1
    4     4     5    1
    5     4     6    1
    6     4     7    1
    7     7     8    1
    8     7     9    1
    9     7    10    1
   10    10    11    1
   11    10    12    1
   12    10    13    1
   13    13    14    1
   14    13    15    1
   15    13    16    1
   16    16    17    1
   17    16    18    1
   18    16    19    1
   19    19    20    1
   20    19    21    1
   21    19    22    1
   22    22    23    1
   23    22    24    1
   24    22    25    1
@<TRIPOS>SUBSTRUCTURE
       1 MOL1            1 RESIDUE      1      MOL     
@<SCITEGIC>MOL_PROPERTY
VM2 Rank
SciTegic.value.IntegerValue
163

@<SCITEGIC>MOL_PROPERTY
Conf_Id
SciTegic.value.IntegerValue
1096

@<SCITEGIC>MOL_PROPERTY
Probability
SciTegic.value.DoubleValue
0.00

@<SCITEGIC>MOL_PROPERTY
Sum Probability
SciTegic.value.DoubleValue
100.00

@<SCITEGIC>MOL_PROPERTY
Delta G
SciTegic.value.DoubleValue
6.827

@<SCITEGIC>MOL_PROPERTY
G
SciTegic.value.DoubleValue
-1.135

@<SCITEGIC>MOL_PROPERTY
E
SciTegic.value.DoubleValue
-26.349

@<SCITEGIC>MOL_PROPERTY
-TS
SciTegic.value.DoubleValue
25.214

@<SCITEGIC>MOL_PROPERTY
U+W
SciTegic.value.DoubleValue
-46.916

@<SCITEGIC>MOL_PROPERTY
U
SciTegic.value.DoubleValue
13.927

@<SCITEGIC>MOL_PROPERTY
W
SciTegic.value.DoubleValue
-60.843

@<SCITEGIC>MOL_PROPERTY
W(PB)
SciTegic.value.DoubleValue
-63.215

@<SCITEGIC>MOL_PROPERTY
W(SA)
SciTegic.value.DoubleValue
2.372

@<SCITEGIC>MOL_PROPERTY
Valence
SciTegic.value.DoubleValue
11.622

@<SCITEGIC>MOL_PROPERTY
Coulomb
SciTegic.value.DoubleValue
1.811

@<SCITEGIC>MOL_PROPERTY
VdW
SciTegic.value.DoubleValue
0.493

@<SCITEGIC>MOL_PROPERTY
VdW6
SciTegic.value.DoubleValue
-11.533

@<SCITEGIC>MOL_PROPERTY
VdW12
SciTegic.value.DoubleValue
12.026

@<SCITEGIC>MOL_PROPERTY
Bond
SciTegic.value.DoubleValue
0.265

@<SCITEGIC>MOL_PROPERTY
Angle
SciTegic.value.DoubleValue
3.636

@<SCITEGIC>MOL_PROPERTY
Pdih
SciTegic.value.DoubleValue
7.718

@<SCITEGIC>MOL_PROPERTY
Idih
SciTegic.value.DoubleValue
0.004

@<SCITEGIC>MOL_PROPERTY
Tether
SciTegic.value.DoubleValue
0.000

@<TRIPOS>MOLECULE
guest-8_vm2.mol2 : vm2 ligand conformer 164
          25          24           1
SMALL
USER_CHARGES
 
@<TRIPOS>ATOM
       1    C1      20.398707   19.807998   26.484449 C.2        1 MOL1         0.6168
       2    O1      21.297868   20.482204   26.022470 O.co2      1 MOL1        -0.6703
       3    O2      20.472349   19.236033   27.554719 O.co2      1 MOL1        -0.6703
       4    C2      19.087498   19.715607   25.706655 C.3        1 MOL1        -0.1963
       5    H1      19.146574   20.360237   24.823214 H          1 MOL1         0.0750
       6    H2      18.306453   20.141714   26.346664 H          1 MOL1         0.0750
       7    C3      18.683025   18.272183   25.303346 C.3        1 MOL1        -0.1860
       8    H3      18.583252   17.670868   26.217610 H          1 MOL1         0.0752
       9    H4      17.685280   18.293481   24.844748 H          1 MOL1         0.0752
      10    C4      19.668212   17.554632   24.345321 C.3        1 MOL1        -0.1858
      11    H5      19.332092   16.513050   24.250789 H          1 MOL1         0.0752
      12    H6      20.669420   17.502716   24.794746 H          1 MOL1         0.0752
      13    C5      19.740232   18.161650   22.920485 C.3        1 MOL1        -0.1858
      14    H7      19.845808   17.339741   22.199427 H          1 MOL1         0.0752
      15    H8      18.791903   18.659148   22.680442 H          1 MOL1         0.0752
      16    C6      20.932602   19.129938   22.721567 C.3        1 MOL1        -0.1858
      17    H9      21.860880   18.613246   23.000438 H          1 MOL1         0.0752
      18    H10     20.848063   19.989254   23.396729 H          1 MOL1         0.0752
      19    C7      21.073060   19.637914   21.267627 C.3        1 MOL1        -0.1834
      20    H11     22.007437   20.209805   21.183691 H          1 MOL1         0.0752
      21    H12     21.169081   18.784201   20.582704 H          1 MOL1         0.0752
      22    C8      19.899447   20.535841   20.819361 C.3        1 MOL1        -0.2849
      23    H13     20.088854   20.943907   19.818148 H          1 MOL1         0.0764
      24    H14     18.958340   19.973735   20.776293 H          1 MOL1         0.0764
      25    H15     19.765565   21.379589   21.508809 H          1 MOL1         0.0764
@<TRIPOS>BOND
    1     1     2    1
    2     1     3    2
    3     1     4    1
    4     4     5    1
    5     4     6    1
    6     4     7    1
    7     7     8    1
    8     7     9    1
    9     7    10    1
   10    10    11    1
   11    10    12    1
   12    10    13    1
   13    13    14    1
   14    13    15    1
   15    13    16    1
   16    16    17    1
   17    16    18    1
   18    16    19    1
   19    19    20    1
   20    19    21    1
   21    19    22    1
   22    22    23    1
   23    22    24    1
   24    22    25    1
@<TRIPOS>SUBSTRUCTURE
       1 MOL1            1 RESIDUE      1      MOL     
@<SCITEGIC>MOL_PROPERTY
VM2 Rank
SciTegic.value.IntegerValue
164

@<SCITEGIC>MOL_PROPERTY
Conf_Id
SciTegic.value.IntegerValue
815

@<SCITEGIC>MOL_PROPERTY
Probability
SciTegic.value.DoubleValue
0.00

@<SCITEGIC>MOL_PROPERTY
Sum Probability
SciTegic.value.DoubleValue
100.00

@<SCITEGIC>MOL_PROPERTY
Delta G
SciTegic.value.DoubleValue
6.833

@<SCITEGIC>MOL_PROPERTY
G
SciTegic.value.DoubleValue
-1.129

@<SCITEGIC>MOL_PROPERTY
E
SciTegic.value.DoubleValue
-26.342

@<SCITEGIC>MOL_PROPERTY
-TS
SciTegic.value.DoubleValue
25.212

@<SCITEGIC>MOL_PROPERTY
U+W
SciTegic.value.DoubleValue
-46.909

@<SCITEGIC>MOL_PROPERTY
U
SciTegic.value.DoubleValue
13.927

@<SCITEGIC>MOL_PROPERTY
W
SciTegic.value.DoubleValue
-60.837

@<SCITEGIC>MOL_PROPERTY
W(PB)
SciTegic.value.DoubleValue
-63.218

@<SCITEGIC>MOL_PROPERTY
W(SA)
SciTegic.value.DoubleValue
2.382

@<SCITEGIC>MOL_PROPERTY
Valence
SciTegic.value.DoubleValue
11.622

@<SCITEGIC>MOL_PROPERTY
Coulomb
SciTegic.value.DoubleValue
1.813

@<SCITEGIC>MOL_PROPERTY
VdW
SciTegic.value.DoubleValue
0.493

@<SCITEGIC>MOL_PROPERTY
VdW6
SciTegic.value.DoubleValue
-11.533

@<SCITEGIC>MOL_PROPERTY
VdW12
SciTegic.value.DoubleValue
12.026

@<SCITEGIC>MOL_PROPERTY
Bond
SciTegic.value.DoubleValue
0.266

@<SCITEGIC>MOL_PROPERTY
Angle
SciTegic.value.DoubleValue
3.637

@<SCITEGIC>MOL_PROPERTY
Pdih
SciTegic.value.DoubleValue
7.715

@<SCITEGIC>MOL_PROPERTY
Idih
SciTegic.value.DoubleValue
0.004

@<SCITEGIC>MOL_PROPERTY
Tether
SciTegic.value.DoubleValue
0.000

@<TRIPOS>MOLECULE
guest-8_vm2.mol2 : vm2 ligand conformer 165
          25          24           1
SMALL
USER_CHARGES
 
@<TRIPOS>ATOM
       1    C1      20.347405   19.894849   26.253120 C.2        1 MOL1         0.6168
       2    O1      19.387988   20.641147   26.274693 O.co2      1 MOL1        -0.6703
       3    O2      21.495178   20.280161   26.144889 O.co2      1 MOL1        -0.6703
       4    C2      20.106742   18.404364   26.486184 C.3        1 MOL1        -0.1963
       5    H1      19.634418   18.319942   27.471729 H          1 MOL1         0.0750
       6    H2      21.074277   17.893025   26.557350 H          1 MOL1         0.0750
       7    C3      19.202528   17.706090   25.431693 C.3        1 MOL1        -0.1860
       8    H3      18.780632   16.804112   25.895058 H          1 MOL1         0.0752
       9    H4      18.341231   18.343564   25.192280 H          1 MOL1         0.0752
      10    C4      19.935942   17.263977   24.138170 C.3        1 MOL1        -0.1858
      11    H5      19.235720   16.686538   23.519295 H          1 MOL1         0.0752
      12    H6      20.741031   16.567525   24.409153 H          1 MOL1         0.0752
      13    C5      20.535238   18.400279   23.273136 C.3        1 MOL1        -0.1858
      14    H7      21.299681   18.943789   23.842210 H          1 MOL1         0.0752
      15    H8      21.060299   17.936954   22.428457 H          1 MOL1         0.0752
      16    C6      19.475371   19.391797   22.733183 C.3        1 MOL1        -0.1858
      17    H9      18.947895   19.855575   23.576578 H          1 MOL1         0.0752
      18    H10     18.718976   18.847580   22.151889 H          1 MOL1         0.0752
      19    C7      20.078992   20.524275   21.870186 C.3        1 MOL1        -0.1834
      20    H11     19.288709   21.253688   21.645549 H          1 MOL1         0.0752
      21    H12     20.841753   21.062814   22.449807 H          1 MOL1         0.0752
      22    C8      20.687615   20.027061   20.540744 C.3        1 MOL1        -0.2849
      23    H13     19.951484   19.454776   19.961399 H          1 MOL1         0.0764
      24    H14     21.013977   20.876639   19.927115 H          1 MOL1         0.0764
      25    H15     21.562405   19.388198   20.713918 H          1 MOL1         0.0764
@<TRIPOS>BOND
    1     1     2    1
    2     1     3    2
    3     1     4    1
    4     4     5    1
    5     4     6    1
    6     4     7    1
    7     7     8    1
    8     7     9    1
    9     7    10    1
   10    10    11    1
   11    10    12    1
   12    10    13    1
   13    13    14    1
   14    13    15    1
   15    13    16    1
   16    16    17    1
   17    16    18    1
   18    16    19    1
   19    19    20    1
   20    19    21    1
   21    19    22    1
   22    22    23    1
   23    22    24    1
   24    22    25    1
@<TRIPOS>SUBSTRUCTURE
       1 MOL1            1 RESIDUE      1      MOL     
@<SCITEGIC>MOL_PROPERTY
VM2 Rank
SciTegic.value.IntegerValue
165

@<SCITEGIC>MOL_PROPERTY
Conf_Id
SciTegic.value.IntegerValue
792

@<SCITEGIC>MOL_PROPERTY
Probability
SciTegic.value.DoubleValue
0.00

@<SCITEGIC>MOL_PROPERTY
Sum Probability
SciTegic.value.DoubleValue
100.00

@<SCITEGIC>MOL_PROPERTY
Delta G
SciTegic.value.DoubleValue
6.859

@<SCITEGIC>MOL_PROPERTY
G
SciTegic.value.DoubleValue
-1.104

@<SCITEGIC>MOL_PROPERTY
E
SciTegic.value.DoubleValue
-26.914

@<SCITEGIC>MOL_PROPERTY
-TS
SciTegic.value.DoubleValue
25.811

@<SCITEGIC>MOL_PROPERTY
U+W
SciTegic.value.DoubleValue
-47.482

@<SCITEGIC>MOL_PROPERTY
U
SciTegic.value.DoubleValue
13.611

@<SCITEGIC>MOL_PROPERTY
W
SciTegic.value.DoubleValue
-61.093

@<SCITEGIC>MOL_PROPERTY
W(PB)
SciTegic.value.DoubleValue
-63.444

@<SCITEGIC>MOL_PROPERTY
W(SA)
SciTegic.value.DoubleValue
2.352

@<SCITEGIC>MOL_PROPERTY
Valence
SciTegic.value.DoubleValue
10.664

@<SCITEGIC>MOL_PROPERTY
Coulomb
SciTegic.value.DoubleValue
2.596

@<SCITEGIC>MOL_PROPERTY
VdW
SciTegic.value.DoubleValue
0.350

@<SCITEGIC>MOL_PROPERTY
VdW6
SciTegic.value.DoubleValue
-12.153

@<SCITEGIC>MOL_PROPERTY
VdW12
SciTegic.value.DoubleValue
12.503

@<SCITEGIC>MOL_PROPERTY
Bond
SciTegic.value.DoubleValue
0.280

@<SCITEGIC>MOL_PROPERTY
Angle
SciTegic.value.DoubleValue
4.003

@<SCITEGIC>MOL_PROPERTY
Pdih
SciTegic.value.DoubleValue
6.364

@<SCITEGIC>MOL_PROPERTY
Idih
SciTegic.value.DoubleValue
0.017

@<SCITEGIC>MOL_PROPERTY
Tether
SciTegic.value.DoubleValue
0.000

@<TRIPOS>MOLECULE
guest-8_vm2.mol2 : vm2 ligand conformer 166
          25          24           1
SMALL
USER_CHARGES
 
@<TRIPOS>ATOM
       1    C1      19.761908   19.649394   26.618967 C.2        1 MOL1         0.6168
       2    O1      20.487058   19.859557   27.571833 O.co2      1 MOL1        -0.6703
       3    O2      18.968720   20.463408   26.189191 O.co2      1 MOL1        -0.6703
       4    C2      19.814693   18.271158   25.962708 C.3        1 MOL1        -0.1963
       5    H1      19.042251   18.211605   25.188229 H          1 MOL1         0.0750
       6    H2      19.537418   17.541442   26.732037 H          1 MOL1         0.0750
       7    C3      21.203030   17.893178   25.379813 C.3        1 MOL1        -0.1860
       8    H3      21.944698   17.936966   26.189414 H          1 MOL1         0.0752
       9    H4      21.180375   16.846851   25.046679 H          1 MOL1         0.0752
      10    C4      21.690716   18.787881   24.211689 C.3        1 MOL1        -0.1858
      11    H5      22.728578   18.503034   23.991331 H          1 MOL1         0.0752
      12    H6      21.732378   19.839854   24.526253 H          1 MOL1         0.0752
      13    C5      20.868681   18.642038   22.905440 C.3        1 MOL1        -0.1858
      14    H7      21.567448   18.663761   22.059172 H          1 MOL1         0.0752
      15    H8      20.379031   17.659400   22.873544 H          1 MOL1         0.0752
      16    C6      19.824210   19.768146   22.709297 C.3        1 MOL1        -0.1858
      17    H9      20.337033   20.736820   22.637465 H          1 MOL1         0.0752
      18    H10     19.177562   19.831645   23.592086 H          1 MOL1         0.0752
      19    C7      18.928576   19.565031   21.464931 C.3        1 MOL1        -0.1834
      20    H11     18.405549   18.601594   21.538610 H          1 MOL1         0.0752
      21    H12     18.150381   20.340648   21.461519 H          1 MOL1         0.0752
      22    C8      19.705407   19.634208   20.132131 C.3        1 MOL1        -0.2849
      23    H13     20.416628   18.803983   20.039453 H          1 MOL1         0.0764
      24    H14     19.014077   19.575570   19.281551 H          1 MOL1         0.0764
      25    H15     20.262506   20.576587   20.050626 H          1 MOL1         0.0764
@<TRIPOS>BOND
    1     1     2    1
    2     1     3    2
    3     1     4    1
    4     4     5    1
    5     4     6    1
    6     4     7    1
    7     7     8    1
    8     7     9    1
    9     7    10    1
   10    10    11    1
   11    10    12    1
   12    10    13    1
   13    13    14    1
   14    13    15    1
   15    13    16    1
   16    16    17    1
   17    16    18    1
   18    16    19    1
   19    19    20    1
   20    19    21    1
   21    19    22    1
   22    22    23    1
   23    22    24    1
   24    22    25    1
@<TRIPOS>SUBSTRUCTURE
       1 MOL1            1 RESIDUE      1      MOL     
@<SCITEGIC>MOL_PROPERTY
VM2 Rank
SciTegic.value.IntegerValue
166

@<SCITEGIC>MOL_PROPERTY
Conf_Id
SciTegic.value.IntegerValue
542

@<SCITEGIC>MOL_PROPERTY
Probability
SciTegic.value.DoubleValue
0.00

@<SCITEGIC>MOL_PROPERTY
Sum Probability
SciTegic.value.DoubleValue
100.00

@<SCITEGIC>MOL_PROPERTY
Delta G
SciTegic.value.DoubleValue
6.939

@<SCITEGIC>MOL_PROPERTY
G
SciTegic.value.DoubleValue
-1.023

@<SCITEGIC>MOL_PROPERTY
E
SciTegic.value.DoubleValue
-26.292

@<SCITEGIC>MOL_PROPERTY
-TS
SciTegic.value.DoubleValue
25.269

@<SCITEGIC>MOL_PROPERTY
U+W
SciTegic.value.DoubleValue
-46.860

@<SCITEGIC>MOL_PROPERTY
U
SciTegic.value.DoubleValue
13.632

@<SCITEGIC>MOL_PROPERTY
W
SciTegic.value.DoubleValue
-60.491

@<SCITEGIC>MOL_PROPERTY
W(PB)
SciTegic.value.DoubleValue
-62.870

@<SCITEGIC>MOL_PROPERTY
W(SA)
SciTegic.value.DoubleValue
2.379

@<SCITEGIC>MOL_PROPERTY
Valence
SciTegic.value.DoubleValue
11.731

@<SCITEGIC>MOL_PROPERTY
Coulomb
SciTegic.value.DoubleValue
1.281

@<SCITEGIC>MOL_PROPERTY
VdW
SciTegic.value.DoubleValue
0.620

@<SCITEGIC>MOL_PROPERTY
VdW6
SciTegic.value.DoubleValue
-11.359

@<SCITEGIC>MOL_PROPERTY
VdW12
SciTegic.value.DoubleValue
11.979

@<SCITEGIC>MOL_PROPERTY
Bond
SciTegic.value.DoubleValue
0.262

@<SCITEGIC>MOL_PROPERTY
Angle
SciTegic.value.DoubleValue
3.561

@<SCITEGIC>MOL_PROPERTY
Pdih
SciTegic.value.DoubleValue
7.904

@<SCITEGIC>MOL_PROPERTY
Idih
SciTegic.value.DoubleValue
0.004

@<SCITEGIC>MOL_PROPERTY
Tether
SciTegic.value.DoubleValue
0.000

@<TRIPOS>MOLECULE
guest-8_vm2.mol2 : vm2 ligand conformer 167
          25          24           1
SMALL
USER_CHARGES
 
@<TRIPOS>ATOM
       1    C1      20.322298   19.834395   26.555005 C.2        1 MOL1         0.6168
       2    O1      21.354033   20.470337   26.465327 O.co2      1 MOL1        -0.6703
       3    O2      19.254283   20.324105   26.866029 O.co2      1 MOL1        -0.6703
       4    C2      20.379920   18.331621   26.294546 C.3        1 MOL1        -0.1963
       5    H1      19.513052   17.859793   26.772633 H          1 MOL1         0.0750
       6    H2      21.271880   17.944609   26.801056 H          1 MOL1         0.0750
       7    C3      20.434476   17.956206   24.791108 C.3        1 MOL1        -0.1860
       8    H3      21.292111   18.461975   24.328818 H          1 MOL1         0.0752
       9    H4      20.616274   16.877196   24.697975 H          1 MOL1         0.0752
      10    C4      19.129329   18.318891   24.042689 C.3        1 MOL1        -0.1858
      11    H5      18.937684   19.397373   24.106554 H          1 MOL1         0.0752
      12    H6      18.284704   17.834546   24.551114 H          1 MOL1         0.0752
      13    C5      19.126649   17.872406   22.560861 C.3        1 MOL1        -0.1858
      14    H7      19.241547   16.780619   22.523658 H          1 MOL1         0.0752
      15    H8      18.137608   18.083895   22.132345 H          1 MOL1         0.0752
      16    C6      20.209983   18.514595   21.654171 C.3        1 MOL1        -0.1858
      17    H9      20.118196   18.050551   20.662742 H          1 MOL1         0.0752
      18    H10     21.216563   18.252988   22.005470 H          1 MOL1         0.0752
      19    C7      20.080475   20.048111   21.471770 C.3        1 MOL1        -0.1834
      20    H11     20.384984   20.303411   20.447425 H          1 MOL1         0.0752
      21    H12     19.029632   20.355368   21.562981 H          1 MOL1         0.0752
      22    C8      20.961554   20.863332   22.444493 C.3        1 MOL1        -0.2849
      23    H13     22.018855   20.587664   22.340393 H          1 MOL1         0.0764
      24    H14     20.872353   21.936832   22.234406 H          1 MOL1         0.0764
      25    H15     20.672477   20.705991   23.489932 H          1 MOL1         0.0764
@<TRIPOS>BOND
    1     1     2    1
    2     1     3    2
    3     1     4    1
    4     4     5    1
    5     4     6    1
    6     4     7    1
    7     7     8    1
    8     7     9    1
    9     7    10    1
   10    10    11    1
   11    10    12    1
   12    10    13    1
   13    13    14    1
   14    13    15    1
   15    13    16    1
   16    16    17    1
   17    16    18    1
   18    16    19    1
   19    19    20    1
   20    19    21    1
   21    19    22    1
   22    22    23    1
   23    22    24    1
   24    22    25    1
@<TRIPOS>SUBSTRUCTURE
       1 MOL1            1 RESIDUE      1      MOL     
@<SCITEGIC>MOL_PROPERTY
VM2 Rank
SciTegic.value.IntegerValue
167

@<SCITEGIC>MOL_PROPERTY
Conf_Id
SciTegic.value.IntegerValue
571

@<SCITEGIC>MOL_PROPERTY
Probability
SciTegic.value.DoubleValue
0.00

@<SCITEGIC>MOL_PROPERTY
Sum Probability
SciTegic.value.DoubleValue
100.00

@<SCITEGIC>MOL_PROPERTY
Delta G
SciTegic.value.DoubleValue
6.982

@<SCITEGIC>MOL_PROPERTY
G
SciTegic.value.DoubleValue
-0.980

@<SCITEGIC>MOL_PROPERTY
E
SciTegic.value.DoubleValue
-26.700

@<SCITEGIC>MOL_PROPERTY
-TS
SciTegic.value.DoubleValue
25.720

@<SCITEGIC>MOL_PROPERTY
U+W
SciTegic.value.DoubleValue
-47.268

@<SCITEGIC>MOL_PROPERTY
U
SciTegic.value.DoubleValue
13.894

@<SCITEGIC>MOL_PROPERTY
W
SciTegic.value.DoubleValue
-61.162

@<SCITEGIC>MOL_PROPERTY
W(PB)
SciTegic.value.DoubleValue
-63.483

@<SCITEGIC>MOL_PROPERTY
W(SA)
SciTegic.value.DoubleValue
2.321

@<SCITEGIC>MOL_PROPERTY
Valence
SciTegic.value.DoubleValue
11.359

@<SCITEGIC>MOL_PROPERTY
Coulomb
SciTegic.value.DoubleValue
2.378

@<SCITEGIC>MOL_PROPERTY
VdW
SciTegic.value.DoubleValue
0.157

@<SCITEGIC>MOL_PROPERTY
VdW6
SciTegic.value.DoubleValue
-11.937

@<SCITEGIC>MOL_PROPERTY
VdW12
SciTegic.value.DoubleValue
12.094

@<SCITEGIC>MOL_PROPERTY
Bond
SciTegic.value.DoubleValue
0.256

@<SCITEGIC>MOL_PROPERTY
Angle
SciTegic.value.DoubleValue
3.730

@<SCITEGIC>MOL_PROPERTY
Pdih
SciTegic.value.DoubleValue
7.371

@<SCITEGIC>MOL_PROPERTY
Idih
SciTegic.value.DoubleValue
0.001

@<SCITEGIC>MOL_PROPERTY
Tether
SciTegic.value.DoubleValue
0.000

@<TRIPOS>MOLECULE
guest-8_vm2.mol2 : vm2 ligand conformer 168
          25          24           1
SMALL
USER_CHARGES
 
@<TRIPOS>ATOM
       1    C1      19.907299   19.807723   26.559883 C.2        1 MOL1         0.6168
       2    O1      20.910970   20.430154   26.846998 O.co2      1 MOL1        -0.6703
       3    O2      18.801064   20.306689   26.494928 O.co2      1 MOL1        -0.6703
       4    C2      20.035951   18.309521   26.298493 C.3        1 MOL1        -0.1963
       5    H1      19.212517   17.812554   26.824712 H          1 MOL1         0.0750
       6    H2      20.966671   17.952841   26.755862 H          1 MOL1         0.0750
       7    C3      19.995305   17.928114   24.796122 C.3        1 MOL1        -0.1860
       8    H3      19.950726   16.834591   24.705517 H          1 MOL1         0.0752
       9    H4      19.069715   18.319553   24.354405 H          1 MOL1         0.0752
      10    C4      21.225917   18.453495   24.018530 C.3        1 MOL1        -0.1858
      11    H5      22.136933   18.081796   24.506760 H          1 MOL1         0.0752
      12    H6      21.279593   19.547718   24.079573 H          1 MOL1         0.0752
      13    C5      21.251684   18.008831   22.536377 C.3        1 MOL1        -0.1858
      14    H7      22.195478   18.344411   22.085606 H          1 MOL1         0.0752
      15    H8      21.276506   16.911260   22.500220 H          1 MOL1         0.0752
      16    C6      20.074626   18.505881   21.655705 C.3        1 MOL1        -0.1858
      17    H9      19.118073   18.118283   22.029639 H          1 MOL1         0.0752
      18    H10     20.202210   18.055863   20.661774 H          1 MOL1         0.0752
      19    C7      20.002820   20.043089   21.472542 C.3        1 MOL1        -0.1834
      20    H11     21.007585   20.482289   21.539988 H          1 MOL1         0.0752
      21    H12     19.644700   20.255788   20.455834 H          1 MOL1         0.0752
      22    C8      19.047365   20.740502   22.466422 C.3        1 MOL1        -0.2849
      23    H13     19.378191   20.623088   23.504707 H          1 MOL1         0.0764
      24    H14     18.993699   21.816259   22.255793 H          1 MOL1         0.0764
      25    H15     18.031880   20.331733   22.386335 H          1 MOL1         0.0764
@<TRIPOS>BOND
    1     1     2    1
    2     1     3    2
    3     1     4    1
    4     4     5    1
    5     4     6    1
    6     4     7    1
    7     7     8    1
    8     7     9    1
    9     7    10    1
   10    10    11    1
   11    10    12    1
   12    10    13    1
   13    13    14    1
   14    13    15    1
   15    13    16    1
   16    16    17    1
   17    16    18    1
   18    16    19    1
   19    19    20    1
   20    19    21    1
   21    19    22    1
   22    22    23    1
   23    22    24    1
   24    22    25    1
@<TRIPOS>SUBSTRUCTURE
       1 MOL1            1 RESIDUE      1      MOL     
@<SCITEGIC>MOL_PROPERTY
VM2 Rank
SciTegic.value.IntegerValue
168

@<SCITEGIC>MOL_PROPERTY
Conf_Id
SciTegic.value.IntegerValue
857

@<SCITEGIC>MOL_PROPERTY
Probability
SciTegic.value.DoubleValue
0.00

@<SCITEGIC>MOL_PROPERTY
Sum Probability
SciTegic.value.DoubleValue
100.00

@<SCITEGIC>MOL_PROPERTY
Delta G
SciTegic.value.DoubleValue
7.054

@<SCITEGIC>MOL_PROPERTY
G
SciTegic.value.DoubleValue
-0.909

@<SCITEGIC>MOL_PROPERTY
E
SciTegic.value.DoubleValue
-26.630

@<SCITEGIC>MOL_PROPERTY
-TS
SciTegic.value.DoubleValue
25.721

@<SCITEGIC>MOL_PROPERTY
U+W
SciTegic.value.DoubleValue
-47.197

@<SCITEGIC>MOL_PROPERTY
U
SciTegic.value.DoubleValue
13.894

@<SCITEGIC>MOL_PROPERTY
W
SciTegic.value.DoubleValue
-61.091

@<SCITEGIC>MOL_PROPERTY
W(PB)
SciTegic.value.DoubleValue
-63.416

@<SCITEGIC>MOL_PROPERTY
W(SA)
SciTegic.value.DoubleValue
2.325

@<SCITEGIC>MOL_PROPERTY
Valence
SciTegic.value.DoubleValue
11.359

@<SCITEGIC>MOL_PROPERTY
Coulomb
SciTegic.value.DoubleValue
2.378

@<SCITEGIC>MOL_PROPERTY
VdW
SciTegic.value.DoubleValue
0.157

@<SCITEGIC>MOL_PROPERTY
VdW6
SciTegic.value.DoubleValue
-11.937

@<SCITEGIC>MOL_PROPERTY
VdW12
SciTegic.value.DoubleValue
12.093

@<SCITEGIC>MOL_PROPERTY
Bond
SciTegic.value.DoubleValue
0.256

@<SCITEGIC>MOL_PROPERTY
Angle
SciTegic.value.DoubleValue
3.731

@<SCITEGIC>MOL_PROPERTY
Pdih
SciTegic.value.DoubleValue
7.371

@<SCITEGIC>MOL_PROPERTY
Idih
SciTegic.value.DoubleValue
0.001

@<SCITEGIC>MOL_PROPERTY
Tether
SciTegic.value.DoubleValue
0.000

@<TRIPOS>MOLECULE
guest-8_vm2.mol2 : vm2 ligand conformer 169
          25          24           1
SMALL
USER_CHARGES
 
@<TRIPOS>ATOM
       1    C1      19.921123   19.695265   27.087312 C.2        1 MOL1         0.6168
       2    O1      20.944424   20.034737   27.648028 O.co2      1 MOL1        -0.6703
       3    O2      18.881139   19.459036   27.669928 O.co2      1 MOL1        -0.6703
       4    C2      19.949345   19.535061   25.571650 C.3        1 MOL1        -0.1963
       5    H1      20.650038   20.276436   25.171111 H          1 MOL1         0.0750
       6    H2      18.953295   19.781031   25.184931 H          1 MOL1         0.0750
       7    C3      20.358674   18.108174   25.126148 C.3        1 MOL1        -0.1860
       8    H3      21.374870   17.893752   25.484751 H          1 MOL1         0.0752
       9    H4      19.698532   17.382107   25.620469 H          1 MOL1         0.0752
      10    C4      20.288242   17.877870   23.595532 C.3        1 MOL1        -0.1858
      11    H5      19.256587   18.015076   23.247884 H          1 MOL1         0.0752
      12    H6      20.532256   16.824055   23.404631 H          1 MOL1         0.0752
      13    C5      21.265580   18.758103   22.772385 C.3        1 MOL1        -0.1858
      14    H7      22.142962   18.991856   23.390650 H          1 MOL1         0.0752
      15    H8      21.652454   18.176129   21.924886 H          1 MOL1         0.0752
      16    C6      20.647446   20.077160   22.237045 C.3        1 MOL1        -0.1858
      17    H9      21.429192   20.848746   22.243076 H          1 MOL1         0.0752
      18    H10     19.861574   20.440027   22.911046 H          1 MOL1         0.0752
      19    C7      20.092132   19.981393   20.794483 C.3        1 MOL1        -0.1834
      20    H11     19.769624   20.982161   20.475810 H          1 MOL1         0.0752
      21    H12     20.897640   19.685106   20.108513 H          1 MOL1         0.0752
      22    C8      18.904896   19.007201   20.643490 C.3        1 MOL1        -0.2849
      23    H13     18.094366   19.265110   21.337339 H          1 MOL1         0.0764
      24    H14     18.502460   19.046786   19.623104 H          1 MOL1         0.0764
      25    H15     19.213647   17.972635   20.839299 H          1 MOL1         0.0764
@<TRIPOS>BOND
    1     1     2    1
    2     1     3    2
    3     1     4    1
    4     4     5    1
    5     4     6    1
    6     4     7    1
    7     7     8    1
    8     7     9    1
    9     7    10    1
   10    10    11    1
   11    10    12    1
   12    10    13    1
   13    13    14    1
   14    13    15    1
   15    13    16    1
   16    16    17    1
   17    16    18    1
   18    16    19    1
   19    19    20    1
   20    19    21    1
   21    19    22    1
   22    22    23    1
   23    22    24    1
   24    22    25    1
@<TRIPOS>SUBSTRUCTURE
       1 MOL1            1 RESIDUE      1      MOL     
@<SCITEGIC>MOL_PROPERTY
VM2 Rank
SciTegic.value.IntegerValue
169

@<SCITEGIC>MOL_PROPERTY
Conf_Id
SciTegic.value.IntegerValue
6

@<SCITEGIC>MOL_PROPERTY
Probability
SciTegic.value.DoubleValue
0.00

@<SCITEGIC>MOL_PROPERTY
Sum Probability
SciTegic.value.DoubleValue
100.00

@<SCITEGIC>MOL_PROPERTY
Delta G
SciTegic.value.DoubleValue
7.264

@<SCITEGIC>MOL_PROPERTY
G
SciTegic.value.DoubleValue
-0.698

@<SCITEGIC>MOL_PROPERTY
E
SciTegic.value.DoubleValue
-25.926

@<SCITEGIC>MOL_PROPERTY
-TS
SciTegic.value.DoubleValue
25.227

@<SCITEGIC>MOL_PROPERTY
U+W
SciTegic.value.DoubleValue
-46.493

@<SCITEGIC>MOL_PROPERTY
U
SciTegic.value.DoubleValue
13.064

@<SCITEGIC>MOL_PROPERTY
W
SciTegic.value.DoubleValue
-59.557

@<SCITEGIC>MOL_PROPERTY
W(PB)
SciTegic.value.DoubleValue
-61.926

@<SCITEGIC>MOL_PROPERTY
W(SA)
SciTegic.value.DoubleValue
2.369

@<SCITEGIC>MOL_PROPERTY
Valence
SciTegic.value.DoubleValue
13.064

@<SCITEGIC>MOL_PROPERTY
Coulomb
SciTegic.value.DoubleValue
-1.007

@<SCITEGIC>MOL_PROPERTY
VdW
SciTegic.value.DoubleValue
1.008

@<SCITEGIC>MOL_PROPERTY
VdW6
SciTegic.value.DoubleValue
-10.968

@<SCITEGIC>MOL_PROPERTY
VdW12
SciTegic.value.DoubleValue
11.976

@<SCITEGIC>MOL_PROPERTY
Bond
SciTegic.value.DoubleValue
0.280

@<SCITEGIC>MOL_PROPERTY
Angle
SciTegic.value.DoubleValue
3.439

@<SCITEGIC>MOL_PROPERTY
Pdih
SciTegic.value.DoubleValue
9.344

@<SCITEGIC>MOL_PROPERTY
Idih
SciTegic.value.DoubleValue
0.001

@<SCITEGIC>MOL_PROPERTY
Tether
SciTegic.value.DoubleValue
0.000

@<TRIPOS>MOLECULE
guest-8_vm2.mol2 : vm2 ligand conformer 170
          25          24           1
SMALL
USER_CHARGES
 
@<TRIPOS>ATOM
       1    C1      20.181821   18.895468   27.106285 C.2        1 MOL1         0.6168
       2    O1      21.200867   19.247980   27.666706 O.co2      1 MOL1        -0.6703
       3    O2      19.194262   18.498354   27.692667 O.co2      1 MOL1        -0.6703
       4    C2      20.131495   18.976411   25.584903 C.3        1 MOL1        -0.1963
       5    H1      19.476992   18.174645   25.223009 H          1 MOL1         0.0750
       6    H2      21.139949   18.773709   25.206783 H          1 MOL1         0.0750
       7    C3      19.627986   20.349888   25.072977 C.3        1 MOL1        -0.1860
       8    H3      18.660029   20.568171   25.544914 H          1 MOL1         0.0752
       9    H4      20.317771   21.136855   25.407804 H          1 MOL1         0.0752
      10    C4      19.456776   20.428632   23.535033 C.3        1 MOL1        -0.1858
      11    H5      19.035877   21.414582   23.295743 H          1 MOL1         0.0752
      12    H6      18.708877   19.695332   23.208052 H          1 MOL1         0.0752
      13    C5      20.776428   20.258686   22.736784 C.3        1 MOL1        -0.1858
      14    H7      20.758061   20.919869   21.859790 H          1 MOL1         0.0752
      15    H8      21.614401   20.613354   23.352173 H          1 MOL1         0.0752
      16    C6      21.061402   18.807185   22.267184 C.3        1 MOL1        -0.1858
      17    H9      20.630713   18.080365   22.967030 H          1 MOL1         0.0752
      18    H10     22.147445   18.645241   22.295383 H          1 MOL1         0.0752
      19    C7      20.576481   18.495549   20.829734 C.3        1 MOL1        -0.1834
      20    H11     21.062361   19.179746   20.120524 H          1 MOL1         0.0752
      21    H12     20.909874   17.484348   20.558765 H          1 MOL1         0.0752
      22    C8      19.045482   18.575847   20.653727 C.3        1 MOL1        -0.2849
      23    H13     18.682768   19.600940   20.800752 H          1 MOL1         0.0764
      24    H14     18.757912   18.263179   19.641675 H          1 MOL1         0.0764
      25    H15     18.532830   17.919957   21.369200 H          1 MOL1         0.0764
@<TRIPOS>BOND
    1     1     2    1
    2     1     3    2
    3     1     4    1
    4     4     5    1
    5     4     6    1
    6     4     7    1
    7     7     8    1
    8     7     9    1
    9     7    10    1
   10    10    11    1
   11    10    12    1
   12    10    13    1
   13    13    14    1
   14    13    15    1
   15    13    16    1
   16    16    17    1
   17    16    18    1
   18    16    19    1
   19    19    20    1
   20    19    21    1
   21    19    22    1
   22    22    23    1
   23    22    24    1
   24    22    25    1
@<TRIPOS>SUBSTRUCTURE
       1 MOL1            1 RESIDUE      1      MOL     
@<SCITEGIC>MOL_PROPERTY
VM2 Rank
SciTegic.value.IntegerValue
170

@<SCITEGIC>MOL_PROPERTY
Conf_Id
SciTegic.value.IntegerValue
5

@<SCITEGIC>MOL_PROPERTY
Probability
SciTegic.value.DoubleValue
0.00

@<SCITEGIC>MOL_PROPERTY
Sum Probability
SciTegic.value.DoubleValue
100.00

@<SCITEGIC>MOL_PROPERTY
Delta G
SciTegic.value.DoubleValue
7.289

@<SCITEGIC>MOL_PROPERTY
G
SciTegic.value.DoubleValue
-0.673

@<SCITEGIC>MOL_PROPERTY
E
SciTegic.value.DoubleValue
-25.900

@<SCITEGIC>MOL_PROPERTY
-TS
SciTegic.value.DoubleValue
25.227

@<SCITEGIC>MOL_PROPERTY
U+W
SciTegic.value.DoubleValue
-46.468

@<SCITEGIC>MOL_PROPERTY
U
SciTegic.value.DoubleValue
13.064

@<SCITEGIC>MOL_PROPERTY
W
SciTegic.value.DoubleValue
-59.532

@<SCITEGIC>MOL_PROPERTY
W(PB)
SciTegic.value.DoubleValue
-61.933

@<SCITEGIC>MOL_PROPERTY
W(SA)
SciTegic.value.DoubleValue
2.401

@<SCITEGIC>MOL_PROPERTY
Valence
SciTegic.value.DoubleValue
13.064

@<SCITEGIC>MOL_PROPERTY
Coulomb
SciTegic.value.DoubleValue
-1.008

@<SCITEGIC>MOL_PROPERTY
VdW
SciTegic.value.DoubleValue
1.008

@<SCITEGIC>MOL_PROPERTY
VdW6
SciTegic.value.DoubleValue
-10.968

@<SCITEGIC>MOL_PROPERTY
VdW12
SciTegic.value.DoubleValue
11.977

@<SCITEGIC>MOL_PROPERTY
Bond
SciTegic.value.DoubleValue
0.280

@<SCITEGIC>MOL_PROPERTY
Angle
SciTegic.value.DoubleValue
3.438

@<SCITEGIC>MOL_PROPERTY
Pdih
SciTegic.value.DoubleValue
9.345

@<SCITEGIC>MOL_PROPERTY
Idih
SciTegic.value.DoubleValue
0.001

@<SCITEGIC>MOL_PROPERTY
Tether
SciTegic.value.DoubleValue
0.000

@<TRIPOS>MOLECULE
guest-8_vm2.mol2 : vm2 ligand conformer 171
          25          24           1
SMALL
USER_CHARGES
 
@<TRIPOS>ATOM
       1    C1      20.577616   19.563514   27.022803 C.2        1 MOL1         0.6168
       2    O1      21.660432   20.112674   26.972512 O.co2      1 MOL1        -0.6703
       3    O2      19.739992   19.802757   27.870128 O.co2      1 MOL1        -0.6703
       4    C2      20.244675   18.528360   25.954269 C.3        1 MOL1        -0.1963
       5    H1      19.616853   17.755083   26.412832 H          1 MOL1         0.0750
       6    H2      21.179474   18.046179   25.644051 H          1 MOL1         0.0750
       7    C3      19.528046   19.141076   24.726044 C.3        1 MOL1        -0.1860
       8    H3      18.600743   19.629857   25.055206 H          1 MOL1         0.0752
       9    H4      20.160421   19.927834   24.297746 H          1 MOL1         0.0752
      10    C4      19.197699   18.069159   23.660715 C.3        1 MOL1        -0.1858
      11    H5      18.518864   17.335417   24.116470 H          1 MOL1         0.0752
      12    H6      20.099912   17.511268   23.377001 H          1 MOL1         0.0752
      13    C5      18.514066   18.651401   22.398858 C.3        1 MOL1        -0.1858
      14    H7      17.775157   17.917059   22.050163 H          1 MOL1         0.0752
      15    H8      17.936807   19.549268   22.658420 H          1 MOL1         0.0752
      16    C6      19.459087   18.952880   21.205312 C.3        1 MOL1        -0.1858
      17    H9      18.824941   19.227942   20.351467 H          1 MOL1         0.0752
      18    H10     19.983476   18.037287   20.899573 H          1 MOL1         0.0752
      19    C7      20.473825   20.101392   21.426832 C.3        1 MOL1        -0.1834
      20    H11     20.617698   20.627884   20.473258 H          1 MOL1         0.0752
      21    H12     20.063035   20.844942   22.122795 H          1 MOL1         0.0752
      22    C8      21.857562   19.610785   21.908528 C.3        1 MOL1        -0.2849
      23    H13     22.305791   18.927061   21.176099 H          1 MOL1         0.0764
      24    H14     22.541599   20.459192   22.038659 H          1 MOL1         0.0764
      25    H15     21.793629   19.083714   22.866908 H          1 MOL1         0.0764
@<TRIPOS>BOND
    1     1     2    1
    2     1     3    2
    3     1     4    1
    4     4     5    1
    5     4     6    1
    6     4     7    1
    7     7     8    1
    8     7     9    1
    9     7    10    1
   10    10    11    1
   11    10    12    1
   12    10    13    1
   13    13    14    1
   14    13    15    1
   15    13    16    1
   16    16    17    1
   17    16    18    1
   18    16    19    1
   19    19    20    1
   20    19    21    1
   21    19    22    1
   22    22    23    1
   23    22    24    1
   24    22    25    1
@<TRIPOS>SUBSTRUCTURE
       1 MOL1            1 RESIDUE      1      MOL     
@<SCITEGIC>MOL_PROPERTY
VM2 Rank
SciTegic.value.IntegerValue
171

@<SCITEGIC>MOL_PROPERTY
Conf_Id
SciTegic.value.IntegerValue
476

@<SCITEGIC>MOL_PROPERTY
Probability
SciTegic.value.DoubleValue
0.00

@<SCITEGIC>MOL_PROPERTY
Sum Probability
SciTegic.value.DoubleValue
100.00

@<SCITEGIC>MOL_PROPERTY
Delta G
SciTegic.value.DoubleValue
7.313

@<SCITEGIC>MOL_PROPERTY
G
SciTegic.value.DoubleValue
-0.649

@<SCITEGIC>MOL_PROPERTY
E
SciTegic.value.DoubleValue
-25.903

@<SCITEGIC>MOL_PROPERTY
-TS
SciTegic.value.DoubleValue
25.254

@<SCITEGIC>MOL_PROPERTY
U+W
SciTegic.value.DoubleValue
-46.471

@<SCITEGIC>MOL_PROPERTY
U
SciTegic.value.DoubleValue
13.592

@<SCITEGIC>MOL_PROPERTY
W
SciTegic.value.DoubleValue
-60.063

@<SCITEGIC>MOL_PROPERTY
W(PB)
SciTegic.value.DoubleValue
-62.446

@<SCITEGIC>MOL_PROPERTY
W(SA)
SciTegic.value.DoubleValue
2.382

@<SCITEGIC>MOL_PROPERTY
Valence
SciTegic.value.DoubleValue
13.121

@<SCITEGIC>MOL_PROPERTY
Coulomb
SciTegic.value.DoubleValue
-0.198

@<SCITEGIC>MOL_PROPERTY
VdW
SciTegic.value.DoubleValue
0.669

@<SCITEGIC>MOL_PROPERTY
VdW6
SciTegic.value.DoubleValue
-10.627

@<SCITEGIC>MOL_PROPERTY
VdW12
SciTegic.value.DoubleValue
11.296

@<SCITEGIC>MOL_PROPERTY
Bond
SciTegic.value.DoubleValue
0.238

@<SCITEGIC>MOL_PROPERTY
Angle
SciTegic.value.DoubleValue
3.708

@<SCITEGIC>MOL_PROPERTY
Pdih
SciTegic.value.DoubleValue
9.174

@<SCITEGIC>MOL_PROPERTY
Idih
SciTegic.value.DoubleValue
0.000

@<SCITEGIC>MOL_PROPERTY
Tether
SciTegic.value.DoubleValue
0.000

@<TRIPOS>MOLECULE
guest-8_vm2.mol2 : vm2 ligand conformer 172
          25          24           1
SMALL
USER_CHARGES
 
@<TRIPOS>ATOM
       1    C1      20.111687   19.717371   26.519004 C.2        1 MOL1         0.6168
       2    O1      21.188362   20.208104   26.797490 O.co2      1 MOL1        -0.6703
       3    O2      19.073330   20.348964   26.492309 O.co2      1 MOL1        -0.6703
       4    C2      20.042919   18.207925   26.297393 C.3        1 MOL1        -0.1963
       5    H1      19.355580   17.816218   27.056130 H          1 MOL1         0.0750
       6    H2      21.026046   17.771096   26.510050 H          1 MOL1         0.0750
       7    C3      19.547662   17.765678   24.891691 C.3        1 MOL1        -0.1860
       8    H3      19.180070   16.734133   24.974749 H          1 MOL1         0.0752
       9    H4      18.678909   18.366368   24.591276 H          1 MOL1         0.0752
      10    C4      20.635692   17.784484   23.786500 C.3        1 MOL1        -0.1858
      11    H5      20.235794   17.290645   22.891247 H          1 MOL1         0.0752
      12    H6      21.482171   17.164158   24.110503 H          1 MOL1         0.0752
      13    C5      21.169627   19.184927   23.389378 C.3        1 MOL1        -0.1858
      14    H7      21.695733   19.629255   24.243433 H          1 MOL1         0.0752
      15    H8      21.935433   19.060909   22.612838 H          1 MOL1         0.0752
      16    C6      20.094987   20.184638   22.886160 C.3        1 MOL1        -0.1858
      17    H9      20.590878   21.129559   22.626635 H          1 MOL1         0.0752
      18    H10     19.410784   20.427131   23.709808 H          1 MOL1         0.0752
      19    C7      19.265368   19.704830   21.669706 C.3        1 MOL1        -0.1834
      20    H11     18.692966   18.805952   21.934255 H          1 MOL1         0.0752
      21    H12     18.523015   20.477127   21.426183 H          1 MOL1         0.0752
      22    C8      20.123366   19.427078   20.416370 C.3        1 MOL1        -0.2849
      23    H13     20.808716   18.586212   20.581026 H          1 MOL1         0.0764
      24    H14     19.483805   19.173045   19.561311 H          1 MOL1         0.0764
      25    H15     20.718243   20.308651   20.144591 H          1 MOL1         0.0764
@<TRIPOS>BOND
    1     1     2    1
    2     1     3    2
    3     1     4    1
    4     4     5    1
    5     4     6    1
    6     4     7    1
    7     7     8    1
    8     7     9    1
    9     7    10    1
   10    10    11    1
   11    10    12    1
   12    10    13    1
   13    13    14    1
   14    13    15    1
   15    13    16    1
   16    16    17    1
   17    16    18    1
   18    16    19    1
   19    19    20    1
   20    19    21    1
   21    19    22    1
   22    22    23    1
   23    22    24    1
   24    22    25    1
@<TRIPOS>SUBSTRUCTURE
       1 MOL1            1 RESIDUE      1      MOL     
@<SCITEGIC>MOL_PROPERTY
VM2 Rank
SciTegic.value.IntegerValue
172

@<SCITEGIC>MOL_PROPERTY
Conf_Id
SciTegic.value.IntegerValue
93

@<SCITEGIC>MOL_PROPERTY
Probability
SciTegic.value.DoubleValue
0.00

@<SCITEGIC>MOL_PROPERTY
Sum Probability
SciTegic.value.DoubleValue
100.00

@<SCITEGIC>MOL_PROPERTY
Delta G
SciTegic.value.DoubleValue
7.314

@<SCITEGIC>MOL_PROPERTY
G
SciTegic.value.DoubleValue
-0.648

@<SCITEGIC>MOL_PROPERTY
E
SciTegic.value.DoubleValue
-26.934

@<SCITEGIC>MOL_PROPERTY
-TS
SciTegic.value.DoubleValue
26.285

@<SCITEGIC>MOL_PROPERTY
U+W
SciTegic.value.DoubleValue
-47.501

@<SCITEGIC>MOL_PROPERTY
U
SciTegic.value.DoubleValue
13.323

@<SCITEGIC>MOL_PROPERTY
W
SciTegic.value.DoubleValue
-60.824

@<SCITEGIC>MOL_PROPERTY
W(PB)
SciTegic.value.DoubleValue
-63.154

@<SCITEGIC>MOL_PROPERTY
W(SA)
SciTegic.value.DoubleValue
2.329

@<SCITEGIC>MOL_PROPERTY
Valence
SciTegic.value.DoubleValue
10.989

@<SCITEGIC>MOL_PROPERTY
Coulomb
SciTegic.value.DoubleValue
2.084

@<SCITEGIC>MOL_PROPERTY
VdW
SciTegic.value.DoubleValue
0.250

@<SCITEGIC>MOL_PROPERTY
VdW6
SciTegic.value.DoubleValue
-13.144

@<SCITEGIC>MOL_PROPERTY
VdW12
SciTegic.value.DoubleValue
13.394

@<SCITEGIC>MOL_PROPERTY
Bond
SciTegic.value.DoubleValue
0.321

@<SCITEGIC>MOL_PROPERTY
Angle
SciTegic.value.DoubleValue
4.360

@<SCITEGIC>MOL_PROPERTY
Pdih
SciTegic.value.DoubleValue
6.292

@<SCITEGIC>MOL_PROPERTY
Idih
SciTegic.value.DoubleValue
0.016

@<SCITEGIC>MOL_PROPERTY
Tether
SciTegic.value.DoubleValue
0.000

@<TRIPOS>MOLECULE
guest-8_vm2.mol2 : vm2 ligand conformer 173
          25          24           1
SMALL
USER_CHARGES
 
@<TRIPOS>ATOM
       1    C1      20.130335   19.718583   26.518791 C.2        1 MOL1         0.6168
       2    O1      21.078881   20.477269   26.469141 O.co2      1 MOL1        -0.6703
       3    O2      19.006609   20.068573   26.822673 O.co2      1 MOL1        -0.6703
       4    C2      20.385903   18.229896   26.293476 C.3        1 MOL1        -0.1963
       5    H1      19.471649   17.671605   26.528067 H          1 MOL1         0.0750
       6    H2      21.134843   17.930167   27.035637 H          1 MOL1         0.0750
       7    C3      20.901035   17.852282   24.876116 C.3        1 MOL1        -0.1860
       8    H3      21.678996   18.558356   24.556668 H          1 MOL1         0.0752
       9    H4      21.398926   16.876131   24.949208 H          1 MOL1         0.0752
      10    C4      19.794362   17.730591   23.796264 C.3        1 MOL1        -0.1858
      11    H5      19.041546   17.007898   24.138746 H          1 MOL1         0.0752
      12    H6      20.233260   17.290429   22.891333 H          1 MOL1         0.0752
      13    C5      19.077258   19.050945   23.413563 C.3        1 MOL1        -0.1858
      14    H7      18.315850   18.829151   22.654670 H          1 MOL1         0.0752
      15    H8      18.518587   19.425852   24.280140 H          1 MOL1         0.0752
      16    C6      20.003818   20.178746   22.887207 C.3        1 MOL1        -0.1858
      17    H9      20.670354   20.507651   23.695220 H          1 MOL1         0.0752
      18    H10     19.385684   21.052382   22.640621 H          1 MOL1         0.0752
      19    C7      20.859539   19.806845   21.651214 C.3        1 MOL1        -0.1834
      20    H11     21.491622   20.667093   21.391840 H          1 MOL1         0.0752
      21    H12     21.547755   18.988602   21.901112 H          1 MOL1         0.0752
      22    C8      20.015260   19.420272   20.417555 C.3        1 MOL1        -0.2849
      23    H13     19.446620   18.499161   20.596657 H          1 MOL1         0.0764
      24    H14     19.306795   20.218477   20.160921 H          1 MOL1         0.0764
      25    H15     20.662094   19.248610   19.547592 H          1 MOL1         0.0764
@<TRIPOS>BOND
    1     1     2    1
    2     1     3    2
    3     1     4    1
    4     4     5    1
    5     4     6    1
    6     4     7    1
    7     7     8    1
    8     7     9    1
    9     7    10    1
   10    10    11    1
   11    10    12    1
   12    10    13    1
   13    13    14    1
   14    13    15    1
   15    13    16    1
   16    16    17    1
   17    16    18    1
   18    16    19    1
   19    19    20    1
   20    19    21    1
   21    19    22    1
   22    22    23    1
   23    22    24    1
   24    22    25    1
@<TRIPOS>SUBSTRUCTURE
       1 MOL1            1 RESIDUE      1      MOL     
@<SCITEGIC>MOL_PROPERTY
VM2 Rank
SciTegic.value.IntegerValue
173

@<SCITEGIC>MOL_PROPERTY
Conf_Id
SciTegic.value.IntegerValue
824

@<SCITEGIC>MOL_PROPERTY
Probability
SciTegic.value.DoubleValue
0.00

@<SCITEGIC>MOL_PROPERTY
Sum Probability
SciTegic.value.DoubleValue
100.00

@<SCITEGIC>MOL_PROPERTY
Delta G
SciTegic.value.DoubleValue
7.362

@<SCITEGIC>MOL_PROPERTY
G
SciTegic.value.DoubleValue
-0.601

@<SCITEGIC>MOL_PROPERTY
E
SciTegic.value.DoubleValue
-26.886

@<SCITEGIC>MOL_PROPERTY
-TS
SciTegic.value.DoubleValue
26.285

@<SCITEGIC>MOL_PROPERTY
U+W
SciTegic.value.DoubleValue
-47.453

@<SCITEGIC>MOL_PROPERTY
U
SciTegic.value.DoubleValue
13.323

@<SCITEGIC>MOL_PROPERTY
W
SciTegic.value.DoubleValue
-60.777

@<SCITEGIC>MOL_PROPERTY
W(PB)
SciTegic.value.DoubleValue
-63.095

@<SCITEGIC>MOL_PROPERTY
W(SA)
SciTegic.value.DoubleValue
2.319

@<SCITEGIC>MOL_PROPERTY
Valence
SciTegic.value.DoubleValue
10.989

@<SCITEGIC>MOL_PROPERTY
Coulomb
SciTegic.value.DoubleValue
2.084

@<SCITEGIC>MOL_PROPERTY
VdW
SciTegic.value.DoubleValue
0.250

@<SCITEGIC>MOL_PROPERTY
VdW6
SciTegic.value.DoubleValue
-13.143

@<SCITEGIC>MOL_PROPERTY
VdW12
SciTegic.value.DoubleValue
13.393

@<SCITEGIC>MOL_PROPERTY
Bond
SciTegic.value.DoubleValue
0.321

@<SCITEGIC>MOL_PROPERTY
Angle
SciTegic.value.DoubleValue
4.360

@<SCITEGIC>MOL_PROPERTY
Pdih
SciTegic.value.DoubleValue
6.292

@<SCITEGIC>MOL_PROPERTY
Idih
SciTegic.value.DoubleValue
0.016

@<SCITEGIC>MOL_PROPERTY
Tether
SciTegic.value.DoubleValue
0.000

@<TRIPOS>MOLECULE
guest-8_vm2.mol2 : vm2 ligand conformer 174
          25          24           1
SMALL
USER_CHARGES
 
@<TRIPOS>ATOM
       1    C1      20.837124   19.397916   26.581508 C.2        1 MOL1         0.6168
       2    O1      21.695432   20.184726   26.234111 O.co2      1 MOL1        -0.6703
       3    O2      20.545451   19.188765   27.742645 O.co2      1 MOL1        -0.6703
       4    C2      20.066221   18.648669   25.500838 C.3        1 MOL1        -0.1963
       5    H1      19.767076   17.676336   25.909786 H          1 MOL1         0.0750
       6    H2      20.756779   18.447376   24.676500 H          1 MOL1         0.0750
       7    C3      18.816165   19.425323   25.009035 C.3        1 MOL1        -0.1860
       8    H3      18.152352   19.571964   25.872268 H          1 MOL1         0.0752
       9    H4      19.097353   20.431572   24.670508 H          1 MOL1         0.0752
      10    C4      18.026618   18.686351   23.900051 C.3        1 MOL1        -0.1858
      11    H5      16.960378   18.907801   24.045082 H          1 MOL1         0.0752
      12    H6      18.121499   17.599184   24.026004 H          1 MOL1         0.0752
      13    C5      18.383597   19.086954   22.444010 C.3        1 MOL1        -0.1858
      14    H7      17.661250   18.587534   21.783969 H          1 MOL1         0.0752
      15    H8      18.219605   20.163387   22.298483 H          1 MOL1         0.0752
      16    C6      19.804732   18.692440   21.970621 C.3        1 MOL1        -0.1858
      17    H9      19.751187   18.413511   20.909398 H          1 MOL1         0.0752
      18    H10     20.144228   17.793388   22.501540 H          1 MOL1         0.0752
      19    C7      20.837399   19.834974   22.110437 C.3        1 MOL1        -0.1834
      20    H11     20.516168   20.695737   21.508083 H          1 MOL1         0.0752
      21    H12     20.891611   20.183746   23.148904 H          1 MOL1         0.0752
      22    C8      22.240261   19.387882   21.652743 C.3        1 MOL1        -0.2849
      23    H13     22.602050   18.549647   22.262463 H          1 MOL1         0.0764
      24    H14     22.228730   19.069187   20.602274 H          1 MOL1         0.0764
      25    H15     22.959062   20.211786   21.749946 H          1 MOL1         0.0764
@<TRIPOS>BOND
    1     1     2    1
    2     1     3    2
    3     1     4    1
    4     4     5    1
    5     4     6    1
    6     4     7    1
    7     7     8    1
    8     7     9    1
    9     7    10    1
   10    10    11    1
   11    10    12    1
   12    10    13    1
   13    13    14    1
   14    13    15    1
   15    13    16    1
   16    16    17    1
   17    16    18    1
   18    16    19    1
   19    19    20    1
   20    19    21    1
   21    19    22    1
   22    22    23    1
   23    22    24    1
   24    22    25    1
@<TRIPOS>SUBSTRUCTURE
       1 MOL1            1 RESIDUE      1      MOL     
@<SCITEGIC>MOL_PROPERTY
VM2 Rank
SciTegic.value.IntegerValue
174

@<SCITEGIC>MOL_PROPERTY
Conf_Id
SciTegic.value.IntegerValue
1081

@<SCITEGIC>MOL_PROPERTY
Probability
SciTegic.value.DoubleValue
0.00

@<SCITEGIC>MOL_PROPERTY
Sum Probability
SciTegic.value.DoubleValue
100.00

@<SCITEGIC>MOL_PROPERTY
Delta G
SciTegic.value.DoubleValue
7.437

@<SCITEGIC>MOL_PROPERTY
G
SciTegic.value.DoubleValue
-0.525

@<SCITEGIC>MOL_PROPERTY
E
SciTegic.value.DoubleValue
-25.861

@<SCITEGIC>MOL_PROPERTY
-TS
SciTegic.value.DoubleValue
25.335

@<SCITEGIC>MOL_PROPERTY
U+W
SciTegic.value.DoubleValue
-46.428

@<SCITEGIC>MOL_PROPERTY
U
SciTegic.value.DoubleValue
13.989

@<SCITEGIC>MOL_PROPERTY
W
SciTegic.value.DoubleValue
-60.417

@<SCITEGIC>MOL_PROPERTY
W(PB)
SciTegic.value.DoubleValue
-62.801

@<SCITEGIC>MOL_PROPERTY
W(SA)
SciTegic.value.DoubleValue
2.384

@<SCITEGIC>MOL_PROPERTY
Valence
SciTegic.value.DoubleValue
13.108

@<SCITEGIC>MOL_PROPERTY
Coulomb
SciTegic.value.DoubleValue
0.471

@<SCITEGIC>MOL_PROPERTY
VdW
SciTegic.value.DoubleValue
0.410

@<SCITEGIC>MOL_PROPERTY
VdW6
SciTegic.value.DoubleValue
-11.098

@<SCITEGIC>MOL_PROPERTY
VdW12
SciTegic.value.DoubleValue
11.507

@<SCITEGIC>MOL_PROPERTY
Bond
SciTegic.value.DoubleValue
0.254

@<SCITEGIC>MOL_PROPERTY
Angle
SciTegic.value.DoubleValue
3.732

@<SCITEGIC>MOL_PROPERTY
Pdih
SciTegic.value.DoubleValue
9.121

@<SCITEGIC>MOL_PROPERTY
Idih
SciTegic.value.DoubleValue
0.001

@<SCITEGIC>MOL_PROPERTY
Tether
SciTegic.value.DoubleValue
0.000

@<TRIPOS>MOLECULE
guest-8_vm2.mol2 : vm2 ligand conformer 175
          25          24           1
SMALL
USER_CHARGES
 
@<TRIPOS>ATOM
       1    C1      19.773699   18.688968   26.271176 C.2        1 MOL1         0.6168
       2    O1      20.608741   18.191789   27.001785 O.co2      1 MOL1        -0.6703
       3    O2      18.876125   18.055345   25.752207 O.co2      1 MOL1        -0.6703
       4    C2      19.814542   20.199800   26.047564 C.3        1 MOL1        -0.1963
       5    H1      19.596236   20.670162   27.013050 H          1 MOL1         0.0750
       6    H2      18.998507   20.483252   25.373779 H          1 MOL1         0.0750
       7    C3      21.170615   20.736629   25.514502 C.3        1 MOL1        -0.1860
       8    H3      21.140756   21.834373   25.496373 H          1 MOL1         0.0752
       9    H4      21.959491   20.467027   26.230320 H          1 MOL1         0.0752
      10    C4      21.573991   20.215098   24.111881 C.3        1 MOL1        -0.1858
      11    H5      21.637993   19.119821   24.124425 H          1 MOL1         0.0752
      12    H6      22.594167   20.568658   23.909792 H          1 MOL1         0.0752
      13    C5      20.659845   20.710484   22.959296 C.3        1 MOL1        -0.1858
      14    H7      20.177289   21.652377   23.253242 H          1 MOL1         0.0752
      15    H8      21.284964   20.958402   22.090657 H          1 MOL1         0.0752
      16    C6      19.577678   19.698664   22.506994 C.3        1 MOL1        -0.1858
      17    H9      18.863745   20.221403   21.856250 H          1 MOL1         0.0752
      18    H10     19.003345   19.342758   23.370824 H          1 MOL1         0.0752
      19    C7      20.157009   18.490518   21.735719 C.3        1 MOL1        -0.1834
      20    H11     20.739456   18.845088   20.874322 H          1 MOL1         0.0752
      21    H12     20.846385   17.925335   22.376084 H          1 MOL1         0.0752
      22    C8      19.040757   17.546705   21.244876 C.3        1 MOL1        -0.2849
      23    H13     18.350936   18.070274   20.570180 H          1 MOL1         0.0764
      24    H14     19.466361   16.693858   20.700434 H          1 MOL1         0.0764
      25    H15     18.461537   17.154153   22.091256 H          1 MOL1         0.0764
@<TRIPOS>BOND
    1     1     2    1
    2     1     3    2
    3     1     4    1
    4     4     5    1
    5     4     6    1
    6     4     7    1
    7     7     8    1
    8     7     9    1
    9     7    10    1
   10    10    11    1
   11    10    12    1
   12    10    13    1
   13    13    14    1
   14    13    15    1
   15    13    16    1
   16    16    17    1
   17    16    18    1
   18    16    19    1
   19    19    20    1
   20    19    21    1
   21    19    22    1
   22    22    23    1
   23    22    24    1
   24    22    25    1
@<TRIPOS>SUBSTRUCTURE
       1 MOL1            1 RESIDUE      1      MOL     
@<SCITEGIC>MOL_PROPERTY
VM2 Rank
SciTegic.value.IntegerValue
175

@<SCITEGIC>MOL_PROPERTY
Conf_Id
SciTegic.value.IntegerValue
859

@<SCITEGIC>MOL_PROPERTY
Probability
SciTegic.value.DoubleValue
0.00

@<SCITEGIC>MOL_PROPERTY
Sum Probability
SciTegic.value.DoubleValue
100.00

@<SCITEGIC>MOL_PROPERTY
Delta G
SciTegic.value.DoubleValue
7.547

@<SCITEGIC>MOL_PROPERTY
G
SciTegic.value.DoubleValue
-0.415

@<SCITEGIC>MOL_PROPERTY
E
SciTegic.value.DoubleValue
-25.618

@<SCITEGIC>MOL_PROPERTY
-TS
SciTegic.value.DoubleValue
25.202

@<SCITEGIC>MOL_PROPERTY
U+W
SciTegic.value.DoubleValue
-46.186

@<SCITEGIC>MOL_PROPERTY
U
SciTegic.value.DoubleValue
15.106

@<SCITEGIC>MOL_PROPERTY
W
SciTegic.value.DoubleValue
-61.292

@<SCITEGIC>MOL_PROPERTY
W(PB)
SciTegic.value.DoubleValue
-63.639

@<SCITEGIC>MOL_PROPERTY
W(SA)
SciTegic.value.DoubleValue
2.348

@<SCITEGIC>MOL_PROPERTY
Valence
SciTegic.value.DoubleValue
11.933

@<SCITEGIC>MOL_PROPERTY
Coulomb
SciTegic.value.DoubleValue
2.761

@<SCITEGIC>MOL_PROPERTY
VdW
SciTegic.value.DoubleValue
0.412

@<SCITEGIC>MOL_PROPERTY
VdW6
SciTegic.value.DoubleValue
-11.606

@<SCITEGIC>MOL_PROPERTY
VdW12
SciTegic.value.DoubleValue
12.018

@<SCITEGIC>MOL_PROPERTY
Bond
SciTegic.value.DoubleValue
0.273

@<SCITEGIC>MOL_PROPERTY
Angle
SciTegic.value.DoubleValue
3.594

@<SCITEGIC>MOL_PROPERTY
Pdih
SciTegic.value.DoubleValue
8.060

@<SCITEGIC>MOL_PROPERTY
Idih
SciTegic.value.DoubleValue
0.006

@<SCITEGIC>MOL_PROPERTY
Tether
SciTegic.value.DoubleValue
0.000

@<TRIPOS>MOLECULE
guest-8_vm2.mol2 : vm2 ligand conformer 176
          25          24           1
SMALL
USER_CHARGES
 
@<TRIPOS>ATOM
       1    C1      20.202815   19.200753   26.911286 C.2        1 MOL1         0.6168
       2    O1      21.221411   19.841290   27.082653 O.co2      1 MOL1        -0.6703
       3    O2      19.244453   19.250161   27.657428 O.co2      1 MOL1        -0.6703
       4    C2      20.132219   18.259512   25.712119 C.3        1 MOL1        -0.1963
       5    H1      19.800857   17.282766   26.083119 H          1 MOL1         0.0750
       6    H2      21.144831   18.115055   25.318588 H          1 MOL1         0.0750
       7    C3      19.172152   18.734884   24.587721 C.3        1 MOL1        -0.1860
       8    H3      19.126899   17.965826   23.806572 H          1 MOL1         0.0752
       9    H4      18.156170   18.807754   24.999264 H          1 MOL1         0.0752
      10    C4      19.551436   20.100303   23.957364 C.3        1 MOL1        -0.1858
      11    H5      19.492047   20.876263   24.732675 H          1 MOL1         0.0752
      12    H6      18.798431   20.378375   23.209908 H          1 MOL1         0.0752
      13    C5      20.959631   20.160090   23.313247 C.3        1 MOL1        -0.1858
      14    H7      21.119976   21.171142   22.915426 H          1 MOL1         0.0752
      15    H8      21.714268   20.035246   24.101175 H          1 MOL1         0.0752
      16    C6      21.241639   19.129790   22.187628 C.3        1 MOL1        -0.1858
      17    H9      21.123882   18.103772   22.559607 H          1 MOL1         0.0752
      18    H10     22.304066   19.223912   21.924969 H          1 MOL1         0.0752
      19    C7      20.418702   19.337071   20.890751 C.3        1 MOL1        -0.1834
      20    H11     20.205795   20.404458   20.741442 H          1 MOL1         0.0752
      21    H12     21.036360   19.027352   20.036472 H          1 MOL1         0.0752
      22    C8      19.108541   18.520147   20.845804 C.3        1 MOL1        -0.2849
      23    H13     18.403913   18.835352   21.622633 H          1 MOL1         0.0764
      24    H14     18.610941   18.648693   19.875982 H          1 MOL1         0.0764
      25    H15     19.309481   17.449504   20.980695 H          1 MOL1         0.0764
@<TRIPOS>BOND
    1     1     2    1
    2     1     3    2
    3     1     4    1
    4     4     5    1
    5     4     6    1
    6     4     7    1
    7     7     8    1
    8     7     9    1
    9     7    10    1
   10    10    11    1
   11    10    12    1
   12    10    13    1
   13    13    14    1
   14    13    15    1
   15    13    16    1
   16    16    17    1
   17    16    18    1
   18    16    19    1
   19    19    20    1
   20    19    21    1
   21    19    22    1
   22    22    23    1
   23    22    24    1
   24    22    25    1
@<TRIPOS>SUBSTRUCTURE
       1 MOL1            1 RESIDUE      1      MOL     
@<SCITEGIC>MOL_PROPERTY
VM2 Rank
SciTegic.value.IntegerValue
176

@<SCITEGIC>MOL_PROPERTY
Conf_Id
SciTegic.value.IntegerValue
751

@<SCITEGIC>MOL_PROPERTY
Probability
SciTegic.value.DoubleValue
0.00

@<SCITEGIC>MOL_PROPERTY
Sum Probability
SciTegic.value.DoubleValue
100.00

@<SCITEGIC>MOL_PROPERTY
Delta G
SciTegic.value.DoubleValue
7.597

@<SCITEGIC>MOL_PROPERTY
G
SciTegic.value.DoubleValue
-0.366

@<SCITEGIC>MOL_PROPERTY
E
SciTegic.value.DoubleValue
-26.191

@<SCITEGIC>MOL_PROPERTY
-TS
SciTegic.value.DoubleValue
25.825

@<SCITEGIC>MOL_PROPERTY
U+W
SciTegic.value.DoubleValue
-46.758

@<SCITEGIC>MOL_PROPERTY
U
SciTegic.value.DoubleValue
13.457

@<SCITEGIC>MOL_PROPERTY
W
SciTegic.value.DoubleValue
-60.216

@<SCITEGIC>MOL_PROPERTY
W(PB)
SciTegic.value.DoubleValue
-62.549

@<SCITEGIC>MOL_PROPERTY
W(SA)
SciTegic.value.DoubleValue
2.334

@<SCITEGIC>MOL_PROPERTY
Valence
SciTegic.value.DoubleValue
11.827

@<SCITEGIC>MOL_PROPERTY
Coulomb
SciTegic.value.DoubleValue
1.257

@<SCITEGIC>MOL_PROPERTY
VdW
SciTegic.value.DoubleValue
0.373

@<SCITEGIC>MOL_PROPERTY
VdW6
SciTegic.value.DoubleValue
-12.463

@<SCITEGIC>MOL_PROPERTY
VdW12
SciTegic.value.DoubleValue
12.835

@<SCITEGIC>MOL_PROPERTY
Bond
SciTegic.value.DoubleValue
0.314

@<SCITEGIC>MOL_PROPERTY
Angle
SciTegic.value.DoubleValue
4.265

@<SCITEGIC>MOL_PROPERTY
Pdih
SciTegic.value.DoubleValue
7.247

@<SCITEGIC>MOL_PROPERTY
Idih
SciTegic.value.DoubleValue
0.001

@<SCITEGIC>MOL_PROPERTY
Tether
SciTegic.value.DoubleValue
0.000

@<TRIPOS>MOLECULE
guest-8_vm2.mol2 : vm2 ligand conformer 177
          25          24           1
SMALL
USER_CHARGES
 
@<TRIPOS>ATOM
       1    C1      20.082276   19.028944   26.880564 C.2        1 MOL1         0.6168
       2    O1      20.474450   17.883772   26.990414 O.co2      1 MOL1        -0.6703
       3    O2      18.994659   19.405596   27.271515 O.co2      1 MOL1        -0.6703
       4    C2      21.032764   20.060638   26.276454 C.3        1 MOL1        -0.1963
       5    H1      21.983668   19.571023   26.033945 H          1 MOL1         0.0750
       6    H2      21.246849   20.783526   27.072120 H          1 MOL1         0.0750
       7    C3      20.486217   20.822293   25.035896 C.3        1 MOL1        -0.1860
       8    H3      19.440794   21.115804   25.204649 H          1 MOL1         0.0752
       9    H4      21.050702   21.759774   24.941526 H          1 MOL1         0.0752
      10    C4      20.615486   20.060663   23.692983 C.3        1 MOL1        -0.1858
      11    H5      21.657743   19.749161   23.541095 H          1 MOL1         0.0752
      12    H6      20.379055   20.768695   22.889094 H          1 MOL1         0.0752
      13    C5      19.679070   18.835766   23.568611 C.3        1 MOL1        -0.1858
      14    H7      19.896550   18.126463   24.375754 H          1 MOL1         0.0752
      15    H8      18.637523   19.155241   23.708948 H          1 MOL1         0.0752
      16    C6      19.808844   18.070399   22.227315 C.3        1 MOL1        -0.1858
      17    H9      19.144146   17.197347   22.280254 H          1 MOL1         0.0752
      18    H10     20.824564   17.664910   22.123483 H          1 MOL1         0.0752
      19    C7      19.426775   18.891636   20.970394 C.3        1 MOL1        -0.1834
      20    H11     18.888389   18.236483   20.271681 H          1 MOL1         0.0752
      21    H12     18.725470   19.694170   21.237506 H          1 MOL1         0.0752
      22    C8      20.652459   19.474294   20.231854 C.3        1 MOL1        -0.2849
      23    H13     21.236370   20.142657   20.875032 H          1 MOL1         0.0764
      24    H14     21.317258   18.671744   19.886819 H          1 MOL1         0.0764
      25    H15     20.334057   20.047930   19.351876 H          1 MOL1         0.0764
@<TRIPOS>BOND
    1     1     2    1
    2     1     3    2
    3     1     4    1
    4     4     5    1
    5     4     6    1
    6     4     7    1
    7     7     8    1
    8     7     9    1
    9     7    10    1
   10    10    11    1
   11    10    12    1
   12    10    13    1
   13    13    14    1
   14    13    15    1
   15    13    16    1
   16    16    17    1
   17    16    18    1
   18    16    19    1
   19    19    20    1
   20    19    21    1
   21    19    22    1
   22    22    23    1
   23    22    24    1
   24    22    25    1
@<TRIPOS>SUBSTRUCTURE
       1 MOL1            1 RESIDUE      1      MOL     
@<SCITEGIC>MOL_PROPERTY
VM2 Rank
SciTegic.value.IntegerValue
177

@<SCITEGIC>MOL_PROPERTY
Conf_Id
SciTegic.value.IntegerValue
230

@<SCITEGIC>MOL_PROPERTY
Probability
SciTegic.value.DoubleValue
0.00

@<SCITEGIC>MOL_PROPERTY
Sum Probability
SciTegic.value.DoubleValue
100.00

@<SCITEGIC>MOL_PROPERTY
Delta G
SciTegic.value.DoubleValue
7.650

@<SCITEGIC>MOL_PROPERTY
G
SciTegic.value.DoubleValue
-0.312

@<SCITEGIC>MOL_PROPERTY
E
SciTegic.value.DoubleValue
-25.489

@<SCITEGIC>MOL_PROPERTY
-TS
SciTegic.value.DoubleValue
25.177

@<SCITEGIC>MOL_PROPERTY
U+W
SciTegic.value.DoubleValue
-46.056

@<SCITEGIC>MOL_PROPERTY
U
SciTegic.value.DoubleValue
14.423

@<SCITEGIC>MOL_PROPERTY
W
SciTegic.value.DoubleValue
-60.479

@<SCITEGIC>MOL_PROPERTY
W(PB)
SciTegic.value.DoubleValue
-62.879

@<SCITEGIC>MOL_PROPERTY
W(SA)
SciTegic.value.DoubleValue
2.400

@<SCITEGIC>MOL_PROPERTY
Valence
SciTegic.value.DoubleValue
12.698

@<SCITEGIC>MOL_PROPERTY
Coulomb
SciTegic.value.DoubleValue
0.772

@<SCITEGIC>MOL_PROPERTY
VdW
SciTegic.value.DoubleValue
0.953

@<SCITEGIC>MOL_PROPERTY
VdW6
SciTegic.value.DoubleValue
-11.272

@<SCITEGIC>MOL_PROPERTY
VdW12
SciTegic.value.DoubleValue
12.225

@<SCITEGIC>MOL_PROPERTY
Bond
SciTegic.value.DoubleValue
0.285

@<SCITEGIC>MOL_PROPERTY
Angle
SciTegic.value.DoubleValue
4.020

@<SCITEGIC>MOL_PROPERTY
Pdih
SciTegic.value.DoubleValue
8.388

@<SCITEGIC>MOL_PROPERTY
Idih
SciTegic.value.DoubleValue
0.006

@<SCITEGIC>MOL_PROPERTY
Tether
SciTegic.value.DoubleValue
0.000

@<TRIPOS>MOLECULE
guest-8_vm2.mol2 : vm2 ligand conformer 178
          25          24           1
SMALL
USER_CHARGES
 
@<TRIPOS>ATOM
       1    C1      20.502757   19.211197   26.751818 C.2        1 MOL1         0.6168
       2    O1      21.345994   20.081552   26.847241 O.co2      1 MOL1        -0.6703
       3    O2      20.721697   18.037690   26.980441 O.co2      1 MOL1        -0.6703
       4    C2      19.075360   19.620948   26.393776 C.3        1 MOL1        -0.1963
       5    H1      18.728295   20.270369   27.205711 H          1 MOL1         0.0750
       6    H2      18.434635   18.730992   26.407878 H          1 MOL1         0.0750
       7    C3      18.921366   20.374180   25.042489 C.3        1 MOL1        -0.1860
       8    H3      17.970968   20.924182   25.066523 H          1 MOL1         0.0752
       9    H4      19.708323   21.135106   24.946289 H          1 MOL1         0.0752
      10    C4      18.908557   19.464591   23.788917 C.3        1 MOL1        -0.1858
      11    H5      18.644393   20.083167   22.923003 H          1 MOL1         0.0752
      12    H6      18.107457   18.719054   23.883464 H          1 MOL1         0.0752
      13    C5      20.252548   18.744593   23.520254 C.3        1 MOL1        -0.1858
      14    H7      21.089905   19.451046   23.602071 H          1 MOL1         0.0752
      15    H8      20.406545   17.992520   24.304384 H          1 MOL1         0.0752
      16    C6      20.295753   18.022977   22.149160 C.3        1 MOL1        -0.1858
      17    H9      19.283801   17.723204   21.844283 H          1 MOL1         0.0752
      18    H10     20.859537   17.088262   22.272954 H          1 MOL1         0.0752
      19    C7      20.976728   18.831524   21.017081 C.3        1 MOL1        -0.1834
      20    H11     22.015193   19.054258   21.298553 H          1 MOL1         0.0752
      21    H12     21.030355   18.199670   20.119861 H          1 MOL1         0.0752
      22    C8      20.252241   20.144747   20.654822 C.3        1 MOL1        -0.2849
      23    H13     19.197436   19.959076   20.414399 H          1 MOL1         0.0764
      24    H14     20.300215   20.864116   21.481995 H          1 MOL1         0.0764
      25    H15     20.721495   20.613645   19.780374 H          1 MOL1         0.0764
@<TRIPOS>BOND
    1     1     2    1
    2     1     3    2
    3     1     4    1
    4     4     5    1
    5     4     6    1
    6     4     7    1
    7     7     8    1
    8     7     9    1
    9     7    10    1
   10    10    11    1
   11    10    12    1
   12    10    13    1
   13    13    14    1
   14    13    15    1
   15    13    16    1
   16    16    17    1
   17    16    18    1
   18    16    19    1
   19    19    20    1
   20    19    21    1
   21    19    22    1
   22    22    23    1
   23    22    24    1
   24    22    25    1
@<TRIPOS>SUBSTRUCTURE
       1 MOL1            1 RESIDUE      1      MOL     
@<SCITEGIC>MOL_PROPERTY
VM2 Rank
SciTegic.value.IntegerValue
178

@<SCITEGIC>MOL_PROPERTY
Conf_Id
SciTegic.value.IntegerValue
229

@<SCITEGIC>MOL_PROPERTY
Probability
SciTegic.value.DoubleValue
0.00

@<SCITEGIC>MOL_PROPERTY
Sum Probability
SciTegic.value.DoubleValue
100.00

@<SCITEGIC>MOL_PROPERTY
Delta G
SciTegic.value.DoubleValue
7.727

@<SCITEGIC>MOL_PROPERTY
G
SciTegic.value.DoubleValue
-0.236

@<SCITEGIC>MOL_PROPERTY
E
SciTegic.value.DoubleValue
-25.681

@<SCITEGIC>MOL_PROPERTY
-TS
SciTegic.value.DoubleValue
25.446

@<SCITEGIC>MOL_PROPERTY
U+W
SciTegic.value.DoubleValue
-46.249

@<SCITEGIC>MOL_PROPERTY
U
SciTegic.value.DoubleValue
14.482

@<SCITEGIC>MOL_PROPERTY
W
SciTegic.value.DoubleValue
-60.730

@<SCITEGIC>MOL_PROPERTY
W(PB)
SciTegic.value.DoubleValue
-63.110

@<SCITEGIC>MOL_PROPERTY
W(SA)
SciTegic.value.DoubleValue
2.380

@<SCITEGIC>MOL_PROPERTY
Valence
SciTegic.value.DoubleValue
12.477

@<SCITEGIC>MOL_PROPERTY
Coulomb
SciTegic.value.DoubleValue
1.221

@<SCITEGIC>MOL_PROPERTY
VdW
SciTegic.value.DoubleValue
0.784

@<SCITEGIC>MOL_PROPERTY
VdW6
SciTegic.value.DoubleValue
-11.565

@<SCITEGIC>MOL_PROPERTY
VdW12
SciTegic.value.DoubleValue
12.349

@<SCITEGIC>MOL_PROPERTY
Bond
SciTegic.value.DoubleValue
0.279

@<SCITEGIC>MOL_PROPERTY
Angle
SciTegic.value.DoubleValue
3.853

@<SCITEGIC>MOL_PROPERTY
Pdih
SciTegic.value.DoubleValue
8.338

@<SCITEGIC>MOL_PROPERTY
Idih
SciTegic.value.DoubleValue
0.007

@<SCITEGIC>MOL_PROPERTY
Tether
SciTegic.value.DoubleValue
0.000

@<TRIPOS>MOLECULE
guest-8_vm2.mol2 : vm2 ligand conformer 179
          25          24           1
SMALL
USER_CHARGES
 
@<TRIPOS>ATOM
       1    C1      20.312292   19.022136   26.862835 C.2        1 MOL1         0.6168
       2    O1      21.444559   19.445280   26.989315 O.co2      1 MOL1        -0.6703
       3    O2      19.450765   19.143634   27.711667 O.co2      1 MOL1        -0.6703
       4    C2      19.957772   18.274192   25.580745 C.3        1 MOL1        -0.1963
       5    H1      19.467272   17.339406   25.875987 H          1 MOL1         0.0750
       6    H2      20.886179   17.988592   25.074789 H          1 MOL1         0.0750
       7    C3      19.021788   19.062083   24.622574 C.3        1 MOL1        -0.1860
       8    H3      18.740322   18.414474   23.785159 H          1 MOL1         0.0752
       9    H4      18.088386   19.284614   25.157616 H          1 MOL1         0.0752
      10    C4      19.615324   20.394918   24.094461 C.3        1 MOL1        -0.1858
      11    H5      19.903698   21.009359   24.958225 H          1 MOL1         0.0752
      12    H6      18.829191   20.964103   23.580359 H          1 MOL1         0.0752
      13    C5      20.844708   20.255573   23.156263 C.3        1 MOL1        -0.1858
      14    H7      21.492939   21.124857   23.331241 H          1 MOL1         0.0752
      15    H8      21.455383   19.386458   23.425443 H          1 MOL1         0.0752
      16    C6      20.510236   20.236976   21.641005 C.3        1 MOL1        -0.1858
      17    H9      21.451767   20.276150   21.076555 H          1 MOL1         0.0752
      18    H10     19.970296   21.158893   21.385894 H          1 MOL1         0.0752
      19    C7      19.688694   19.025423   21.140430 C.3        1 MOL1        -0.1834
      20    H11     18.704177   19.010569   21.624209 H          1 MOL1         0.0752
      21    H12     19.493013   19.157309   20.067482 H          1 MOL1         0.0752
      22    C8      20.406863   17.673786   21.346707 C.3        1 MOL1        -0.2849
      23    H13     20.553199   17.455540   22.411566 H          1 MOL1         0.0764
      24    H14     19.816043   16.854995   20.916474 H          1 MOL1         0.0764
      25    H15     21.390195   17.674393   20.858985 H          1 MOL1         0.0764
@<TRIPOS>BOND
    1     1     2    1
    2     1     3    2
    3     1     4    1
    4     4     5    1
    5     4     6    1
    6     4     7    1
    7     7     8    1
    8     7     9    1
    9     7    10    1
   10    10    11    1
   11    10    12    1
   12    10    13    1
   13    13    14    1
   14    13    15    1
   15    13    16    1
   16    16    17    1
   17    16    18    1
   18    16    19    1
   19    19    20    1
   20    19    21    1
   21    19    22    1
   22    22    23    1
   23    22    24    1
   24    22    25    1
@<TRIPOS>SUBSTRUCTURE
       1 MOL1            1 RESIDUE      1      MOL     
@<SCITEGIC>MOL_PROPERTY
VM2 Rank
SciTegic.value.IntegerValue
179

@<SCITEGIC>MOL_PROPERTY
Conf_Id
SciTegic.value.IntegerValue
735

@<SCITEGIC>MOL_PROPERTY
Probability
SciTegic.value.DoubleValue
0.00

@<SCITEGIC>MOL_PROPERTY
Sum Probability
SciTegic.value.DoubleValue
100.00

@<SCITEGIC>MOL_PROPERTY
Delta G
SciTegic.value.DoubleValue
7.747

@<SCITEGIC>MOL_PROPERTY
G
SciTegic.value.DoubleValue
-0.215

@<SCITEGIC>MOL_PROPERTY
E
SciTegic.value.DoubleValue
-25.868

@<SCITEGIC>MOL_PROPERTY
-TS
SciTegic.value.DoubleValue
25.653

@<SCITEGIC>MOL_PROPERTY
U+W
SciTegic.value.DoubleValue
-46.436

@<SCITEGIC>MOL_PROPERTY
U
SciTegic.value.DoubleValue
13.852

@<SCITEGIC>MOL_PROPERTY
W
SciTegic.value.DoubleValue
-60.287

@<SCITEGIC>MOL_PROPERTY
W(PB)
SciTegic.value.DoubleValue
-62.650

@<SCITEGIC>MOL_PROPERTY
W(SA)
SciTegic.value.DoubleValue
2.363

@<SCITEGIC>MOL_PROPERTY
Valence
SciTegic.value.DoubleValue
12.137

@<SCITEGIC>MOL_PROPERTY
Coulomb
SciTegic.value.DoubleValue
1.191

@<SCITEGIC>MOL_PROPERTY
VdW
SciTegic.value.DoubleValue
0.523

@<SCITEGIC>MOL_PROPERTY
VdW6
SciTegic.value.DoubleValue
-12.148

@<SCITEGIC>MOL_PROPERTY
VdW12
SciTegic.value.DoubleValue
12.671

@<SCITEGIC>MOL_PROPERTY
Bond
SciTegic.value.DoubleValue
0.336

@<SCITEGIC>MOL_PROPERTY
Angle
SciTegic.value.DoubleValue
4.319

@<SCITEGIC>MOL_PROPERTY
Pdih
SciTegic.value.DoubleValue
7.481

@<SCITEGIC>MOL_PROPERTY
Idih
SciTegic.value.DoubleValue
0.001

@<SCITEGIC>MOL_PROPERTY
Tether
SciTegic.value.DoubleValue
0.000

@<TRIPOS>MOLECULE
guest-8_vm2.mol2 : vm2 ligand conformer 180
          25          24           1
SMALL
USER_CHARGES
 
@<TRIPOS>ATOM
       1    C1      20.503781   19.680352   26.520556 C.2        1 MOL1         0.6168
       2    O1      21.445058   20.382694   26.207672 O.co2      1 MOL1        -0.6703
       3    O2      19.552540   20.080902   27.162810 O.co2      1 MOL1        -0.6703
       4    C2      20.554393   18.200370   26.146215 C.3        1 MOL1        -0.1963
       5    H1      20.604319   17.645534   27.090176 H          1 MOL1         0.0750
       6    H2      21.492161   17.999685   25.614092 H          1 MOL1         0.0750
       7    C3      19.344513   17.682542   25.318393 C.3        1 MOL1        -0.1860
       8    H3      19.301693   16.590638   25.429231 H          1 MOL1         0.0752
       9    H4      18.406499   18.066129   25.743226 H          1 MOL1         0.0752
      10    C4      19.412941   17.999608   23.803844 C.3        1 MOL1        -0.1858
      11    H5      18.609461   17.442037   23.303821 H          1 MOL1         0.0752
      12    H6      20.352763   17.611670   23.393977 H          1 MOL1         0.0752
      13    C5      19.253248   19.503142   23.467851 C.3        1 MOL1        -0.1858
      14    H7      18.338636   19.868029   23.954777 H          1 MOL1         0.0752
      15    H8      20.080278   20.086977   23.890331 H          1 MOL1         0.0752
      16    C6      19.147028   19.785054   21.946920 C.3        1 MOL1        -0.1858
      17    H9      18.454222   20.625553   21.804255 H          1 MOL1         0.0752
      18    H10     18.688821   18.930862   21.430286 H          1 MOL1         0.0752
      19    C7      20.484115   20.164292   21.263197 C.3        1 MOL1        -0.1834
      20    H11     20.279741   20.413833   20.212931 H          1 MOL1         0.0752
      21    H12     20.886454   21.077327   21.723453 H          1 MOL1         0.0752
      22    C8      21.555384   19.055044   21.308543 C.3        1 MOL1        -0.2849
      23    H13     21.156625   18.105378   20.929038 H          1 MOL1         0.0764
      24    H14     22.420039   19.331046   20.691388 H          1 MOL1         0.0764
      25    H15     21.917673   18.898757   22.332294 H          1 MOL1         0.0764
@<TRIPOS>BOND
    1     1     2    1
    2     1     3    2
    3     1     4    1
    4     4     5    1
    5     4     6    1
    6     4     7    1
    7     7     8    1
    8     7     9    1
    9     7    10    1
   10    10    11    1
   11    10    12    1
   12    10    13    1
   13    13    14    1
   14    13    15    1
   15    13    16    1
   16    16    17    1
   17    16    18    1
   18    16    19    1
   19    19    20    1
   20    19    21    1
   21    19    22    1
   22    22    23    1
   23    22    24    1
   24    22    25    1
@<TRIPOS>SUBSTRUCTURE
       1 MOL1            1 RESIDUE      1      MOL     
@<SCITEGIC>MOL_PROPERTY
VM2 Rank
SciTegic.value.IntegerValue
180

@<SCITEGIC>MOL_PROPERTY
Conf_Id
SciTegic.value.IntegerValue
498

@<SCITEGIC>MOL_PROPERTY
Probability
SciTegic.value.DoubleValue
0.00

@<SCITEGIC>MOL_PROPERTY
Sum Probability
SciTegic.value.DoubleValue
100.00

@<SCITEGIC>MOL_PROPERTY
Delta G
SciTegic.value.DoubleValue
7.751

@<SCITEGIC>MOL_PROPERTY
G
SciTegic.value.DoubleValue
-0.211

@<SCITEGIC>MOL_PROPERTY
E
SciTegic.value.DoubleValue
-25.433

@<SCITEGIC>MOL_PROPERTY
-TS
SciTegic.value.DoubleValue
25.222

@<SCITEGIC>MOL_PROPERTY
U+W
SciTegic.value.DoubleValue
-46.001

@<SCITEGIC>MOL_PROPERTY
U
SciTegic.value.DoubleValue
15.041

@<SCITEGIC>MOL_PROPERTY
W
SciTegic.value.DoubleValue
-61.042

@<SCITEGIC>MOL_PROPERTY
W(PB)
SciTegic.value.DoubleValue
-63.404

@<SCITEGIC>MOL_PROPERTY
W(SA)
SciTegic.value.DoubleValue
2.363

@<SCITEGIC>MOL_PROPERTY
Valence
SciTegic.value.DoubleValue
12.413

@<SCITEGIC>MOL_PROPERTY
Coulomb
SciTegic.value.DoubleValue
1.925

@<SCITEGIC>MOL_PROPERTY
VdW
SciTegic.value.DoubleValue
0.703

@<SCITEGIC>MOL_PROPERTY
VdW6
SciTegic.value.DoubleValue
-11.649

@<SCITEGIC>MOL_PROPERTY
VdW12
SciTegic.value.DoubleValue
12.351

@<SCITEGIC>MOL_PROPERTY
Bond
SciTegic.value.DoubleValue
0.287

@<SCITEGIC>MOL_PROPERTY
Angle
SciTegic.value.DoubleValue
3.936

@<SCITEGIC>MOL_PROPERTY
Pdih
SciTegic.value.DoubleValue
8.183

@<SCITEGIC>MOL_PROPERTY
Idih
SciTegic.value.DoubleValue
0.007

@<SCITEGIC>MOL_PROPERTY
Tether
SciTegic.value.DoubleValue
0.000

@<TRIPOS>MOLECULE
guest-8_vm2.mol2 : vm2 ligand conformer 181
          25          24           1
SMALL
USER_CHARGES
 
@<TRIPOS>ATOM
       1    C1      19.746354   19.631883   26.529295 C.2        1 MOL1         0.6168
       2    O1      20.653377   20.151382   27.149958 O.co2      1 MOL1        -0.6703
       3    O2      18.716276   20.208063   26.239224 O.co2      1 MOL1        -0.6703
       4    C2      19.876209   18.156947   26.154137 C.3        1 MOL1        -0.1963
       5    H1      18.959638   17.837530   25.643544 H          1 MOL1         0.0750
       6    H2      19.919234   17.601734   27.098217 H          1 MOL1         0.0750
       7    C3      21.122784   17.796284   25.297849 C.3        1 MOL1        -0.1860
       8    H3      22.013827   18.296890   25.701494 H          1 MOL1         0.0752
       9    H4      21.306929   16.718901   25.406053 H          1 MOL1         0.0752
      10    C4      20.979593   18.099814   23.785750 C.3        1 MOL1        -0.1858
      11    H5      20.087622   17.594741   23.397110 H          1 MOL1         0.0752
      12    H6      21.835783   17.648371   23.266495 H          1 MOL1         0.0752
      13    C5      20.938719   19.610947   23.448388 C.3        1 MOL1        -0.1858
      14    H7      20.054019   20.085314   23.890670 H          1 MOL1         0.0752
      15    H8      21.810382   20.090055   23.914668 H          1 MOL1         0.0752
      16    C6      20.973118   19.901877   21.925835 C.3        1 MOL1        -0.1858
      17    H9      21.524385   19.112265   21.397511 H          1 MOL1         0.0752
      18    H10     21.549740   20.823576   21.768514 H          1 MOL1         0.0752
      19    C7      19.583232   20.106713   21.273644 C.3        1 MOL1        -0.1834
      20    H11     19.078557   20.961700   21.744437 H          1 MOL1         0.0752
      21    H12     19.729923   20.378777   20.219338 H          1 MOL1         0.0752
      22    C8      18.663337   18.870090   21.341920 C.3        1 MOL1        -0.2849
      23    H13     18.347587   18.670342   22.373494 H          1 MOL1         0.0764
      24    H14     17.756579   19.032829   20.745269 H          1 MOL1         0.0764
      25    H15     19.170982   17.978436   20.951856 H          1 MOL1         0.0764
@<TRIPOS>BOND
    1     1     2    1
    2     1     3    2
    3     1     4    1
    4     4     5    1
    5     4     6    1
    6     4     7    1
    7     7     8    1
    8     7     9    1
    9     7    10    1
   10    10    11    1
   11    10    12    1
   12    10    13    1
   13    13    14    1
   14    13    15    1
   15    13    16    1
   16    16    17    1
   17    16    18    1
   18    16    19    1
   19    19    20    1
   20    19    21    1
   21    19    22    1
   22    22    23    1
   23    22    24    1
   24    22    25    1
@<TRIPOS>SUBSTRUCTURE
       1 MOL1            1 RESIDUE      1      MOL     
@<SCITEGIC>MOL_PROPERTY
VM2 Rank
SciTegic.value.IntegerValue
181

@<SCITEGIC>MOL_PROPERTY
Conf_Id
SciTegic.value.IntegerValue
716

@<SCITEGIC>MOL_PROPERTY
Probability
SciTegic.value.DoubleValue
0.00

@<SCITEGIC>MOL_PROPERTY
Sum Probability
SciTegic.value.DoubleValue
100.00

@<SCITEGIC>MOL_PROPERTY
Delta G
SciTegic.value.DoubleValue
7.755

@<SCITEGIC>MOL_PROPERTY
G
SciTegic.value.DoubleValue
-0.207

@<SCITEGIC>MOL_PROPERTY
E
SciTegic.value.DoubleValue
-25.429

@<SCITEGIC>MOL_PROPERTY
-TS
SciTegic.value.DoubleValue
25.222

@<SCITEGIC>MOL_PROPERTY
U+W
SciTegic.value.DoubleValue
-45.997

@<SCITEGIC>MOL_PROPERTY
U
SciTegic.value.DoubleValue
15.041

@<SCITEGIC>MOL_PROPERTY
W
SciTegic.value.DoubleValue
-61.037

@<SCITEGIC>MOL_PROPERTY
W(PB)
SciTegic.value.DoubleValue
-63.387

@<SCITEGIC>MOL_PROPERTY
W(SA)
SciTegic.value.DoubleValue
2.349

@<SCITEGIC>MOL_PROPERTY
Valence
SciTegic.value.DoubleValue
12.413

@<SCITEGIC>MOL_PROPERTY
Coulomb
SciTegic.value.DoubleValue
1.926

@<SCITEGIC>MOL_PROPERTY
VdW
SciTegic.value.DoubleValue
0.703

@<SCITEGIC>MOL_PROPERTY
VdW6
SciTegic.value.DoubleValue
-11.649

@<SCITEGIC>MOL_PROPERTY
VdW12
SciTegic.value.DoubleValue
12.351

@<SCITEGIC>MOL_PROPERTY
Bond
SciTegic.value.DoubleValue
0.287

@<SCITEGIC>MOL_PROPERTY
Angle
SciTegic.value.DoubleValue
3.936

@<SCITEGIC>MOL_PROPERTY
Pdih
SciTegic.value.DoubleValue
8.183

@<SCITEGIC>MOL_PROPERTY
Idih
SciTegic.value.DoubleValue
0.007

@<SCITEGIC>MOL_PROPERTY
Tether
SciTegic.value.DoubleValue
0.000

@<TRIPOS>MOLECULE
guest-8_vm2.mol2 : vm2 ligand conformer 182
          25          24           1
SMALL
USER_CHARGES
 
@<TRIPOS>ATOM
       1    C1      20.126045   19.662256   26.747040 C.2        1 MOL1         0.6168
       2    O1      21.131731   20.338061   26.844789 O.co2      1 MOL1        -0.6703
       3    O2      19.008065   20.089424   26.959099 O.co2      1 MOL1        -0.6703
       4    C2      20.278530   18.180417   26.408739 C.3        1 MOL1        -0.1963
       5    H1      19.288546   17.708624   26.418469 H          1 MOL1         0.0750
       6    H2      20.847346   17.733264   27.232113 H          1 MOL1         0.0750
       7    C3      21.006108   17.878184   25.068467 C.3        1 MOL1        -0.1860
       8    H3      21.896021   18.515847   24.973566 H          1 MOL1         0.0752
       9    H4      21.377696   16.845414   25.109010 H          1 MOL1         0.0752
      10    C4      20.121716   18.012135   23.804007 C.3        1 MOL1        -0.1858
      11    H5      19.244466   17.357763   23.897574 H          1 MOL1         0.0752
      12    H6      20.692205   17.631483   22.948511 H          1 MOL1         0.0752
      13    C5      19.655446   19.459435   23.512782 C.3        1 MOL1        -0.1858
      14    H7      18.934829   19.754454   24.286000 H          1 MOL1         0.0752
      15    H8      20.498891   20.158597   23.594692 H          1 MOL1         0.0752
      16    C6      18.967183   19.613605   22.132560 C.3        1 MOL1        -0.1858
      17    H9      18.146656   20.336281   22.239080 H          1 MOL1         0.0752
      18    H10     18.495042   18.667534   21.834406 H          1 MOL1         0.0752
      19    C7      19.895705   20.125802   21.003586 C.3        1 MOL1        -0.1834
      20    H11     19.292764   20.280074   20.098169 H          1 MOL1         0.0752
      21    H12     20.297011   21.111385   21.277129 H          1 MOL1         0.0752
      22    C8      21.062472   19.174680   20.664931 C.3        1 MOL1        -0.2849
      23    H13     21.770374   19.103995   21.500327 H          1 MOL1         0.0764
      24    H14     20.694312   18.166904   20.433121 H          1 MOL1         0.0764
      25    H15     21.616398   19.542151   19.791514 H          1 MOL1         0.0764
@<TRIPOS>BOND
    1     1     2    1
    2     1     3    2
    3     1     4    1
    4     4     5    1
    5     4     6    1
    6     4     7    1
    7     7     8    1
    8     7     9    1
    9     7    10    1
   10    10    11    1
   11    10    12    1
   12    10    13    1
   13    13    14    1
   14    13    15    1
   15    13    16    1
   16    16    17    1
   17    16    18    1
   18    16    19    1
   19    19    20    1
   20    19    21    1
   21    19    22    1
   22    22    23    1
   23    22    24    1
   24    22    25    1
@<TRIPOS>SUBSTRUCTURE
       1 MOL1            1 RESIDUE      1      MOL     
@<SCITEGIC>MOL_PROPERTY
VM2 Rank
SciTegic.value.IntegerValue
182

@<SCITEGIC>MOL_PROPERTY
Conf_Id
SciTegic.value.IntegerValue
559

@<SCITEGIC>MOL_PROPERTY
Probability
SciTegic.value.DoubleValue
0.00

@<SCITEGIC>MOL_PROPERTY
Sum Probability
SciTegic.value.DoubleValue
100.00

@<SCITEGIC>MOL_PROPERTY
Delta G
SciTegic.value.DoubleValue
7.784

@<SCITEGIC>MOL_PROPERTY
G
SciTegic.value.DoubleValue
-0.178

@<SCITEGIC>MOL_PROPERTY
E
SciTegic.value.DoubleValue
-25.623

@<SCITEGIC>MOL_PROPERTY
-TS
SciTegic.value.DoubleValue
25.446

@<SCITEGIC>MOL_PROPERTY
U+W
SciTegic.value.DoubleValue
-46.191

@<SCITEGIC>MOL_PROPERTY
U
SciTegic.value.DoubleValue
14.481

@<SCITEGIC>MOL_PROPERTY
W
SciTegic.value.DoubleValue
-60.672

@<SCITEGIC>MOL_PROPERTY
W(PB)
SciTegic.value.DoubleValue
-63.049

@<SCITEGIC>MOL_PROPERTY
W(SA)
SciTegic.value.DoubleValue
2.378

@<SCITEGIC>MOL_PROPERTY
Valence
SciTegic.value.DoubleValue
12.477

@<SCITEGIC>MOL_PROPERTY
Coulomb
SciTegic.value.DoubleValue
1.220

@<SCITEGIC>MOL_PROPERTY
VdW
SciTegic.value.DoubleValue
0.784

@<SCITEGIC>MOL_PROPERTY
VdW6
SciTegic.value.DoubleValue
-11.565

@<SCITEGIC>MOL_PROPERTY
VdW12
SciTegic.value.DoubleValue
12.349

@<SCITEGIC>MOL_PROPERTY
Bond
SciTegic.value.DoubleValue
0.279

@<SCITEGIC>MOL_PROPERTY
Angle
SciTegic.value.DoubleValue
3.853

@<SCITEGIC>MOL_PROPERTY
Pdih
SciTegic.value.DoubleValue
8.338

@<SCITEGIC>MOL_PROPERTY
Idih
SciTegic.value.DoubleValue
0.007

@<SCITEGIC>MOL_PROPERTY
Tether
SciTegic.value.DoubleValue
0.000

@<TRIPOS>MOLECULE
guest-8_vm2.mol2 : vm2 ligand conformer 183
          25          24           1
SMALL
USER_CHARGES
 
@<TRIPOS>ATOM
       1    C1      20.192698   19.991596   26.017854 C.2        1 MOL1         0.6168
       2    O1      21.229555   20.606901   25.863047 O.co2      1 MOL1        -0.6703
       3    O2      19.092249   20.506279   25.971363 O.co2      1 MOL1        -0.6703
       4    C2      20.282870   18.519102   26.415181 C.3        1 MOL1        -0.1963
       5    H1      19.821565   18.439779   27.406345 H          1 MOL1         0.0750
       6    H2      21.337990   18.246559   26.537927 H          1 MOL1         0.0750
       7    C3      19.577040   17.525774   25.449508 C.3        1 MOL1        -0.1860
       8    H3      19.361868   16.606701   26.010973 H          1 MOL1         0.0752
       9    H4      18.598802   17.923678   25.148657 H          1 MOL1         0.0752
      10    C4      20.413073   17.126106   24.205540 C.3        1 MOL1        -0.1858
      11    H5      19.882417   16.327579   23.669360 H          1 MOL1         0.0752
      12    H6      21.360796   16.683708   24.541267 H          1 MOL1         0.0752
      13    C5      20.723060   18.268090   23.207014 C.3        1 MOL1        -0.1858
      14    H7      21.331226   19.035014   23.701081 H          1 MOL1         0.0752
      15    H8      21.345804   17.861362   22.398988 H          1 MOL1         0.0752
      16    C6      19.454518   18.904610   22.588293 C.3        1 MOL1        -0.1858
      17    H9      18.867402   19.406712   23.368558 H          1 MOL1         0.0752
      18    H10     18.817066   18.109237   22.179319 H          1 MOL1         0.0752
      19    C7      19.766059   19.918146   21.462770 C.3        1 MOL1        -0.1834
      20    H11     20.346623   19.427608   20.669439 H          1 MOL1         0.0752
      21    H12     18.820091   20.237379   21.004248 H          1 MOL1         0.0752
      22    C8      20.521878   21.167395   21.965431 C.3        1 MOL1        -0.2849
      23    H13     21.525682   20.909686   22.325788 H          1 MOL1         0.0764
      24    H14     20.635099   21.901451   21.157409 H          1 MOL1         0.0764
      25    H15     19.978270   21.648864   22.789409 H          1 MOL1         0.0764
@<TRIPOS>BOND
    1     1     2    1
    2     1     3    2
    3     1     4    1
    4     4     5    1
    5     4     6    1
    6     4     7    1
    7     7     8    1
    8     7     9    1
    9     7    10    1
   10    10    11    1
   11    10    12    1
   12    10    13    1
   13    13    14    1
   14    13    15    1
   15    13    16    1
   16    16    17    1
   17    16    18    1
   18    16    19    1
   19    19    20    1
   20    19    21    1
   21    19    22    1
   22    22    23    1
   23    22    24    1
   24    22    25    1
@<TRIPOS>SUBSTRUCTURE
       1 MOL1            1 RESIDUE      1      MOL     
@<SCITEGIC>MOL_PROPERTY
VM2 Rank
SciTegic.value.IntegerValue
183

@<SCITEGIC>MOL_PROPERTY
Conf_Id
SciTegic.value.IntegerValue
543

@<SCITEGIC>MOL_PROPERTY
Probability
SciTegic.value.DoubleValue
0.00

@<SCITEGIC>MOL_PROPERTY
Sum Probability
SciTegic.value.DoubleValue
100.00

@<SCITEGIC>MOL_PROPERTY
Delta G
SciTegic.value.DoubleValue
7.908

@<SCITEGIC>MOL_PROPERTY
G
SciTegic.value.DoubleValue
-0.054

@<SCITEGIC>MOL_PROPERTY
E
SciTegic.value.DoubleValue
-25.945

@<SCITEGIC>MOL_PROPERTY
-TS
SciTegic.value.DoubleValue
25.890

@<SCITEGIC>MOL_PROPERTY
U+W
SciTegic.value.DoubleValue
-46.512

@<SCITEGIC>MOL_PROPERTY
U
SciTegic.value.DoubleValue
14.293

@<SCITEGIC>MOL_PROPERTY
W
SciTegic.value.DoubleValue
-60.806

@<SCITEGIC>MOL_PROPERTY
W(PB)
SciTegic.value.DoubleValue
-63.092

@<SCITEGIC>MOL_PROPERTY
W(SA)
SciTegic.value.DoubleValue
2.287

@<SCITEGIC>MOL_PROPERTY
Valence
SciTegic.value.DoubleValue
10.557

@<SCITEGIC>MOL_PROPERTY
Coulomb
SciTegic.value.DoubleValue
3.764

@<SCITEGIC>MOL_PROPERTY
VdW
SciTegic.value.DoubleValue
-0.028

@<SCITEGIC>MOL_PROPERTY
VdW6
SciTegic.value.DoubleValue
-12.699

@<SCITEGIC>MOL_PROPERTY
VdW12
SciTegic.value.DoubleValue
12.671

@<SCITEGIC>MOL_PROPERTY
Bond
SciTegic.value.DoubleValue
0.274

@<SCITEGIC>MOL_PROPERTY
Angle
SciTegic.value.DoubleValue
3.852

@<SCITEGIC>MOL_PROPERTY
Pdih
SciTegic.value.DoubleValue
6.409

@<SCITEGIC>MOL_PROPERTY
Idih
SciTegic.value.DoubleValue
0.021

@<SCITEGIC>MOL_PROPERTY
Tether
SciTegic.value.DoubleValue
0.000

@<TRIPOS>MOLECULE
guest-8_vm2.mol2 : vm2 ligand conformer 184
          25          24           1
SMALL
USER_CHARGES
 
@<TRIPOS>ATOM
       1    C1      20.600176   19.323463   26.615816 C.2        1 MOL1         0.6168
       2    O1      21.660716   19.874012   26.393304 O.co2      1 MOL1        -0.6703
       3    O2      20.507114   18.214206   27.103860 O.co2      1 MOL1        -0.6703
       4    C2      19.315749   20.088187   26.310801 C.3        1 MOL1        -0.1963
       5    H1      19.416275   21.075443   26.776654 H          1 MOL1         0.0750
       6    H2      18.481337   19.587776   26.816732 H          1 MOL1         0.0750
       7    C3      18.997895   20.268477   24.800135 C.3        1 MOL1        -0.1860
       8    H3      18.180835   20.997453   24.715502 H          1 MOL1         0.0752
       9    H4      19.860414   20.718169   24.292465 H          1 MOL1         0.0752
      10    C4      18.551962   18.965199   24.086369 C.3        1 MOL1        -0.1858
      11    H5      17.910055   19.220580   23.232271 H          1 MOL1         0.0752
      12    H6      17.913961   18.389301   24.770535 H          1 MOL1         0.0752
      13    C5      19.712684   18.061467   23.592716 C.3        1 MOL1        -0.1858
      14    H7      20.599731   18.180474   24.226597 H          1 MOL1         0.0752
      15    H8      19.402982   17.014161   23.709686 H          1 MOL1         0.0752
      16    C6      20.102035   18.272828   22.107983 C.3        1 MOL1        -0.1858
      17    H9      19.231617   18.071261   21.468854 H          1 MOL1         0.0752
      18    H10     20.860733   17.524835   21.840323 H          1 MOL1         0.0752
      19    C7      20.655352   19.680482   21.796037 C.3        1 MOL1        -0.1834
      20    H11     19.874494   20.433978   21.963250 H          1 MOL1         0.0752
      21    H12     21.482598   19.913293   22.480889 H          1 MOL1         0.0752
      22    C8      21.149316   19.785678   20.338980 C.3        1 MOL1        -0.2849
      23    H13     20.333886   19.582238   19.632586 H          1 MOL1         0.0764
      24    H14     21.533139   20.793222   20.132771 H          1 MOL1         0.0764
      25    H15     21.958046   19.068951   20.145228 H          1 MOL1         0.0764
@<TRIPOS>BOND
    1     1     2    1
    2     1     3    2
    3     1     4    1
    4     4     5    1
    5     4     6    1
    6     4     7    1
    7     7     8    1
    8     7     9    1
    9     7    10    1
   10    10    11    1
   11    10    12    1
   12    10    13    1
   13    13    14    1
   14    13    15    1
   15    13    16    1
   16    16    17    1
   17    16    18    1
   18    16    19    1
   19    19    20    1
   20    19    21    1
   21    19    22    1
   22    22    23    1
   23    22    24    1
   24    22    25    1
@<TRIPOS>SUBSTRUCTURE
       1 MOL1            1 RESIDUE      1      MOL     
@<SCITEGIC>MOL_PROPERTY
VM2 Rank
SciTegic.value.IntegerValue
184

@<SCITEGIC>MOL_PROPERTY
Conf_Id
SciTegic.value.IntegerValue
659

@<SCITEGIC>MOL_PROPERTY
Probability
SciTegic.value.DoubleValue
0.00

@<SCITEGIC>MOL_PROPERTY
Sum Probability
SciTegic.value.DoubleValue
100.00

@<SCITEGIC>MOL_PROPERTY
Delta G
SciTegic.value.DoubleValue
7.920

@<SCITEGIC>MOL_PROPERTY
G
SciTegic.value.DoubleValue
-0.042

@<SCITEGIC>MOL_PROPERTY
E
SciTegic.value.DoubleValue
-25.285

@<SCITEGIC>MOL_PROPERTY
-TS
SciTegic.value.DoubleValue
25.243

@<SCITEGIC>MOL_PROPERTY
U+W
SciTegic.value.DoubleValue
-45.853

@<SCITEGIC>MOL_PROPERTY
U
SciTegic.value.DoubleValue
14.997

@<SCITEGIC>MOL_PROPERTY
W
SciTegic.value.DoubleValue
-60.850

@<SCITEGIC>MOL_PROPERTY
W(PB)
SciTegic.value.DoubleValue
-63.216

@<SCITEGIC>MOL_PROPERTY
W(SA)
SciTegic.value.DoubleValue
2.366

@<SCITEGIC>MOL_PROPERTY
Valence
SciTegic.value.DoubleValue
12.645

@<SCITEGIC>MOL_PROPERTY
Coulomb
SciTegic.value.DoubleValue
1.771

@<SCITEGIC>MOL_PROPERTY
VdW
SciTegic.value.DoubleValue
0.582

@<SCITEGIC>MOL_PROPERTY
VdW6
SciTegic.value.DoubleValue
-11.471

@<SCITEGIC>MOL_PROPERTY
VdW12
SciTegic.value.DoubleValue
12.053

@<SCITEGIC>MOL_PROPERTY
Bond
SciTegic.value.DoubleValue
0.285

@<SCITEGIC>MOL_PROPERTY
Angle
SciTegic.value.DoubleValue
3.668

@<SCITEGIC>MOL_PROPERTY
Pdih
SciTegic.value.DoubleValue
8.688

@<SCITEGIC>MOL_PROPERTY
Idih
SciTegic.value.DoubleValue
0.004

@<SCITEGIC>MOL_PROPERTY
Tether
SciTegic.value.DoubleValue
0.000

@<TRIPOS>MOLECULE
guest-8_vm2.mol2 : vm2 ligand conformer 185
          25          24           1
SMALL
USER_CHARGES
 
@<TRIPOS>ATOM
       1    C1      20.003198   19.979407   26.020153 C.2        1 MOL1         0.6168
       2    O1      21.027550   20.630386   25.949611 O.co2      1 MOL1        -0.6703
       3    O2      18.893004   20.457009   25.889768 O.co2      1 MOL1        -0.6703
       4    C2      20.111114   18.508013   26.417121 C.3        1 MOL1        -0.1963
       5    H1      19.102565   18.102980   26.563413 H          1 MOL1         0.0750
       6    H2      20.601224   18.489661   27.397406 H          1 MOL1         0.0750
       7    C3      20.915980   17.611788   25.434069 C.3        1 MOL1        -0.1860
       8    H3      21.828107   18.131178   25.111506 H          1 MOL1         0.0752
       9    H4      21.259795   16.728620   25.989086 H          1 MOL1         0.0752
      10    C4      20.109725   17.106621   24.208959 C.3        1 MOL1        -0.1858
      11    H5      19.234382   16.546997   24.565616 H          1 MOL1         0.0752
      12    H6      20.725833   16.381856   23.659545 H          1 MOL1         0.0752
      13    C5      19.633292   18.198112   23.219549 C.3        1 MOL1        -0.1858
      14    H7      19.049446   17.713849   22.425346 H          1 MOL1         0.0752
      15    H8      18.943385   18.881533   23.728577 H          1 MOL1         0.0752
      16    C6      20.795387   18.990982   22.572975 C.3        1 MOL1        -0.1858
      17    H9      21.520050   18.283229   22.148509 H          1 MOL1         0.0752
      18    H10     21.330910   19.565396   23.340365 H          1 MOL1         0.0752
      19    C7      20.330995   19.954464   21.456211 C.3        1 MOL1        -0.1834
      20    H11     21.217570   20.391687   20.976805 H          1 MOL1         0.0752
      21    H12     19.800322   19.392289   20.675569 H          1 MOL1         0.0752
      22    C8      19.432756   21.097219   21.977585 C.3        1 MOL1        -0.2849
      23    H13     19.928627   21.645703   22.789704 H          1 MOL1         0.0764
      24    H14     19.208052   21.809443   21.173347 H          1 MOL1         0.0764
      25    H15     18.478715   20.713436   22.360222 H          1 MOL1         0.0764
@<TRIPOS>BOND
    1     1     2    1
    2     1     3    2
    3     1     4    1
    4     4     5    1
    5     4     6    1
    6     4     7    1
    7     7     8    1
    8     7     9    1
    9     7    10    1
   10    10    11    1
   11    10    12    1
   12    10    13    1
   13    13    14    1
   14    13    15    1
   15    13    16    1
   16    16    17    1
   17    16    18    1
   18    16    19    1
   19    19    20    1
   20    19    21    1
   21    19    22    1
   22    22    23    1
   23    22    24    1
   24    22    25    1
@<TRIPOS>SUBSTRUCTURE
       1 MOL1            1 RESIDUE      1      MOL     
@<SCITEGIC>MOL_PROPERTY
VM2 Rank
SciTegic.value.IntegerValue
185

@<SCITEGIC>MOL_PROPERTY
Conf_Id
SciTegic.value.IntegerValue
821

@<SCITEGIC>MOL_PROPERTY
Probability
SciTegic.value.DoubleValue
0.00

@<SCITEGIC>MOL_PROPERTY
Sum Probability
SciTegic.value.DoubleValue
100.00

@<SCITEGIC>MOL_PROPERTY
Delta G
SciTegic.value.DoubleValue
7.963

@<SCITEGIC>MOL_PROPERTY
G
SciTegic.value.DoubleValue
0.001

@<SCITEGIC>MOL_PROPERTY
E
SciTegic.value.DoubleValue
-25.889

@<SCITEGIC>MOL_PROPERTY
-TS
SciTegic.value.DoubleValue
25.890

@<SCITEGIC>MOL_PROPERTY
U+W
SciTegic.value.DoubleValue
-46.457

@<SCITEGIC>MOL_PROPERTY
U
SciTegic.value.DoubleValue
14.293

@<SCITEGIC>MOL_PROPERTY
W
SciTegic.value.DoubleValue
-60.750

@<SCITEGIC>MOL_PROPERTY
W(PB)
SciTegic.value.DoubleValue
-63.045

@<SCITEGIC>MOL_PROPERTY
W(SA)
SciTegic.value.DoubleValue
2.295

@<SCITEGIC>MOL_PROPERTY
Valence
SciTegic.value.DoubleValue
10.557

@<SCITEGIC>MOL_PROPERTY
Coulomb
SciTegic.value.DoubleValue
3.763

@<SCITEGIC>MOL_PROPERTY
VdW
SciTegic.value.DoubleValue
-0.028

@<SCITEGIC>MOL_PROPERTY
VdW6
SciTegic.value.DoubleValue
-12.698

@<SCITEGIC>MOL_PROPERTY
VdW12
SciTegic.value.DoubleValue
12.670

@<SCITEGIC>MOL_PROPERTY
Bond
SciTegic.value.DoubleValue
0.274

@<SCITEGIC>MOL_PROPERTY
Angle
SciTegic.value.DoubleValue
3.852

@<SCITEGIC>MOL_PROPERTY
Pdih
SciTegic.value.DoubleValue
6.410

@<SCITEGIC>MOL_PROPERTY
Idih
SciTegic.value.DoubleValue
0.021

@<SCITEGIC>MOL_PROPERTY
Tether
SciTegic.value.DoubleValue
0.000

@<TRIPOS>MOLECULE
guest-8_vm2.mol2 : vm2 ligand conformer 186
          25          24           1
SMALL
USER_CHARGES
 
@<TRIPOS>ATOM
       1    C1      20.308750   19.740690   26.606644 C.2        1 MOL1         0.6168
       2    O1      21.195026   20.540651   26.378739 O.co2      1 MOL1        -0.6703
       3    O2      19.225923   20.048408   27.065002 O.co2      1 MOL1        -0.6703
       4    C2      20.590546   18.263531   26.349392 C.3        1 MOL1        -0.1963
       5    H1      19.823437   17.666706   26.857294 H          1 MOL1         0.0750
       6    H2      21.542499   18.031989   26.841298 H          1 MOL1         0.0750
       7    C3      20.680736   17.860012   24.851162 C.3        1 MOL1        -0.1860
       8    H3      21.409696   18.500824   24.339435 H          1 MOL1         0.0752
       9    H4      21.085802   16.840290   24.803799 H          1 MOL1         0.0752
      10    C4      19.318170   17.868295   24.109404 C.3        1 MOL1        -0.1858
      11    H5      18.544504   17.486220   24.789289 H          1 MOL1         0.0752
      12    H6      19.354452   17.153834   23.275751 H          1 MOL1         0.0752
      13    C5      18.878429   19.254134   23.567385 C.3        1 MOL1        -0.1858
      14    H7      17.786343   19.325870   23.660390 H          1 MOL1         0.0752
      15    H8      19.282173   20.064102   24.186862 H          1 MOL1         0.0752
      16    C6      19.240522   19.505236   22.081946 C.3        1 MOL1        -0.1858
      17    H9      18.804274   20.466567   21.778151 H          1 MOL1         0.0752
      18    H10     18.765078   18.739048   21.454530 H          1 MOL1         0.0752
      19    C7      20.758558   19.533164   21.799575 C.3        1 MOL1        -0.1834
      20    H11     21.247605   20.249302   22.474512 H          1 MOL1         0.0752
      21    H12     21.194357   18.546264   22.003444 H          1 MOL1         0.0752
      22    C8      21.056340   19.919879   20.336750 C.3        1 MOL1        -0.2849
      23    H13     20.599331   19.204182   19.640885 H          1 MOL1         0.0764
      24    H14     20.665190   20.919600   20.106883 H          1 MOL1         0.0764
      25    H15     22.138349   19.928852   20.151918 H          1 MOL1         0.0764
@<TRIPOS>BOND
    1     1     2    1
    2     1     3    2
    3     1     4    1
    4     4     5    1
    5     4     6    1
    6     4     7    1
    7     7     8    1
    8     7     9    1
    9     7    10    1
   10    10    11    1
   11    10    12    1
   12    10    13    1
   13    13    14    1
   14    13    15    1
   15    13    16    1
   16    16    17    1
   17    16    18    1
   18    16    19    1
   19    19    20    1
   20    19    21    1
   21    19    22    1
   22    22    23    1
   23    22    24    1
   24    22    25    1
@<TRIPOS>SUBSTRUCTURE
       1 MOL1            1 RESIDUE      1      MOL     
@<SCITEGIC>MOL_PROPERTY
VM2 Rank
SciTegic.value.IntegerValue
186

@<SCITEGIC>MOL_PROPERTY
Conf_Id
SciTegic.value.IntegerValue
390

@<SCITEGIC>MOL_PROPERTY
Probability
SciTegic.value.DoubleValue
0.00

@<SCITEGIC>MOL_PROPERTY
Sum Probability
SciTegic.value.DoubleValue
100.00

@<SCITEGIC>MOL_PROPERTY
Delta G
SciTegic.value.DoubleValue
7.973

@<SCITEGIC>MOL_PROPERTY
G
SciTegic.value.DoubleValue
0.011

@<SCITEGIC>MOL_PROPERTY
E
SciTegic.value.DoubleValue
-25.230

@<SCITEGIC>MOL_PROPERTY
-TS
SciTegic.value.DoubleValue
25.241

@<SCITEGIC>MOL_PROPERTY
U+W
SciTegic.value.DoubleValue
-45.798

@<SCITEGIC>MOL_PROPERTY
U
SciTegic.value.DoubleValue
14.997

@<SCITEGIC>MOL_PROPERTY
W
SciTegic.value.DoubleValue
-60.795

@<SCITEGIC>MOL_PROPERTY
W(PB)
SciTegic.value.DoubleValue
-63.174

@<SCITEGIC>MOL_PROPERTY
W(SA)
SciTegic.value.DoubleValue
2.379

@<SCITEGIC>MOL_PROPERTY
Valence
SciTegic.value.DoubleValue
12.645

@<SCITEGIC>MOL_PROPERTY
Coulomb
SciTegic.value.DoubleValue
1.770

@<SCITEGIC>MOL_PROPERTY
VdW
SciTegic.value.DoubleValue
0.582

@<SCITEGIC>MOL_PROPERTY
VdW6
SciTegic.value.DoubleValue
-11.471

@<SCITEGIC>MOL_PROPERTY
VdW12
SciTegic.value.DoubleValue
12.053

@<SCITEGIC>MOL_PROPERTY
Bond
SciTegic.value.DoubleValue
0.285

@<SCITEGIC>MOL_PROPERTY
Angle
SciTegic.value.DoubleValue
3.670

@<SCITEGIC>MOL_PROPERTY
Pdih
SciTegic.value.DoubleValue
8.687

@<SCITEGIC>MOL_PROPERTY
Idih
SciTegic.value.DoubleValue
0.003

@<SCITEGIC>MOL_PROPERTY
Tether
SciTegic.value.DoubleValue
0.000

@<TRIPOS>MOLECULE
guest-8_vm2.mol2 : vm2 ligand conformer 187
          25          24           1
SMALL
USER_CHARGES
 
@<TRIPOS>ATOM
       1    C1      20.350128   18.770214   26.871935 C.2        1 MOL1         0.6168
       2    O1      21.487076   18.668924   27.288936 O.co2      1 MOL1        -0.6703
       3    O2      19.364863   18.695327   27.579412 O.co2      1 MOL1        -0.6703
       4    C2      20.149766   19.027576   25.382826 C.3        1 MOL1        -0.1963
       5    H1      19.218914   18.532722   25.086443 H          1 MOL1         0.0750
       6    H2      20.971021   18.545089   24.840216 H          1 MOL1         0.0750
       7    C3      20.088784   20.536573   25.037691 C.3        1 MOL1        -0.1860
       8    H3      19.187789   20.973707   25.489532 H          1 MOL1         0.0752
       9    H4      20.943465   21.038688   25.511836 H          1 MOL1         0.0752
      10    C4      20.118629   20.855985   23.521373 C.3        1 MOL1        -0.1858
      11    H5      21.068248   20.528551   23.083387 H          1 MOL1         0.0752
      12    H6      20.117073   21.949960   23.422050 H          1 MOL1         0.0752
      13    C5      18.916582   20.307901   22.707514 C.3        1 MOL1        -0.1858
      14    H7      18.013385   20.332089   23.332146 H          1 MOL1         0.0752
      15    H8      18.719115   21.000742   21.878156 H          1 MOL1         0.0752
      16    C6      19.089221   18.887690   22.104301 C.3        1 MOL1        -0.1858
      17    H9      18.144644   18.625641   21.608535 H          1 MOL1         0.0752
      18    H10     19.219165   18.136677   22.891303 H          1 MOL1         0.0752
      19    C7      20.226302   18.770086   21.057765 C.3        1 MOL1        -0.1834
      20    H11     19.846154   18.228327   20.180689 H          1 MOL1         0.0752
      21    H12     20.520688   19.764922   20.696100 H          1 MOL1         0.0752
      22    C8      21.461649   18.013723   21.594246 C.3        1 MOL1        -0.2849
      23    H13     22.238731   17.949160   20.821763 H          1 MOL1         0.0764
      24    H14     21.895947   18.515909   22.466582 H          1 MOL1         0.0764
      25    H15     21.195271   16.990591   21.889769 H          1 MOL1         0.0764
@<TRIPOS>BOND
    1     1     2    1
    2     1     3    2
    3     1     4    1
    4     4     5    1
    5     4     6    1
    6     4     7    1
    7     7     8    1
    8     7     9    1
    9     7    10    1
   10    10    11    1
   11    10    12    1
   12    10    13    1
   13    13    14    1
   14    13    15    1
   15    13    16    1
   16    16    17    1
   17    16    18    1
   18    16    19    1
   19    19    20    1
   20    19    21    1
   21    19    22    1
   22    22    23    1
   23    22    24    1
   24    22    25    1
@<TRIPOS>SUBSTRUCTURE
       1 MOL1            1 RESIDUE      1      MOL     
@<SCITEGIC>MOL_PROPERTY
VM2 Rank
SciTegic.value.IntegerValue
187

@<SCITEGIC>MOL_PROPERTY
Conf_Id
SciTegic.value.IntegerValue
853

@<SCITEGIC>MOL_PROPERTY
Probability
SciTegic.value.DoubleValue
0.00

@<SCITEGIC>MOL_PROPERTY
Sum Probability
SciTegic.value.DoubleValue
100.00

@<SCITEGIC>MOL_PROPERTY
Delta G
SciTegic.value.DoubleValue
8.138

@<SCITEGIC>MOL_PROPERTY
G
SciTegic.value.DoubleValue
0.176

@<SCITEGIC>MOL_PROPERTY
E
SciTegic.value.DoubleValue
-24.953

@<SCITEGIC>MOL_PROPERTY
-TS
SciTegic.value.DoubleValue
25.129

@<SCITEGIC>MOL_PROPERTY
U+W
SciTegic.value.DoubleValue
-45.521

@<SCITEGIC>MOL_PROPERTY
U
SciTegic.value.DoubleValue
14.627

@<SCITEGIC>MOL_PROPERTY
W
SciTegic.value.DoubleValue
-60.148

@<SCITEGIC>MOL_PROPERTY
W(PB)
SciTegic.value.DoubleValue
-62.511

@<SCITEGIC>MOL_PROPERTY
W(SA)
SciTegic.value.DoubleValue
2.364

@<SCITEGIC>MOL_PROPERTY
Valence
SciTegic.value.DoubleValue
14.135

@<SCITEGIC>MOL_PROPERTY
Coulomb
SciTegic.value.DoubleValue
-0.398

@<SCITEGIC>MOL_PROPERTY
VdW
SciTegic.value.DoubleValue
0.890

@<SCITEGIC>MOL_PROPERTY
VdW6
SciTegic.value.DoubleValue
-11.095

@<SCITEGIC>MOL_PROPERTY
VdW12
SciTegic.value.DoubleValue
11.985

@<SCITEGIC>MOL_PROPERTY
Bond
SciTegic.value.DoubleValue
0.300

@<SCITEGIC>MOL_PROPERTY
Angle
SciTegic.value.DoubleValue
4.125

@<SCITEGIC>MOL_PROPERTY
Pdih
SciTegic.value.DoubleValue
9.709

@<SCITEGIC>MOL_PROPERTY
Idih
SciTegic.value.DoubleValue
0.001

@<SCITEGIC>MOL_PROPERTY
Tether
SciTegic.value.DoubleValue
0.000

@<TRIPOS>MOLECULE
guest-8_vm2.mol2 : vm2 ligand conformer 188
          25          24           1
SMALL
USER_CHARGES
 
@<TRIPOS>ATOM
       1    C1      20.248724   19.754157   26.985626 C.2        1 MOL1         0.6168
       2    O1      21.107470   20.612677   26.938615 O.co2      1 MOL1        -0.6703
       3    O2      19.378140   19.718678   27.832806 O.co2      1 MOL1        -0.6703
       4    C2      20.252704   18.671504   25.912296 C.3        1 MOL1        -0.1963
       5    H1      19.884133   17.743712   26.365665 H          1 MOL1         0.0750
       6    H2      21.293330   18.496538   25.618409 H          1 MOL1         0.0750
       7    C3      19.386739   19.045958   24.680902 C.3        1 MOL1        -0.1860
       8    H3      18.366353   19.262023   25.026075 H          1 MOL1         0.0752
       9    H4      19.765530   19.975750   24.239850 H          1 MOL1         0.0752
      10    C4      19.320717   17.923826   23.613982 C.3        1 MOL1        -0.1858
      11    H5      18.498558   18.123472   22.914143 H          1 MOL1         0.0752
      12    H6      19.053602   16.985631   24.119139 H          1 MOL1         0.0752
      13    C5      20.634138   17.706905   22.817923 C.3        1 MOL1        -0.1858
      14    H7      21.509095   17.963398   23.427689 H          1 MOL1         0.0752
      15    H8      20.725033   16.631482   22.613353 H          1 MOL1         0.0752
      16    C6      20.714658   18.440720   21.452973 C.3        1 MOL1        -0.1858
      17    H9      19.879438   18.133263   20.809056 H          1 MOL1         0.0752
      18    H10     21.622733   18.085369   20.947042 H          1 MOL1         0.0752
      19    C7      20.792386   19.985358   21.528981 C.3        1 MOL1        -0.1834
      20    H11     21.283652   20.297347   22.460446 H          1 MOL1         0.0752
      21    H12     21.436318   20.342810   20.713654 H          1 MOL1         0.0752
      22    C8      19.417322   20.674216   21.381897 C.3        1 MOL1        -0.2849
      23    H13     18.959213   20.428017   20.415245 H          1 MOL1         0.0764
      24    H14     18.721964   20.369952   22.171872 H          1 MOL1         0.0764
      25    H15     19.526915   21.765065   21.433687 H          1 MOL1         0.0764
@<TRIPOS>BOND
    1     1     2    1
    2     1     3    2
    3     1     4    1
    4     4     5    1
    5     4     6    1
    6     4     7    1
    7     7     8    1
    8     7     9    1
    9     7    10    1
   10    10    11    1
   11    10    12    1
   12    10    13    1
   13    13    14    1
   14    13    15    1
   15    13    16    1
   16    16    17    1
   17    16    18    1
   18    16    19    1
   19    19    20    1
   20    19    21    1
   21    19    22    1
   22    22    23    1
   23    22    24    1
   24    22    25    1
@<TRIPOS>SUBSTRUCTURE
       1 MOL1            1 RESIDUE      1      MOL     
@<SCITEGIC>MOL_PROPERTY
VM2 Rank
SciTegic.value.IntegerValue
188

@<SCITEGIC>MOL_PROPERTY
Conf_Id
SciTegic.value.IntegerValue
545

@<SCITEGIC>MOL_PROPERTY
Probability
SciTegic.value.DoubleValue
0.00

@<SCITEGIC>MOL_PROPERTY
Sum Probability
SciTegic.value.DoubleValue
100.00

@<SCITEGIC>MOL_PROPERTY
Delta G
SciTegic.value.DoubleValue
8.272

@<SCITEGIC>MOL_PROPERTY
G
SciTegic.value.DoubleValue
0.310

@<SCITEGIC>MOL_PROPERTY
E
SciTegic.value.DoubleValue
-24.990

@<SCITEGIC>MOL_PROPERTY
-TS
SciTegic.value.DoubleValue
25.299

@<SCITEGIC>MOL_PROPERTY
U+W
SciTegic.value.DoubleValue
-45.557

@<SCITEGIC>MOL_PROPERTY
U
SciTegic.value.DoubleValue
14.522

@<SCITEGIC>MOL_PROPERTY
W
SciTegic.value.DoubleValue
-60.079

@<SCITEGIC>MOL_PROPERTY
W(PB)
SciTegic.value.DoubleValue
-62.462

@<SCITEGIC>MOL_PROPERTY
W(SA)
SciTegic.value.DoubleValue
2.384

@<SCITEGIC>MOL_PROPERTY
Valence
SciTegic.value.DoubleValue
13.852

@<SCITEGIC>MOL_PROPERTY
Coulomb
SciTegic.value.DoubleValue
-0.211

@<SCITEGIC>MOL_PROPERTY
VdW
SciTegic.value.DoubleValue
0.881

@<SCITEGIC>MOL_PROPERTY
VdW6
SciTegic.value.DoubleValue
-11.047

@<SCITEGIC>MOL_PROPERTY
VdW12
SciTegic.value.DoubleValue
11.928

@<SCITEGIC>MOL_PROPERTY
Bond
SciTegic.value.DoubleValue
0.293

@<SCITEGIC>MOL_PROPERTY
Angle
SciTegic.value.DoubleValue
3.944

@<SCITEGIC>MOL_PROPERTY
Pdih
SciTegic.value.DoubleValue
9.615

@<SCITEGIC>MOL_PROPERTY
Idih
SciTegic.value.DoubleValue
0.000

@<SCITEGIC>MOL_PROPERTY
Tether
SciTegic.value.DoubleValue
0.000

@<TRIPOS>MOLECULE
guest-8_vm2.mol2 : vm2 ligand conformer 189
          25          24           1
SMALL
USER_CHARGES
 
@<TRIPOS>ATOM
       1    C1      19.605493   19.588620   26.706421 C.2        1 MOL1         0.6168
       2    O1      20.074143   19.536903   27.826556 O.co2      1 MOL1        -0.6703
       3    O2      18.720988   20.355692   26.381163 O.co2      1 MOL1        -0.6703
       4    C2      20.172802   18.652254   25.645894 C.3        1 MOL1        -0.1963
       5    H1      19.363070   18.399278   24.955117 H          1 MOL1         0.0750
       6    H2      20.471548   17.720640   26.140841 H          1 MOL1         0.0750
       7    C3      21.382272   19.264129   24.890922 C.3        1 MOL1        -0.1860
       8    H3      21.115983   20.241571   24.466626 H          1 MOL1         0.0752
       9    H4      22.173045   19.460443   25.628112 H          1 MOL1         0.0752
      10    C4      21.953470   18.338332   23.788298 C.3        1 MOL1        -0.1858
      11    H5      21.806982   17.284587   24.062036 H          1 MOL1         0.0752
      12    H6      23.041608   18.486522   23.758192 H          1 MOL1         0.0752
      13    C5      21.415980   18.597585   22.355850 C.3        1 MOL1        -0.1858
      14    H7      21.631383   19.631848   22.060532 H          1 MOL1         0.0752
      15    H8      22.002738   17.970048   21.671356 H          1 MOL1         0.0752
      16    C6      19.918232   18.260779   22.133006 C.3        1 MOL1        -0.1858
      17    H9      19.620373   17.451198   22.812057 H          1 MOL1         0.0752
      18    H10     19.795652   17.852350   21.120644 H          1 MOL1         0.0752
      19    C7      18.950660   19.461082   22.287532 C.3        1 MOL1        -0.1834
      20    H11     17.921247   19.079015   22.320713 H          1 MOL1         0.0752
      21    H12     19.117728   19.974181   23.242498 H          1 MOL1         0.0752
      22    C8      19.058961   20.478623   21.130358 C.3        1 MOL1        -0.2849
      23    H13     18.885409   19.992183   20.161747 H          1 MOL1         0.0764
      24    H14     18.310223   21.272654   21.247502 H          1 MOL1         0.0764
      25    H15     20.046523   20.954858   21.102775 H          1 MOL1         0.0764
@<TRIPOS>BOND
    1     1     2    1
    2     1     3    2
    3     1     4    1
    4     4     5    1
    5     4     6    1
    6     4     7    1
    7     7     8    1
    8     7     9    1
    9     7    10    1
   10    10    11    1
   11    10    12    1
   12    10    13    1
   13    13    14    1
   14    13    15    1
   15    13    16    1
   16    16    17    1
   17    16    18    1
   18    16    19    1
   19    19    20    1
   20    19    21    1
   21    19    22    1
   22    22    23    1
   23    22    24    1
   24    22    25    1
@<TRIPOS>SUBSTRUCTURE
       1 MOL1            1 RESIDUE      1      MOL     
@<SCITEGIC>MOL_PROPERTY
VM2 Rank
SciTegic.value.IntegerValue
189

@<SCITEGIC>MOL_PROPERTY
Conf_Id
SciTegic.value.IntegerValue
855

@<SCITEGIC>MOL_PROPERTY
Probability
SciTegic.value.DoubleValue
0.00

@<SCITEGIC>MOL_PROPERTY
Sum Probability
SciTegic.value.DoubleValue
100.00

@<SCITEGIC>MOL_PROPERTY
Delta G
SciTegic.value.DoubleValue
8.314

@<SCITEGIC>MOL_PROPERTY
G
SciTegic.value.DoubleValue
0.352

@<SCITEGIC>MOL_PROPERTY
E
SciTegic.value.DoubleValue
-25.047

@<SCITEGIC>MOL_PROPERTY
-TS
SciTegic.value.DoubleValue
25.399

@<SCITEGIC>MOL_PROPERTY
U+W
SciTegic.value.DoubleValue
-45.615

@<SCITEGIC>MOL_PROPERTY
U
SciTegic.value.DoubleValue
14.722

@<SCITEGIC>MOL_PROPERTY
W
SciTegic.value.DoubleValue
-60.336

@<SCITEGIC>MOL_PROPERTY
W(PB)
SciTegic.value.DoubleValue
-62.693

@<SCITEGIC>MOL_PROPERTY
W(SA)
SciTegic.value.DoubleValue
2.356

@<SCITEGIC>MOL_PROPERTY
Valence
SciTegic.value.DoubleValue
13.814

@<SCITEGIC>MOL_PROPERTY
Coulomb
SciTegic.value.DoubleValue
0.250

@<SCITEGIC>MOL_PROPERTY
VdW
SciTegic.value.DoubleValue
0.657

@<SCITEGIC>MOL_PROPERTY
VdW6
SciTegic.value.DoubleValue
-11.450

@<SCITEGIC>MOL_PROPERTY
VdW12
SciTegic.value.DoubleValue
12.107

@<SCITEGIC>MOL_PROPERTY
Bond
SciTegic.value.DoubleValue
0.297

@<SCITEGIC>MOL_PROPERTY
Angle
SciTegic.value.DoubleValue
3.965

@<SCITEGIC>MOL_PROPERTY
Pdih
SciTegic.value.DoubleValue
9.552

@<SCITEGIC>MOL_PROPERTY
Idih
SciTegic.value.DoubleValue
0.001

@<SCITEGIC>MOL_PROPERTY
Tether
SciTegic.value.DoubleValue
0.000

@<TRIPOS>MOLECULE
guest-8_vm2.mol2 : vm2 ligand conformer 190
          25          24           1
SMALL
USER_CHARGES
 
@<TRIPOS>ATOM
       1    C1      20.549684   19.904142   26.025806 C.2        1 MOL1         0.6168
       2    O1      21.557543   20.417490   25.581371 O.co2      1 MOL1        -0.6703
       3    O2      19.601521   20.543537   26.439026 O.co2      1 MOL1        -0.6703
       4    C2      20.535206   18.382968   26.185549 C.3        1 MOL1        -0.1963
       5    H1      20.746326   18.188319   27.243205 H          1 MOL1         0.0750
       6    H2      21.370305   17.956673   25.617008 H          1 MOL1         0.0750
       7    C3      19.205340   17.674117   25.800229 C.3        1 MOL1        -0.1860
       8    H3      19.165515   16.716920   26.337398 H          1 MOL1         0.0752
       9    H4      18.349366   18.256843   26.167769 H          1 MOL1         0.0752
      10    C4      19.026902   17.369146   24.290659 C.3        1 MOL1        -0.1858
      11    H5      18.097479   16.794252   24.178352 H          1 MOL1         0.0752
      12    H6      19.829584   16.703749   23.944354 H          1 MOL1         0.0752
      13    C5      18.930553   18.617321   23.378889 C.3        1 MOL1        -0.1858
      14    H7      18.147201   18.444861   22.628307 H          1 MOL1         0.0752
      15    H8      18.605680   19.489703   23.962339 H          1 MOL1         0.0752
      16    C6      20.251429   18.924383   22.636615 C.3        1 MOL1        -0.1858
      17    H9      20.514842   18.073905   21.993284 H          1 MOL1         0.0752
      18    H10     21.070629   19.039932   23.356797 H          1 MOL1         0.0752
      19    C7      20.140639   20.202658   21.779677 C.3        1 MOL1        -0.1834
      20    H11     19.320705   20.095512   21.056198 H          1 MOL1         0.0752
      21    H12     19.889990   21.056272   22.425029 H          1 MOL1         0.0752
      22    C8      21.454183   20.498238   21.028178 C.3        1 MOL1        -0.2849
      23    H13     22.283722   20.641903   21.733153 H          1 MOL1         0.0764
      24    H14     21.715772   19.672351   20.353859 H          1 MOL1         0.0764
      25    H15     21.358780   21.411145   20.426164 H          1 MOL1         0.0764
@<TRIPOS>BOND
    1     1     2    1
    2     1     3    2
    3     1     4    1
    4     4     5    1
    5     4     6    1
    6     4     7    1
    7     7     8    1
    8     7     9    1
    9     7    10    1
   10    10    11    1
   11    10    12    1
   12    10    13    1
   13    13    14    1
   14    13    15    1
   15    13    16    1
   16    16    17    1
   17    16    18    1
   18    16    19    1
   19    19    20    1
   20    19    21    1
   21    19    22    1
   22    22    23    1
   23    22    24    1
   24    22    25    1
@<TRIPOS>SUBSTRUCTURE
       1 MOL1            1 RESIDUE      1      MOL     
@<SCITEGIC>MOL_PROPERTY
VM2 Rank
SciTegic.value.IntegerValue
190

@<SCITEGIC>MOL_PROPERTY
Conf_Id
SciTegic.value.IntegerValue
127

@<SCITEGIC>MOL_PROPERTY
Probability
SciTegic.value.DoubleValue
0.00

@<SCITEGIC>MOL_PROPERTY
Sum Probability
SciTegic.value.DoubleValue
100.00

@<SCITEGIC>MOL_PROPERTY
Delta G
SciTegic.value.DoubleValue
8.692

@<SCITEGIC>MOL_PROPERTY
G
SciTegic.value.DoubleValue
0.730

@<SCITEGIC>MOL_PROPERTY
E
SciTegic.value.DoubleValue
-24.800

@<SCITEGIC>MOL_PROPERTY
-TS
SciTegic.value.DoubleValue
25.530

@<SCITEGIC>MOL_PROPERTY
U+W
SciTegic.value.DoubleValue
-45.368

@<SCITEGIC>MOL_PROPERTY
U
SciTegic.value.DoubleValue
15.897

@<SCITEGIC>MOL_PROPERTY
W
SciTegic.value.DoubleValue
-61.265

@<SCITEGIC>MOL_PROPERTY
W(PB)
SciTegic.value.DoubleValue
-63.633

@<SCITEGIC>MOL_PROPERTY
W(SA)
SciTegic.value.DoubleValue
2.368

@<SCITEGIC>MOL_PROPERTY
Valence
SciTegic.value.DoubleValue
12.566

@<SCITEGIC>MOL_PROPERTY
Coulomb
SciTegic.value.DoubleValue
3.123

@<SCITEGIC>MOL_PROPERTY
VdW
SciTegic.value.DoubleValue
0.208

@<SCITEGIC>MOL_PROPERTY
VdW6
SciTegic.value.DoubleValue
-11.860

@<SCITEGIC>MOL_PROPERTY
VdW12
SciTegic.value.DoubleValue
12.068

@<SCITEGIC>MOL_PROPERTY
Bond
SciTegic.value.DoubleValue
0.250

@<SCITEGIC>MOL_PROPERTY
Angle
SciTegic.value.DoubleValue
3.828

@<SCITEGIC>MOL_PROPERTY
Pdih
SciTegic.value.DoubleValue
8.467

@<SCITEGIC>MOL_PROPERTY
Idih
SciTegic.value.DoubleValue
0.021

@<SCITEGIC>MOL_PROPERTY
Tether
SciTegic.value.DoubleValue
0.000

@<TRIPOS>MOLECULE
guest-8_vm2.mol2 : vm2 ligand conformer 191
          25          24           1
SMALL
USER_CHARGES
 
@<TRIPOS>ATOM
       1    C1      19.406897   18.984145   26.030187 C.2        1 MOL1         0.6168
       2    O1      18.688102   18.107488   25.592425 O.co2      1 MOL1        -0.6703
       3    O2      18.986696   20.048700   26.440972 O.co2      1 MOL1        -0.6703
       4    C2      20.896816   18.674046   26.184123 C.3        1 MOL1        -0.1963
       5    H1      21.132296   17.765076   25.617837 H          1 MOL1         0.0750
       6    H2      21.046824   18.430133   27.241998 H          1 MOL1         0.0750
       7    C3      21.871507   19.820408   25.790011 C.3        1 MOL1        -0.1860
       8    H3      21.486722   20.782449   26.155747 H          1 MOL1         0.0752
       9    H4      22.817603   19.656898   26.323425 H          1 MOL1         0.0752
      10    C4      22.200571   19.923963   24.278506 C.3        1 MOL1        -0.1858
      11    H5      22.677605   18.996410   23.933451 H          1 MOL1         0.0752
      12    H6      22.960149   20.708745   24.159756 H          1 MOL1         0.0752
      13    C5      20.997562   20.281240   23.370947 C.3        1 MOL1        -0.1858
      14    H7      20.217434   20.787196   23.956111 H          1 MOL1         0.0752
      15    H8      21.329874   21.006798   22.616036 H          1 MOL1         0.0752
      16    C6      20.411989   19.053627   22.636072 C.3        1 MOL1        -0.1858
      17    H9      20.127489   18.280771   23.360537 H          1 MOL1         0.0752
      18    H10     21.183558   18.612163   21.990808 H          1 MOL1         0.0752
      19    C7      19.182888   19.431664   21.783428 C.3        1 MOL1        -0.1834
      20    H11     18.405572   19.861393   22.430787 H          1 MOL1         0.0752
      21    H12     19.459335   20.206975   21.055647 H          1 MOL1         0.0752
      22    C8      18.609971   18.208719   21.039327 C.3        1 MOL1        -0.2849
      23    H13     18.295718   17.431756   21.748790 H          1 MOL1         0.0764
      24    H14     17.735700   18.494651   20.440317 H          1 MOL1         0.0764
      25    H15     19.357718   17.774109   20.363152 H          1 MOL1         0.0764
@<TRIPOS>BOND
    1     1     2    1
    2     1     3    2
    3     1     4    1
    4     4     5    1
    5     4     6    1
    6     4     7    1
    7     7     8    1
    8     7     9    1
    9     7    10    1
   10    10    11    1
   11    10    12    1
   12    10    13    1
   13    13    14    1
   14    13    15    1
   15    13    16    1
   16    16    17    1
   17    16    18    1
   18    16    19    1
   19    19    20    1
   20    19    21    1
   21    19    22    1
   22    22    23    1
   23    22    24    1
   24    22    25    1
@<TRIPOS>SUBSTRUCTURE
       1 MOL1            1 RESIDUE      1      MOL     
@<SCITEGIC>MOL_PROPERTY
VM2 Rank
SciTegic.value.IntegerValue
191

@<SCITEGIC>MOL_PROPERTY
Conf_Id
SciTegic.value.IntegerValue
376

@<SCITEGIC>MOL_PROPERTY
Probability
SciTegic.value.DoubleValue
0.00

@<SCITEGIC>MOL_PROPERTY
Sum Probability
SciTegic.value.DoubleValue
100.00

@<SCITEGIC>MOL_PROPERTY
Delta G
SciTegic.value.DoubleValue
8.759

@<SCITEGIC>MOL_PROPERTY
G
SciTegic.value.DoubleValue
0.796

@<SCITEGIC>MOL_PROPERTY
E
SciTegic.value.DoubleValue
-24.734

@<SCITEGIC>MOL_PROPERTY
-TS
SciTegic.value.DoubleValue
25.531

@<SCITEGIC>MOL_PROPERTY
U+W
SciTegic.value.DoubleValue
-45.302

@<SCITEGIC>MOL_PROPERTY
U
SciTegic.value.DoubleValue
15.898

@<SCITEGIC>MOL_PROPERTY
W
SciTegic.value.DoubleValue
-61.200

@<SCITEGIC>MOL_PROPERTY
W(PB)
SciTegic.value.DoubleValue
-63.554

@<SCITEGIC>MOL_PROPERTY
W(SA)
SciTegic.value.DoubleValue
2.353

@<SCITEGIC>MOL_PROPERTY
Valence
SciTegic.value.DoubleValue
12.566

@<SCITEGIC>MOL_PROPERTY
Coulomb
SciTegic.value.DoubleValue
3.124

@<SCITEGIC>MOL_PROPERTY
VdW
SciTegic.value.DoubleValue
0.208

@<SCITEGIC>MOL_PROPERTY
VdW6
SciTegic.value.DoubleValue
-11.861

@<SCITEGIC>MOL_PROPERTY
VdW12
SciTegic.value.DoubleValue
12.069

@<SCITEGIC>MOL_PROPERTY
Bond
SciTegic.value.DoubleValue
0.250

@<SCITEGIC>MOL_PROPERTY
Angle
SciTegic.value.DoubleValue
3.828

@<SCITEGIC>MOL_PROPERTY
Pdih
SciTegic.value.DoubleValue
8.466

@<SCITEGIC>MOL_PROPERTY
Idih
SciTegic.value.DoubleValue
0.022

@<SCITEGIC>MOL_PROPERTY
Tether
SciTegic.value.DoubleValue
0.000

@<TRIPOS>MOLECULE
guest-8_vm2.mol2 : vm2 ligand conformer 192
          25          24           1
SMALL
USER_CHARGES
 
@<TRIPOS>ATOM
       1    C1      19.948990   19.956895   26.093079 C.2        1 MOL1         0.6168
       2    O1      20.986326   20.572337   26.243849 O.co2      1 MOL1        -0.6703
       3    O2      18.877240   20.489753   25.881471 O.co2      1 MOL1        -0.6703
       4    C2      19.963718   18.448070   26.325640 C.3        1 MOL1        -0.1963
       5    H1      19.189593   18.245345   27.074990 H          1 MOL1         0.0750
       6    H2      20.920103   18.168165   26.783322 H          1 MOL1         0.0750
       7    C3      19.686669   17.574538   25.069163 C.3        1 MOL1        -0.1860
       8    H3      19.313496   16.603233   25.420744 H          1 MOL1         0.0752
       9    H4      18.870252   17.999866   24.474151 H          1 MOL1         0.0752
      10    C4      20.931614   17.293333   24.189908 C.3        1 MOL1        -0.1858
      11    H5      20.686434   16.492635   23.478976 H          1 MOL1         0.0752
      12    H6      21.722190   16.882547   24.832521 H          1 MOL1         0.0752
      13    C5      21.516128   18.492522   23.399004 C.3        1 MOL1        -0.1858
      14    H7      21.741443   19.334168   24.064911 H          1 MOL1         0.0752
      15    H8      22.489445   18.169152   23.005674 H          1 MOL1         0.0752
      16    C6      20.664056   18.958744   22.190091 C.3        1 MOL1        -0.1858
      17    H9      20.104434   18.111986   21.770358 H          1 MOL1         0.0752
      18    H10     21.349962   19.292051   21.399310 H          1 MOL1         0.0752
      19    C7      19.704813   20.127274   22.509439 C.3        1 MOL1        -0.1834
      20    H11     18.961110   19.822304   23.253680 H          1 MOL1         0.0752
      21    H12     20.268751   20.959718   22.952851 H          1 MOL1         0.0752
      22    C8      18.973446   20.620533   21.244355 C.3        1 MOL1        -0.2849
      23    H13     18.376940   19.814719   20.797079 H          1 MOL1         0.0764
      24    H14     18.295512   21.448497   21.489067 H          1 MOL1         0.0764
      25    H15     19.687449   20.978307   20.491109 H          1 MOL1         0.0764
@<TRIPOS>BOND
    1     1     2    1
    2     1     3    2
    3     1     4    1
    4     4     5    1
    5     4     6    1
    6     4     7    1
    7     7     8    1
    8     7     9    1
    9     7    10    1
   10    10    11    1
   11    10    12    1
   12    10    13    1
   13    13    14    1
   14    13    15    1
   15    13    16    1
   16    16    17    1
   17    16    18    1
   18    16    19    1
   19    19    20    1
   20    19    21    1
   21    19    22    1
   22    22    23    1
   23    22    24    1
   24    22    25    1
@<TRIPOS>SUBSTRUCTURE
       1 MOL1            1 RESIDUE      1      MOL     
@<SCITEGIC>MOL_PROPERTY
VM2 Rank
SciTegic.value.IntegerValue
192

@<SCITEGIC>MOL_PROPERTY
Conf_Id
SciTegic.value.IntegerValue
260

@<SCITEGIC>MOL_PROPERTY
Probability
SciTegic.value.DoubleValue
0.00

@<SCITEGIC>MOL_PROPERTY
Sum Probability
SciTegic.value.DoubleValue
100.00

@<SCITEGIC>MOL_PROPERTY
Delta G
SciTegic.value.DoubleValue
9.346

@<SCITEGIC>MOL_PROPERTY
G
SciTegic.value.DoubleValue
1.384

@<SCITEGIC>MOL_PROPERTY
E
SciTegic.value.DoubleValue
-24.139

@<SCITEGIC>MOL_PROPERTY
-TS
SciTegic.value.DoubleValue
25.523

@<SCITEGIC>MOL_PROPERTY
U+W
SciTegic.value.DoubleValue
-44.707

@<SCITEGIC>MOL_PROPERTY
U
SciTegic.value.DoubleValue
16.565

@<SCITEGIC>MOL_PROPERTY
W
SciTegic.value.DoubleValue
-61.272

@<SCITEGIC>MOL_PROPERTY
W(PB)
SciTegic.value.DoubleValue
-63.578

@<SCITEGIC>MOL_PROPERTY
W(SA)
SciTegic.value.DoubleValue
2.305

@<SCITEGIC>MOL_PROPERTY
Valence
SciTegic.value.DoubleValue
13.506

@<SCITEGIC>MOL_PROPERTY
Coulomb
SciTegic.value.DoubleValue
3.141

@<SCITEGIC>MOL_PROPERTY
VdW
SciTegic.value.DoubleValue
-0.082

@<SCITEGIC>MOL_PROPERTY
VdW6
SciTegic.value.DoubleValue
-12.476

@<SCITEGIC>MOL_PROPERTY
VdW12
SciTegic.value.DoubleValue
12.394

@<SCITEGIC>MOL_PROPERTY
Bond
SciTegic.value.DoubleValue
0.291

@<SCITEGIC>MOL_PROPERTY
Angle
SciTegic.value.DoubleValue
4.745

@<SCITEGIC>MOL_PROPERTY
Pdih
SciTegic.value.DoubleValue
8.441

@<SCITEGIC>MOL_PROPERTY
Idih
SciTegic.value.DoubleValue
0.029

@<SCITEGIC>MOL_PROPERTY
Tether
SciTegic.value.DoubleValue
0.000

@<TRIPOS>MOLECULE
guest-8_vm2.mol2 : vm2 ligand conformer 193
          25          24           1
SMALL
USER_CHARGES
 
@<TRIPOS>ATOM
       1    C1      19.970873   19.832550   26.537128 C.2        1 MOL1         0.6168
       2    O1      21.074751   20.228612   26.856216 O.co2      1 MOL1        -0.6703
       3    O2      18.995069   20.552232   26.454995 O.co2      1 MOL1        -0.6703
       4    C2      19.789092   18.342322   26.262168 C.3        1 MOL1        -0.1963
       5    H1      18.855827   18.031047   26.746019 H          1 MOL1         0.0750
       6    H2      20.600704   17.793974   26.755354 H          1 MOL1         0.0750
       7    C3      19.735477   17.981418   24.754977 C.3        1 MOL1        -0.1860
       8    H3      19.453776   16.924770   24.653957 H          1 MOL1         0.0752
       9    H4      18.939133   18.562228   24.274411 H          1 MOL1         0.0752
      10    C4      21.089034   18.214342   24.040353 C.3        1 MOL1        -0.1858
      11    H5      21.847280   17.596840   24.540840 H          1 MOL1         0.0752
      12    H6      21.421262   19.254274   24.159763 H          1 MOL1         0.0752
      13    C5      21.063125   17.834667   22.538798 C.3        1 MOL1        -0.1858
      14    H7      22.043357   17.408402   22.285334 H          1 MOL1         0.0752
      15    H8      20.337448   17.029277   22.361673 H          1 MOL1         0.0752
      16    C6      20.806095   19.007712   21.555993 C.3        1 MOL1        -0.1858
      17    H9      20.947486   18.616140   20.539381 H          1 MOL1         0.0752
      18    H10     21.575905   19.780973   21.683529 H          1 MOL1         0.0752
      19    C7      19.395098   19.641491   21.624657 C.3        1 MOL1        -0.1834
      20    H11     19.095342   19.937233   20.609851 H          1 MOL1         0.0752
      21    H12     18.657402   18.896957   21.952309 H          1 MOL1         0.0752
      22    C8      19.334385   20.898655   22.520714 C.3        1 MOL1        -0.2849
      23    H13     19.617054   20.677124   23.556302 H          1 MOL1         0.0764
      24    H14     20.010319   21.678174   22.146358 H          1 MOL1         0.0764
      25    H15     18.318098   21.312755   22.533995 H          1 MOL1         0.0764
@<TRIPOS>BOND
    1     1     2    1
    2     1     3    2
    3     1     4    1
    4     4     5    1
    5     4     6    1
    6     4     7    1
    7     7     8    1
    8     7     9    1
    9     7    10    1
   10    10    11    1
   11    10    12    1
   12    10    13    1
   13    13    14    1
   14    13    15    1
   15    13    16    1
   16    16    17    1
   17    16    18    1
   18    16    19    1
   19    19    20    1
   20    19    21    1
   21    19    22    1
   22    22    23    1
   23    22    24    1
   24    22    25    1
@<TRIPOS>SUBSTRUCTURE
       1 MOL1            1 RESIDUE      1      MOL     
@<SCITEGIC>MOL_PROPERTY
VM2 Rank
SciTegic.value.IntegerValue
193

@<SCITEGIC>MOL_PROPERTY
Conf_Id
SciTegic.value.IntegerValue
159

@<SCITEGIC>MOL_PROPERTY
Probability
SciTegic.value.DoubleValue
0.00

@<SCITEGIC>MOL_PROPERTY
Sum Probability
SciTegic.value.DoubleValue
100.00

@<SCITEGIC>MOL_PROPERTY
Delta G
SciTegic.value.DoubleValue
9.363

@<SCITEGIC>MOL_PROPERTY
G
SciTegic.value.DoubleValue
1.400

@<SCITEGIC>MOL_PROPERTY
E
SciTegic.value.DoubleValue
-24.456

@<SCITEGIC>MOL_PROPERTY
-TS
SciTegic.value.DoubleValue
25.856

@<SCITEGIC>MOL_PROPERTY
U+W
SciTegic.value.DoubleValue
-45.023

@<SCITEGIC>MOL_PROPERTY
U
SciTegic.value.DoubleValue
16.130

@<SCITEGIC>MOL_PROPERTY
W
SciTegic.value.DoubleValue
-61.153

@<SCITEGIC>MOL_PROPERTY
W(PB)
SciTegic.value.DoubleValue
-63.491

@<SCITEGIC>MOL_PROPERTY
W(SA)
SciTegic.value.DoubleValue
2.338

@<SCITEGIC>MOL_PROPERTY
Valence
SciTegic.value.DoubleValue
13.422

@<SCITEGIC>MOL_PROPERTY
Coulomb
SciTegic.value.DoubleValue
2.540

@<SCITEGIC>MOL_PROPERTY
VdW
SciTegic.value.DoubleValue
0.168

@<SCITEGIC>MOL_PROPERTY
VdW6
SciTegic.value.DoubleValue
-12.055

@<SCITEGIC>MOL_PROPERTY
VdW12
SciTegic.value.DoubleValue
12.224

@<SCITEGIC>MOL_PROPERTY
Bond
SciTegic.value.DoubleValue
0.261

@<SCITEGIC>MOL_PROPERTY
Angle
SciTegic.value.DoubleValue
3.880

@<SCITEGIC>MOL_PROPERTY
Pdih
SciTegic.value.DoubleValue
9.279

@<SCITEGIC>MOL_PROPERTY
Idih
SciTegic.value.DoubleValue
0.002

@<SCITEGIC>MOL_PROPERTY
Tether
SciTegic.value.DoubleValue
0.000

@<TRIPOS>MOLECULE
guest-8_vm2.mol2 : vm2 ligand conformer 194
          25          24           1
SMALL
USER_CHARGES
 
@<TRIPOS>ATOM
       1    C1      19.859446   19.902997   26.140268 C.2        1 MOL1         0.6168
       2    O1      20.866975   20.542895   26.372513 O.co2      1 MOL1        -0.6703
       3    O2      18.786727   20.415587   25.888208 O.co2      1 MOL1        -0.6703
       4    C2      19.906165   18.381995   26.294557 C.3        1 MOL1        -0.1963
       5    H1      18.968456   17.955635   25.918819 H          1 MOL1         0.0750
       6    H2      19.926852   18.187934   27.372995 H          1 MOL1         0.0750
       7    C3      21.122542   17.672978   25.633431 C.3        1 MOL1        -0.1860
       8    H3      22.038376   18.251536   25.817544 H          1 MOL1         0.0752
       9    H4      21.270687   16.711545   26.143375 H          1 MOL1         0.0752
      10    C4      20.979918   17.380017   24.117517 C.3        1 MOL1        -0.1858
      11    H5      20.118609   16.721319   23.940718 H          1 MOL1         0.0752
      12    H6      21.861998   16.802259   23.809197 H          1 MOL1         0.0752
      13    C5      20.891393   18.636115   23.215833 C.3        1 MOL1        -0.1858
      14    H7      21.334220   19.501889   23.726794 H          1 MOL1         0.0752
      15    H8      21.503532   18.463755   22.320999 H          1 MOL1         0.0752
      16    C6      19.443788   18.953615   22.768638 C.3        1 MOL1        -0.1858
      17    H9      18.784787   18.975928   23.645095 H          1 MOL1         0.0752
      18    H10     19.071463   18.144425   22.126020 H          1 MOL1         0.0752
      19    C7      19.314528   20.304178   22.027364 C.3        1 MOL1        -0.1834
      20    H11     18.250861   20.499968   21.834417 H          1 MOL1         0.0752
      21    H12     19.664897   21.115971   22.680239 H          1 MOL1         0.0752
      22    C8      20.081517   20.343625   20.687673 C.3        1 MOL1        -0.2849
      23    H13     19.767173   19.522173   20.030844 H          1 MOL1         0.0764
      24    H14     19.889749   21.288603   20.163224 H          1 MOL1         0.0764
      25    H15     21.164525   20.264507   20.844743 H          1 MOL1         0.0764
@<TRIPOS>BOND
    1     1     2    1
    2     1     3    2
    3     1     4    1
    4     4     5    1
    5     4     6    1
    6     4     7    1
    7     7     8    1
    8     7     9    1
    9     7    10    1
   10    10    11    1
   11    10    12    1
   12    10    13    1
   13    13    14    1
   14    13    15    1
   15    13    16    1
   16    16    17    1
   17    16    18    1
   18    16    19    1
   19    19    20    1
   20    19    21    1
   21    19    22    1
   22    22    23    1
   23    22    24    1
   24    22    25    1
@<TRIPOS>SUBSTRUCTURE
       1 MOL1            1 RESIDUE      1      MOL     
@<SCITEGIC>MOL_PROPERTY
VM2 Rank
SciTegic.value.IntegerValue
194

@<SCITEGIC>MOL_PROPERTY
Conf_Id
SciTegic.value.IntegerValue
282

@<SCITEGIC>MOL_PROPERTY
Probability
SciTegic.value.DoubleValue
0.00

@<SCITEGIC>MOL_PROPERTY
Sum Probability
SciTegic.value.DoubleValue
100.00

@<SCITEGIC>MOL_PROPERTY
Delta G
SciTegic.value.DoubleValue
9.639

@<SCITEGIC>MOL_PROPERTY
G
SciTegic.value.DoubleValue
1.677

@<SCITEGIC>MOL_PROPERTY
E
SciTegic.value.DoubleValue
-24.044

@<SCITEGIC>MOL_PROPERTY
-TS
SciTegic.value.DoubleValue
25.721

@<SCITEGIC>MOL_PROPERTY
U+W
SciTegic.value.DoubleValue
-44.611

@<SCITEGIC>MOL_PROPERTY
U
SciTegic.value.DoubleValue
16.285

@<SCITEGIC>MOL_PROPERTY
W
SciTegic.value.DoubleValue
-60.897

@<SCITEGIC>MOL_PROPERTY
W(PB)
SciTegic.value.DoubleValue
-63.242

@<SCITEGIC>MOL_PROPERTY
W(SA)
SciTegic.value.DoubleValue
2.346

@<SCITEGIC>MOL_PROPERTY
Valence
SciTegic.value.DoubleValue
13.053

@<SCITEGIC>MOL_PROPERTY
Coulomb
SciTegic.value.DoubleValue
2.894

@<SCITEGIC>MOL_PROPERTY
VdW
SciTegic.value.DoubleValue
0.338

@<SCITEGIC>MOL_PROPERTY
VdW6
SciTegic.value.DoubleValue
-12.523

@<SCITEGIC>MOL_PROPERTY
VdW12
SciTegic.value.DoubleValue
12.861

@<SCITEGIC>MOL_PROPERTY
Bond
SciTegic.value.DoubleValue
0.282

@<SCITEGIC>MOL_PROPERTY
Angle
SciTegic.value.DoubleValue
4.009

@<SCITEGIC>MOL_PROPERTY
Pdih
SciTegic.value.DoubleValue
8.740

@<SCITEGIC>MOL_PROPERTY
Idih
SciTegic.value.DoubleValue
0.021

@<SCITEGIC>MOL_PROPERTY
Tether
SciTegic.value.DoubleValue
0.000

@<TRIPOS>MOLECULE
guest-8_vm2.mol2 : vm2 ligand conformer 195
          25          24           1
SMALL
USER_CHARGES
 
@<TRIPOS>ATOM
       1    C1      20.333456   19.798778   26.359787 C.2        1 MOL1         0.6168
       2    O1      21.236652   20.566507   26.091428 O.co2      1 MOL1        -0.6703
       3    O2      19.254187   20.153727   26.791945 O.co2      1 MOL1        -0.6703
       4    C2      20.593838   18.302967   26.209214 C.3        1 MOL1        -0.1963
       5    H1      19.826552   17.755496   26.769636 H          1 MOL1         0.0750
       6    H2      21.549220   18.096769   26.705736 H          1 MOL1         0.0750
       7    C3      20.661201   17.786374   24.744760 C.3        1 MOL1        -0.1860
       8    H3      21.381521   18.383643   24.172925 H          1 MOL1         0.0752
       9    H4      21.067260   16.766315   24.770421 H          1 MOL1         0.0752
      10    C4      19.288218   17.733273   24.025010 C.3        1 MOL1        -0.1858
      11    H5      18.532001   17.378529   24.738442 H          1 MOL1         0.0752
      12    H6      19.324627   16.971205   23.234786 H          1 MOL1         0.0752
      13    C5      18.812161   19.076223   23.409193 C.3        1 MOL1        -0.1858
      14    H7      17.721291   19.130004   23.524850 H          1 MOL1         0.0752
      15    H8      19.205195   19.932063   23.969523 H          1 MOL1         0.0752
      16    C6      19.125042   19.233288   21.897655 C.3        1 MOL1        -0.1858
      17    H9      18.624872   20.138221   21.526841 H          1 MOL1         0.0752
      18    H10     18.669999   18.395061   21.352802 H          1 MOL1         0.0752
      19    C7      20.625814   19.311153   21.529543 C.3        1 MOL1        -0.1834
      20    H11     21.147008   18.407886   21.871579 H          1 MOL1         0.0752
      21    H12     20.717297   19.317064   20.434812 H          1 MOL1         0.0752
      22    C8      21.322431   20.571711   22.087465 C.3        1 MOL1        -0.2849
      23    H13     22.368437   20.611085   21.757664 H          1 MOL1         0.0764
      24    H14     20.822317   21.483449   21.736350 H          1 MOL1         0.0764
      25    H15     21.318385   20.582298   23.184893 H          1 MOL1         0.0764
@<TRIPOS>BOND
    1     1     2    1
    2     1     3    2
    3     1     4    1
    4     4     5    1
    5     4     6    1
    6     4     7    1
    7     7     8    1
    8     7     9    1
    9     7    10    1
   10    10    11    1
   11    10    12    1
   12    10    13    1
   13    13    14    1
   14    13    15    1
   15    13    16    1
   16    16    17    1
   17    16    18    1
   18    16    19    1
   19    19    20    1
   20    19    21    1
   21    19    22    1
   22    22    23    1
   23    22    24    1
   24    22    25    1
@<TRIPOS>SUBSTRUCTURE
       1 MOL1            1 RESIDUE      1      MOL     
@<SCITEGIC>MOL_PROPERTY
VM2 Rank
SciTegic.value.IntegerValue
195

@<SCITEGIC>MOL_PROPERTY
Conf_Id
SciTegic.value.IntegerValue
1111

@<SCITEGIC>MOL_PROPERTY
Probability
SciTegic.value.DoubleValue
0.00

@<SCITEGIC>MOL_PROPERTY
Sum Probability
SciTegic.value.DoubleValue
100.00

@<SCITEGIC>MOL_PROPERTY
Delta G
SciTegic.value.DoubleValue
9.755

@<SCITEGIC>MOL_PROPERTY
G
SciTegic.value.DoubleValue
1.793

@<SCITEGIC>MOL_PROPERTY
E
SciTegic.value.DoubleValue
-24.235

@<SCITEGIC>MOL_PROPERTY
-TS
SciTegic.value.DoubleValue
26.028

@<SCITEGIC>MOL_PROPERTY
U+W
SciTegic.value.DoubleValue
-44.803

@<SCITEGIC>MOL_PROPERTY
U
SciTegic.value.DoubleValue
16.612

@<SCITEGIC>MOL_PROPERTY
W
SciTegic.value.DoubleValue
-61.415

@<SCITEGIC>MOL_PROPERTY
W(PB)
SciTegic.value.DoubleValue
-63.728

@<SCITEGIC>MOL_PROPERTY
W(SA)
SciTegic.value.DoubleValue
2.313

@<SCITEGIC>MOL_PROPERTY
Valence
SciTegic.value.DoubleValue
13.358

@<SCITEGIC>MOL_PROPERTY
Coulomb
SciTegic.value.DoubleValue
3.087

@<SCITEGIC>MOL_PROPERTY
VdW
SciTegic.value.DoubleValue
0.167

@<SCITEGIC>MOL_PROPERTY
VdW6
SciTegic.value.DoubleValue
-12.848

@<SCITEGIC>MOL_PROPERTY
VdW12
SciTegic.value.DoubleValue
13.015

@<SCITEGIC>MOL_PROPERTY
Bond
SciTegic.value.DoubleValue
0.326

@<SCITEGIC>MOL_PROPERTY
Angle
SciTegic.value.DoubleValue
4.202

@<SCITEGIC>MOL_PROPERTY
Pdih
SciTegic.value.DoubleValue
8.823

@<SCITEGIC>MOL_PROPERTY
Idih
SciTegic.value.DoubleValue
0.006

@<SCITEGIC>MOL_PROPERTY
Tether
SciTegic.value.DoubleValue
0.000

