@<TRIPOS>MOLECULE
CD_vm2.mol2 : vm2 host conformer 1
         126         132           1
SMALL
USER_CHARGES
 
@<TRIPOS>ATOM
       1    C1      17.015389   16.243431   22.819802 C.3        1 MOL1         0.2972
       2    H1      16.044079   16.259275   23.326280 H          1 MOL1         0.0751
       3    O1      17.266829   17.504885   22.155618 O.3        1 MOL1        -0.3740
       4    C2      18.132965   15.982164   23.864679 C.3        1 MOL1         0.1003
       5    H2      17.909944   15.016738   24.337879 H          1 MOL1         0.0783
       6    O2      18.170824   17.002172   24.877178 O.3        1 MOL1        -0.5519
       7    H3      17.274128   17.066394   25.267618 H          1 MOL1         0.3769
       8    C3      19.513878   15.863893   23.180006 C.3        1 MOL1         0.1053
       9    H4      19.776097   16.846742   22.764603 H          1 MOL1         0.0783
      10    O3      20.482745   15.469328   24.157418 O.3        1 MOL1        -0.5519
      11    H5      20.338874   16.085330   24.910957 H          1 MOL1         0.3769
      12    C4      19.479486   14.834882   22.023376 C.3        1 MOL1         0.1018
      13    H6      19.433168   13.825334   22.452692 H          1 MOL1         0.0783
      14    C5      18.265785   15.053009   21.080071 C.3        1 MOL1         0.1043
      15    H7      18.431406   15.978997   20.521171 H          1 MOL1         0.0783
      16    O4      17.049711   15.164397   21.857882 O.3        1 MOL1        -0.3740
      17    C6      18.065810   13.919533   20.050281 C.3        1 MOL1         0.0138
      18    H8      18.924539   13.902678   19.366127 H          1 MOL1         0.0794
      19    H9      17.175286   14.144202   19.447895 H          1 MOL1         0.0794
      20    O5      17.923729   12.651478   20.697240 O.3        1 MOL1        -0.5486
      21    H10     17.154044   12.736176   21.303075 H          1 MOL1         0.3769
      22    C7      15.017620   20.335354   20.032072 C.3        1 MOL1         0.2972
      23    H11     14.399391   20.862648   19.294519 H          1 MOL1         0.0751
      24    O6      15.520995   21.241833   21.031880 O.3        1 MOL1        -0.3740
      25    C8      14.174942   19.259377   20.757640 C.3        1 MOL1         0.1003
      26    H12     13.796886   18.568466   19.992650 H          1 MOL1         0.0783
      27    O7      13.067014   19.870026   21.435956 O.3        1 MOL1        -0.5519
      28    H13     13.441779   20.633202   21.931473 H          1 MOL1         0.3769
      29    C9      15.026259   18.442308   21.762852 C.3        1 MOL1         0.1053
      30    H14     15.303246   19.104387   22.594734 H          1 MOL1         0.0783
      31    O8      14.211692   17.368607   22.243881 O.3        1 MOL1        -0.5519
      32    H15     13.344019   17.778936   22.457198 H          1 MOL1         0.3769
      33    C10     16.339958   17.910547   21.117011 C.3        1 MOL1         0.1018
      34    H16     16.102752   17.075017   20.445769 H          1 MOL1         0.0783
      35    C11     17.062658   19.020945   20.304533 C.3        1 MOL1         0.1043
      36    H17     17.464822   19.758379   21.012394 H          1 MOL1         0.0783
      37    O9      16.127909   19.661500   19.402408 O.3        1 MOL1        -0.3740
      38    C12     18.243614   18.506185   19.452905 C.3        1 MOL1         0.0138
      39    H18     19.010431   18.091904   20.120203 H          1 MOL1         0.0794
      40    H19     18.693543   19.357958   18.925438 H          1 MOL1         0.0794
      41    O10     17.816230   17.516143   18.513491 O.3        1 MOL1        -0.5486
      42    H20     17.093451   17.927679   17.990609 H          1 MOL1         0.3769
      43    C13     18.429253   24.101042   20.876481 C.3        1 MOL1         0.2972
      44    H21     19.113346   24.953014   20.771207 H          1 MOL1         0.0751
      45    O11     19.131456   22.903020   21.271378 O.3        1 MOL1        -0.3740
      46    C14     17.292595   24.419213   21.877971 C.3        1 MOL1         0.1003
      47    H22     16.714912   25.252181   21.456360 H          1 MOL1         0.0783
      48    O12     17.801520   24.807568   23.163278 O.3        1 MOL1        -0.5519
      49    H23     18.259872   24.013897   23.538668 H          1 MOL1         0.3769
      50    C15     16.345502   23.207541   22.025087 C.3        1 MOL1         0.1053
      51    H24     16.898711   22.427749   22.567028 H          1 MOL1         0.0783
      52    O13     15.205529   23.603890   22.795294 O.3        1 MOL1        -0.5519
      53    H25     15.570019   24.081077   23.573093 H          1 MOL1         0.3769
      54    C16     15.884838   22.598696   20.668490 C.3        1 MOL1         0.1018
      55    H26     15.000916   23.149751   20.322818 H          1 MOL1         0.0783
      56    C17     16.984787   22.628220   19.548149 C.3        1 MOL1         0.1043
      57    H27     17.644415   21.761261   19.676363 H          1 MOL1         0.0783
      58    O14     17.779835   23.837557   19.622556 O.3        1 MOL1        -0.3740
      59    C18     16.426919   22.603896   18.102931 C.3        1 MOL1         0.0138
      60    H28     15.927017   21.650984   17.900106 H          1 MOL1         0.0794
      61    H29     17.271562   22.671238   17.404043 H          1 MOL1         0.0794
      62    O15     15.520863   23.688144   17.880882 O.3        1 MOL1        -0.5486
      63    H30     16.021380   24.509459   18.085368 H          1 MOL1         0.3769
      64    C19     22.676563   21.661341   23.068768 C.3        1 MOL1         0.2972
      65    H31     23.610774   21.634710   23.640390 H          1 MOL1         0.0751
      66    O16     22.472223   20.413582   22.363807 O.3        1 MOL1        -0.3740
      67    C20     21.489638   21.902457   24.039373 C.3        1 MOL1         0.1003
      68    H32     21.678948   22.858086   24.545970 H          1 MOL1         0.0783
      69    O17     21.382979   20.862457   25.026300 O.3        1 MOL1        -0.5519
      70    H33     22.250771   20.789814   25.476067 H          1 MOL1         0.3769
      71    C21     20.158969   22.035331   23.263907 C.3        1 MOL1         0.1053
      72    H34     19.926595   21.061155   22.811918 H          1 MOL1         0.0783
      73    O18     19.124946   22.410963   24.180103 O.3        1 MOL1        -0.5519
      74    H35     19.217118   21.779942   24.929300 H          1 MOL1         0.3769
      75    C22     20.272071   23.087213   22.133159 C.3        1 MOL1         0.1018
      76    H36     20.288076   24.087953   22.584722 H          1 MOL1         0.0783
      77    C23     21.547887   22.887140   21.271336 C.3        1 MOL1         0.1043
      78    H37     21.421709   21.972618   20.683984 H          1 MOL1         0.0783
      79    O19     22.707700   22.759399   22.128511 O.3        1 MOL1        -0.3740
      80    C24     21.817392   24.040828   20.280579 C.3        1 MOL1         0.0138
      81    H38     21.007706   24.071942   19.539494 H          1 MOL1         0.0794
      82    H39     22.747367   23.827626   19.736457 H          1 MOL1         0.0794
      83    O20     21.913801   25.295605   20.960980 O.3        1 MOL1        -0.5486
      84    H40     22.640087   25.198291   21.616466 H          1 MOL1         0.3769
      85    C25     24.864018   17.624548   20.343778 C.3        1 MOL1         0.2972
      86    H41     25.531842   17.111665   19.640080 H          1 MOL1         0.0751
      87    O21     24.293738   16.698631   21.288322 O.3        1 MOL1        -0.3740
      88    C26     25.654091   18.685236   21.146898 C.3        1 MOL1         0.1003
      89    H42     26.083369   19.391027   20.423659 H          1 MOL1         0.0783
      90    O22     26.713183   18.060388   21.887437 O.3        1 MOL1        -0.5519
      91    H43     26.305767   17.287697   22.340633 H          1 MOL1         0.3769
      92    C27     24.735131   19.482650   22.107332 C.3        1 MOL1         0.1053
      93    H44     24.402075   18.804282   22.904820 H          1 MOL1         0.0783
      94    O23     25.513972   20.545971   22.664558 O.3        1 MOL1        -0.5519
      95    H45     26.365205   20.130863   22.928789 H          1 MOL1         0.3769
      96    C28     23.468566   20.028105   21.383471 C.3        1 MOL1         0.1018
      97    H46     23.750773   20.876711   20.746941 H          1 MOL1         0.0783
      98    C29     22.804182   18.934653   20.501226 C.3        1 MOL1         0.1043
      99    H47     22.354821   18.183505   21.164900 H          1 MOL1         0.0783
     100    O24     23.799170   18.311605   19.652872 O.3        1 MOL1        -0.3740
     101    C30     21.684208   19.467131   19.580886 C.3        1 MOL1         0.0138
     102    H48     20.873050   19.868535   20.202031 H          1 MOL1         0.0794
     103    H49     21.272184   18.626371   19.006834 H          1 MOL1         0.0794
     104    O25     22.174485   20.475436   18.693031 O.3        1 MOL1        -0.5486
     105    H50     22.931825   20.073943   18.213015 H          1 MOL1         0.3769
     106    C31     21.405020   13.845088   20.876335 C.3        1 MOL1         0.2972
     107    H51     20.730368   12.995856   20.707297 H          1 MOL1         0.0751
     108    O26     20.676509   15.035466   21.245882 O.3        1 MOL1        -0.3740
     109    C32     22.470378   13.506201   21.947024 C.3        1 MOL1         0.1003
     110    H52     23.076249   12.681425   21.549562 H          1 MOL1         0.0783
     111    O27     21.874585   13.092599   23.186300 O.3        1 MOL1        -0.5519
     112    H53     21.390971   13.878929   23.545077 H          1 MOL1         0.3769
     113    C33     23.404281   14.714045   22.183057 C.3        1 MOL1         0.1053
     114    H54     22.814593   15.483235   22.701159 H          1 MOL1         0.0783
     115    O28     24.488896   14.301615   23.021723 O.3        1 MOL1        -0.5519
     116    H55     24.072141   13.809230   23.762942 H          1 MOL1         0.3769
     117    C34     23.956674   15.349547   20.873760 C.3        1 MOL1         0.1018
     118    H56     24.862645   14.804903   20.578723 H          1 MOL1         0.0783
     119    C35     22.936349   15.343155   19.680103 C.3        1 MOL1         0.1043
     120    H57     22.268870   16.207831   19.779966 H          1 MOL1         0.0783
     121    O29     22.138903   14.133118   19.675521 O.3        1 MOL1        -0.3740
     122    C36     23.592216   15.395963   18.277421 C.3        1 MOL1         0.0138
     123    H58     24.104216   16.352394   18.128509 H          1 MOL1         0.0794
     124    H59     22.797654   15.343173   17.520925 H          1 MOL1         0.0794
     125    O30     24.512142   14.315750   18.096562 O.3        1 MOL1        -0.5486
     126    H60     23.999327   13.490857   18.249736 H          1 MOL1         0.3769
@<TRIPOS>BOND
    1     1     2    1
    2     1     3    1
    3     1     4    1
    4     4     5    1
    5     4     6    1
    6     6     7    1
    7     4     8    1
    8     8     9    1
    9     8    10    1
   10    10    11    1
   11     8    12    1
   12    12    13    1
   13    12    14    1
   14    14    15    1
   15     1    16    1
   16    14    16    1
   17    14    17    1
   18    17    18    1
   19    17    19    1
   20    17    20    1
   21    20    21    1
   22    22    23    1
   23    22    24    1
   24    22    25    1
   25    25    26    1
   26    25    27    1
   27    27    28    1
   28    25    29    1
   29    29    30    1
   30    29    31    1
   31    31    32    1
   32     3    33    1
   33    29    33    1
   34    33    34    1
   35    33    35    1
   36    35    36    1
   37    22    37    1
   38    35    37    1
   39    35    38    1
   40    38    39    1
   41    38    40    1
   42    38    41    1
   43    41    42    1
   44    43    44    1
   45    43    45    1
   46    43    46    1
   47    46    47    1
   48    46    48    1
   49    48    49    1
   50    46    50    1
   51    50    51    1
   52    50    52    1
   53    52    53    1
   54    24    54    1
   55    50    54    1
   56    54    55    1
   57    54    56    1
   58    56    57    1
   59    43    58    1
   60    56    58    1
   61    56    59    1
   62    59    60    1
   63    59    61    1
   64    59    62    1
   65    62    63    1
   66    64    65    1
   67    64    66    1
   68    64    67    1
   69    67    68    1
   70    67    69    1
   71    69    70    1
   72    67    71    1
   73    71    72    1
   74    71    73    1
   75    73    74    1
   76    45    75    1
   77    71    75    1
   78    75    76    1
   79    75    77    1
   80    77    78    1
   81    64    79    1
   82    77    79    1
   83    77    80    1
   84    80    81    1
   85    80    82    1
   86    80    83    1
   87    83    84    1
   88    85    86    1
   89    85    87    1
   90    85    88    1
   91    88    89    1
   92    88    90    1
   93    90    91    1
   94    88    92    1
   95    92    93    1
   96    92    94    1
   97    94    95    1
   98    66    96    1
   99    92    96    1
  100    96    97    1
  101    96    98    1
  102    98    99    1
  103    85   100    1
  104    98   100    1
  105    98   101    1
  106   101   102    1
  107   101   103    1
  108   101   104    1
  109   104   105    1
  110   106   107    1
  111    12   108    1
  112   106   108    1
  113   106   109    1
  114   109   110    1
  115   109   111    1
  116   111   112    1
  117   109   113    1
  118   113   114    1
  119   113   115    1
  120   115   116    1
  121    87   117    1
  122   113   117    1
  123   117   118    1
  124   117   119    1
  125   119   120    1
  126   106   121    1
  127   119   121    1
  128   119   122    1
  129   122   123    1
  130   122   124    1
  131   122   125    1
  132   125   126    1
@<TRIPOS>SUBSTRUCTURE
       1 MOL1            1 RESIDUE      1      MOL     
@<SCITEGIC>MOL_PROPERTY
VM2 Rank
SciTegic.value.IntegerValue
1

@<SCITEGIC>MOL_PROPERTY
Conf_Id
SciTegic.value.IntegerValue
9793

@<SCITEGIC>MOL_PROPERTY
Probability
SciTegic.value.DoubleValue
2.33

@<SCITEGIC>MOL_PROPERTY
Sum Probability
SciTegic.value.DoubleValue
2.33

@<SCITEGIC>MOL_PROPERTY
Delta G
SciTegic.value.DoubleValue
0.000

@<SCITEGIC>MOL_PROPERTY
G
SciTegic.value.DoubleValue
522.287

@<SCITEGIC>MOL_PROPERTY
E
SciTegic.value.DoubleValue
363.386

@<SCITEGIC>MOL_PROPERTY
-TS
SciTegic.value.DoubleValue
158.901

@<SCITEGIC>MOL_PROPERTY
U+W
SciTegic.value.DoubleValue
252.500

@<SCITEGIC>MOL_PROPERTY
U
SciTegic.value.DoubleValue
288.668

@<SCITEGIC>MOL_PROPERTY
W
SciTegic.value.DoubleValue
-36.168

@<SCITEGIC>MOL_PROPERTY
W(PB)
SciTegic.value.DoubleValue
-42.071

@<SCITEGIC>MOL_PROPERTY
W(SA)
SciTegic.value.DoubleValue
5.903

@<SCITEGIC>MOL_PROPERTY
Valence
SciTegic.value.DoubleValue
132.706

@<SCITEGIC>MOL_PROPERTY
Coulomb
SciTegic.value.DoubleValue
165.278

@<SCITEGIC>MOL_PROPERTY
VdW
SciTegic.value.DoubleValue
-9.316

@<SCITEGIC>MOL_PROPERTY
VdW6
SciTegic.value.DoubleValue
-143.640

@<SCITEGIC>MOL_PROPERTY
VdW12
SciTegic.value.DoubleValue
134.324

@<SCITEGIC>MOL_PROPERTY
Bond
SciTegic.value.DoubleValue
4.988

@<SCITEGIC>MOL_PROPERTY
Angle
SciTegic.value.DoubleValue
14.686

@<SCITEGIC>MOL_PROPERTY
Pdih
SciTegic.value.DoubleValue
113.032

@<SCITEGIC>MOL_PROPERTY
Idih
SciTegic.value.DoubleValue
0.000

@<SCITEGIC>MOL_PROPERTY
Tether
SciTegic.value.DoubleValue
0.000

@<TRIPOS>MOLECULE
CD_vm2.mol2 : vm2 host conformer 2
         126         132           1
SMALL
USER_CHARGES
 
@<TRIPOS>ATOM
       1    C1      16.975776   16.248480   22.809543 C.3        1 MOL1         0.2972
       2    H1      15.998866   16.273478   23.304965 H          1 MOL1         0.0751
       3    O1      17.240416   17.499098   22.129005 O.3        1 MOL1        -0.3740
       4    C2      18.077895   15.996015   23.869588 C.3        1 MOL1         0.1003
       5    H2      17.854222   15.030904   24.342690 H          1 MOL1         0.0783
       6    O2      18.093708   17.012651   24.879410 O.3        1 MOL1        -0.5519
       7    H3      18.948173   16.883077   25.349071 H          1 MOL1         0.3769
       8    C3      19.470668   15.882038   23.210912 C.3        1 MOL1         0.1053
       9    H4      19.737961   16.861539   22.790866 H          1 MOL1         0.0783
      10    O3      20.426203   15.495878   24.206471 O.3        1 MOL1        -0.5519
      11    H5      21.012685   14.819583   23.790922 H          1 MOL1         0.3769
      12    C4      19.460055   14.844282   22.061002 C.3        1 MOL1         0.1018
      13    H6      19.425415   13.836380   22.496464 H          1 MOL1         0.0783
      14    C5      18.253923   15.040721   21.100837 C.3        1 MOL1         0.1043
      15    H7      18.420028   15.959287   20.529550 H          1 MOL1         0.0783
      16    O4      17.026504   15.156941   21.861473 O.3        1 MOL1        -0.3740
      17    C6      18.071518   13.892177   20.084613 C.3        1 MOL1         0.0138
      18    H8      18.935823   13.872799   19.407651 H          1 MOL1         0.0794
      19    H9      17.184429   14.102021   19.471885 H          1 MOL1         0.0794
      20    O5      17.933158   12.631869   20.747134 O.3        1 MOL1        -0.5486
      21    H10     17.157515   12.718690   21.345044 H          1 MOL1         0.3769
      22    C7      15.025610   20.336362   19.995959 C.3        1 MOL1         0.2972
      23    H11     14.418452   20.877004   19.258854 H          1 MOL1         0.0751
      24    O6      15.528959   21.227379   21.009740 O.3        1 MOL1        -0.3740
      25    C8      14.167498   19.260421   20.702443 C.3        1 MOL1         0.1003
      26    H12     13.793187   18.579328   19.926872 H          1 MOL1         0.0783
      27    O7      13.056250   19.872974   21.373579 O.3        1 MOL1        -0.5519
      28    H13     13.431146   20.626960   21.882842 H          1 MOL1         0.3769
      29    C9      15.001217   18.427725   21.709623 C.3        1 MOL1         0.1053
      30    H14     15.267296   19.077589   22.554668 H          1 MOL1         0.0783
      31    O8      14.174837   17.350645   22.162432 O.3        1 MOL1        -0.5519
      32    H15     13.307892   17.762429   22.375472 H          1 MOL1         0.3769
      33    C10     16.323446   17.897589   21.079411 C.3        1 MOL1         0.1018
      34    H16     16.095347   17.058217   20.409847 H          1 MOL1         0.0783
      35    C11     17.057575   19.004161   20.272013 C.3        1 MOL1         0.1043
      36    H17     17.463916   19.735716   20.983563 H          1 MOL1         0.0783
      37    O9      16.133721   19.657430   19.368293 O.3        1 MOL1        -0.3740
      38    C12     18.237497   18.479807   19.425053 C.3        1 MOL1         0.0138
      39    H18     18.998931   18.062625   20.096508 H          1 MOL1         0.0794
      40    H19     18.694686   19.327128   18.896565 H          1 MOL1         0.0794
      41    O10     17.807848   17.488760   18.487769 O.3        1 MOL1        -0.5486
      42    H20     17.091810   17.903385   17.958122 H          1 MOL1         0.3769
      43    C13     18.448206   24.082526   20.909370 C.3        1 MOL1         0.2972
      44    H21     19.132225   24.936038   20.816848 H          1 MOL1         0.0751
      45    O11     19.147735   22.882548   21.302619 O.3        1 MOL1        -0.3740
      46    C14     17.303470   24.391416   21.904222 C.3        1 MOL1         0.1003
      47    H22     16.729429   25.228680   21.486172 H          1 MOL1         0.0783
      48    O12     17.802803   24.766883   23.197150 O.3        1 MOL1        -0.5519
      49    H23     18.265262   23.972141   23.565284 H          1 MOL1         0.3769
      50    C15     16.355069   23.178482   22.031611 C.3        1 MOL1         0.1053
      51    H24     16.904134   22.392378   22.568818 H          1 MOL1         0.0783
      52    O13     15.209839   23.567283   22.797867 O.3        1 MOL1        -0.5519
      53    H25     15.569122   24.036086   23.583166 H          1 MOL1         0.3769
      54    C16     15.903761   22.585879   20.664640 C.3        1 MOL1         0.1018
      55    H26     15.026388   23.145610   20.316239 H          1 MOL1         0.0783
      56    C17     17.014993   22.620943   19.555796 C.3        1 MOL1         0.1043
      57    H27     17.671598   21.751662   19.684402 H          1 MOL1         0.0783
      58    O14     17.810772   23.828498   19.647418 O.3        1 MOL1        -0.3740
      59    C18     16.472411   22.609555   18.104524 C.3        1 MOL1         0.0138
      60    H28     15.974112   21.658976   17.887658 H          1 MOL1         0.0794
      61    H29     17.324528   22.682366   17.415317 H          1 MOL1         0.0794
      62    O15     15.569543   23.696416   17.882217 O.3        1 MOL1        -0.5486
      63    H30     16.068558   24.515524   18.098833 H          1 MOL1         0.3769
      64    C19     22.702981   21.645397   23.087372 C.3        1 MOL1         0.2972
      65    H31     23.640363   21.620589   23.654355 H          1 MOL1         0.0751
      66    O16     22.500052   20.396663   22.384068 O.3        1 MOL1        -0.3740
      67    C20     21.517704   21.881233   24.061862 C.3        1 MOL1         0.1003
      68    H32     21.705114   22.836685   24.569493 H          1 MOL1         0.0783
      69    O17     21.416571   20.839221   25.047357 O.3        1 MOL1        -0.5519
      70    H33     22.285008   20.769950   25.496414 H          1 MOL1         0.3769
      71    C21     20.184277   22.010793   23.289747 C.3        1 MOL1         0.1053
      72    H34     19.954567   21.036934   22.835746 H          1 MOL1         0.0783
      73    O18     19.150269   22.380454   24.208408 O.3        1 MOL1        -0.5519
      74    H35     19.245299   21.747837   24.955867 H          1 MOL1         0.3769
      75    C22     20.290723   23.065904   22.161513 C.3        1 MOL1         0.1018
      76    H36     20.306081   24.065288   22.616217 H          1 MOL1         0.0783
      77    C23     21.563819   22.870497   21.294985 C.3        1 MOL1         0.1043
      78    H37     21.437504   21.956405   20.706820 H          1 MOL1         0.0783
      79    O19     22.726860   22.744647   22.148039 O.3        1 MOL1        -0.3740
      80    C24     21.827367   24.026379   20.305135 C.3        1 MOL1         0.0138
      81    H38     21.015600   24.056367   19.566271 H          1 MOL1         0.0794
      82    H39     22.756451   23.816663   19.758173 H          1 MOL1         0.0794
      83    O20     21.922266   25.280380   20.987178 O.3        1 MOL1        -0.5486
      84    H40     22.650799   25.184117   21.640329 H          1 MOL1         0.3769
      85    C25     24.878281   17.639764   20.304596 C.3        1 MOL1         0.2972
      86    H41     25.530526   17.136631   19.579559 H          1 MOL1         0.0751
      87    O21     24.360927   16.703157   21.273297 O.3        1 MOL1        -0.3740
      88    C26     25.673306   18.729308   21.065249 C.3        1 MOL1         0.1003
      89    H42     26.044980   19.441818   20.317045 H          1 MOL1         0.0783
      90    O22     26.789065   18.149860   21.757603 O.3        1 MOL1        -0.5519
      91    H43     26.431612   17.386875   22.261048 H          1 MOL1         0.3769
      92    C27     24.773853   19.509167   22.058352 C.3        1 MOL1         0.1053
      93    H44     24.482663   18.826541   22.868284 H          1 MOL1         0.0783
      94    O23     25.547798   20.591039   22.585702 O.3        1 MOL1        -0.5519
      95    H45     26.421205   20.198939   22.809575 H          1 MOL1         0.3769
      96    C28     23.473554   20.026371   21.375564 C.3        1 MOL1         0.1018
      97    H46     23.718652   20.876518   20.725943 H          1 MOL1         0.0783
      98    C29     22.801259   18.916689   20.521199 C.3        1 MOL1         0.1043
      99    H47     22.384815   18.163234   21.203366 H          1 MOL1         0.0783
     100    O24     23.778569   18.303257   19.646154 O.3        1 MOL1        -0.3740
     101    C30     21.646158   19.426513   19.632127 C.3        1 MOL1         0.0138
     102    H48     20.850874   19.826549   20.274558 H          1 MOL1         0.0794
     103    H49     21.226283   18.574770   19.080568 H          1 MOL1         0.0794
     104    O25     22.096229   20.429589   18.717577 O.3        1 MOL1        -0.5486
     105    H50     22.843720   20.031594   18.219575 H          1 MOL1         0.3769
     106    C31     21.396007   13.875101   20.913967 C.3        1 MOL1         0.2972
     107    H51     20.725449   13.020462   20.756757 H          1 MOL1         0.0751
     108    O26     20.665671   15.059883   21.300206 O.3        1 MOL1        -0.3740
     109    C32     22.481411   13.545018   21.966161 C.3        1 MOL1         0.1003
     110    H52     23.090699   12.725426   21.562912 H          1 MOL1         0.0783
     111    O27     21.911679   13.137027   23.216718 O.3        1 MOL1        -0.5519
     112    H53     22.681876   13.010440   23.815908 H          1 MOL1         0.3769
     113    C33     23.403929   14.763204   22.184972 C.3        1 MOL1         0.1053
     114    H54     22.805290   15.540996   22.679342 H          1 MOL1         0.0783
     115    O28     24.491176   14.387184   23.037657 O.3        1 MOL1        -0.5519
     116    H55     25.011129   15.204299   23.189706 H          1 MOL1         0.3769
     117    C34     23.957799   15.367671   20.863686 C.3        1 MOL1         0.1018
     118    H56     24.835002   14.785426   20.553479 H          1 MOL1         0.0783
     119    C35     22.910295   15.376998   19.692673 C.3        1 MOL1         0.1043
     120    H57     22.248532   16.243198   19.810876 H          1 MOL1         0.0783
     121    O29     22.106726   14.170277   19.700429 O.3        1 MOL1        -0.3740
     122    C36     23.534769   15.425260   18.275054 C.3        1 MOL1         0.0138
     123    H58     24.053007   16.375931   18.113168 H          1 MOL1         0.0794
     124    H59     22.722618   15.380475   17.536929 H          1 MOL1         0.0794
     125    O30     24.439766   14.336261   18.072657 O.3        1 MOL1        -0.5486
     126    H60     23.921461   13.516320   18.233732 H          1 MOL1         0.3769
@<TRIPOS>BOND
    1     1     2    1
    2     1     3    1
    3     1     4    1
    4     4     5    1
    5     4     6    1
    6     6     7    1
    7     4     8    1
    8     8     9    1
    9     8    10    1
   10    10    11    1
   11     8    12    1
   12    12    13    1
   13    12    14    1
   14    14    15    1
   15     1    16    1
   16    14    16    1
   17    14    17    1
   18    17    18    1
   19    17    19    1
   20    17    20    1
   21    20    21    1
   22    22    23    1
   23    22    24    1
   24    22    25    1
   25    25    26    1
   26    25    27    1
   27    27    28    1
   28    25    29    1
   29    29    30    1
   30    29    31    1
   31    31    32    1
   32     3    33    1
   33    29    33    1
   34    33    34    1
   35    33    35    1
   36    35    36    1
   37    22    37    1
   38    35    37    1
   39    35    38    1
   40    38    39    1
   41    38    40    1
   42    38    41    1
   43    41    42    1
   44    43    44    1
   45    43    45    1
   46    43    46    1
   47    46    47    1
   48    46    48    1
   49    48    49    1
   50    46    50    1
   51    50    51    1
   52    50    52    1
   53    52    53    1
   54    24    54    1
   55    50    54    1
   56    54    55    1
   57    54    56    1
   58    56    57    1
   59    43    58    1
   60    56    58    1
   61    56    59    1
   62    59    60    1
   63    59    61    1
   64    59    62    1
   65    62    63    1
   66    64    65    1
   67    64    66    1
   68    64    67    1
   69    67    68    1
   70    67    69    1
   71    69    70    1
   72    67    71    1
   73    71    72    1
   74    71    73    1
   75    73    74    1
   76    45    75    1
   77    71    75    1
   78    75    76    1
   79    75    77    1
   80    77    78    1
   81    64    79    1
   82    77    79    1
   83    77    80    1
   84    80    81    1
   85    80    82    1
   86    80    83    1
   87    83    84    1
   88    85    86    1
   89    85    87    1
   90    85    88    1
   91    88    89    1
   92    88    90    1
   93    90    91    1
   94    88    92    1
   95    92    93    1
   96    92    94    1
   97    94    95    1
   98    66    96    1
   99    92    96    1
  100    96    97    1
  101    96    98    1
  102    98    99    1
  103    85   100    1
  104    98   100    1
  105    98   101    1
  106   101   102    1
  107   101   103    1
  108   101   104    1
  109   104   105    1
  110   106   107    1
  111    12   108    1
  112   106   108    1
  113   106   109    1
  114   109   110    1
  115   109   111    1
  116   111   112    1
  117   109   113    1
  118   113   114    1
  119   113   115    1
  120   115   116    1
  121    87   117    1
  122   113   117    1
  123   117   118    1
  124   117   119    1
  125   119   120    1
  126   106   121    1
  127   119   121    1
  128   119   122    1
  129   122   123    1
  130   122   124    1
  131   122   125    1
  132   125   126    1
@<TRIPOS>SUBSTRUCTURE
       1 MOL1            1 RESIDUE      1      MOL     
@<SCITEGIC>MOL_PROPERTY
VM2 Rank
SciTegic.value.IntegerValue
2

@<SCITEGIC>MOL_PROPERTY
Conf_Id
SciTegic.value.IntegerValue
12581

@<SCITEGIC>MOL_PROPERTY
Probability
SciTegic.value.DoubleValue
1.85

@<SCITEGIC>MOL_PROPERTY
Sum Probability
SciTegic.value.DoubleValue
4.18

@<SCITEGIC>MOL_PROPERTY
Delta G
SciTegic.value.DoubleValue
0.138

@<SCITEGIC>MOL_PROPERTY
G
SciTegic.value.DoubleValue
522.425

@<SCITEGIC>MOL_PROPERTY
E
SciTegic.value.DoubleValue
363.854

@<SCITEGIC>MOL_PROPERTY
-TS
SciTegic.value.DoubleValue
158.571

@<SCITEGIC>MOL_PROPERTY
U+W
SciTegic.value.DoubleValue
252.968

@<SCITEGIC>MOL_PROPERTY
U
SciTegic.value.DoubleValue
290.614

@<SCITEGIC>MOL_PROPERTY
W
SciTegic.value.DoubleValue
-37.646

@<SCITEGIC>MOL_PROPERTY
W(PB)
SciTegic.value.DoubleValue
-43.540

@<SCITEGIC>MOL_PROPERTY
W(SA)
SciTegic.value.DoubleValue
5.894

@<SCITEGIC>MOL_PROPERTY
Valence
SciTegic.value.DoubleValue
133.280

@<SCITEGIC>MOL_PROPERTY
Coulomb
SciTegic.value.DoubleValue
166.939

@<SCITEGIC>MOL_PROPERTY
VdW
SciTegic.value.DoubleValue
-9.605

@<SCITEGIC>MOL_PROPERTY
VdW6
SciTegic.value.DoubleValue
-143.688

@<SCITEGIC>MOL_PROPERTY
VdW12
SciTegic.value.DoubleValue
134.084

@<SCITEGIC>MOL_PROPERTY
Bond
SciTegic.value.DoubleValue
4.956

@<SCITEGIC>MOL_PROPERTY
Angle
SciTegic.value.DoubleValue
15.070

@<SCITEGIC>MOL_PROPERTY
Pdih
SciTegic.value.DoubleValue
113.254

@<SCITEGIC>MOL_PROPERTY
Idih
SciTegic.value.DoubleValue
0.000

@<SCITEGIC>MOL_PROPERTY
Tether
SciTegic.value.DoubleValue
0.000

@<TRIPOS>MOLECULE
CD_vm2.mol2 : vm2 host conformer 3
         126         132           1
SMALL
USER_CHARGES
 
@<TRIPOS>ATOM
       1    C1      17.062230   16.321760   22.839316 C.3        1 MOL1         0.2972
       2    H1      16.099955   16.346355   23.362617 H          1 MOL1         0.0751
       3    O1      17.296749   17.569341   22.144478 O.3        1 MOL1        -0.3740
       4    C2      18.199504   16.087609   23.869813 C.3        1 MOL1         0.1003
       5    H2      17.981744   15.138228   24.376719 H          1 MOL1         0.0783
       6    O2      18.262943   17.138631   24.849118 O.3        1 MOL1        -0.5519
       7    H3      17.373582   17.222919   25.252198 H          1 MOL1         0.3769
       8    C3      19.567656   15.943310   23.165171 C.3        1 MOL1         0.1053
       9    H4      19.828666   16.914289   22.722275 H          1 MOL1         0.0783
      10    O3      20.549196   15.566061   24.136792 O.3        1 MOL1        -0.5519
      11    H5      20.409469   16.189480   24.884846 H          1 MOL1         0.3769
      12    C4      19.509602   14.888393   22.033480 C.3        1 MOL1         0.1018
      13    H6      19.459539   13.889228   22.485816 H          1 MOL1         0.0783
      14    C5      18.284517   15.096513   21.103389 C.3        1 MOL1         0.1043
      15    H7      18.444775   16.013191   20.527168 H          1 MOL1         0.0783
      16    O4      17.081542   15.223350   21.898876 O.3        1 MOL1        -0.3740
      17    C6      18.065151   13.947095   20.095413 C.3        1 MOL1         0.0138
      18    H8      18.913415   13.915950   19.398820 H          1 MOL1         0.0794
      19    H9      17.166394   14.165147   19.502905 H          1 MOL1         0.0794
      20    O5      17.928526   12.690229   20.764967 O.3        1 MOL1        -0.5486
      21    H10     17.169003   12.787937   21.381574 H          1 MOL1         0.3769
      22    C7      15.000519   20.347931   20.016297 C.3        1 MOL1         0.2972
      23    H11     14.373731   20.871812   19.283569 H          1 MOL1         0.0751
      24    O6      15.500773   21.254585   21.017518 O.3        1 MOL1        -0.3740
      25    C8      14.172529   19.263477   20.745751 C.3        1 MOL1         0.1003
      26    H12     13.803394   18.564257   19.983961 H          1 MOL1         0.0783
      27    O7      13.057183   19.861508   21.423162 O.3        1 MOL1        -0.5519
      28    H13     13.422724   20.629085   21.918676 H          1 MOL1         0.3769
      29    C9      15.037405   18.463634   21.753340 C.3        1 MOL1         0.1053
      30    H14     15.308061   19.134064   22.580597 H          1 MOL1         0.0783
      31    O8      14.238999   17.381887   22.243378 O.3        1 MOL1        -0.5519
      32    H15     13.365909   17.781248   22.455337 H          1 MOL1         0.3769
      33    C10     16.356044   17.945008   21.106821 C.3        1 MOL1         0.1018
      34    H16     16.127660   17.096418   20.449101 H          1 MOL1         0.0783
      35    C11     17.059926   19.053005   20.275007 C.3        1 MOL1         0.1043
      36    H17     17.466780   19.798411   20.971735 H          1 MOL1         0.0783
      37    O9      16.111675   19.682612   19.378961 O.3        1 MOL1        -0.3740
      38    C12     18.233447   18.534952   19.415193 C.3        1 MOL1         0.0138
      39    H18     19.008022   18.129177   20.078556 H          1 MOL1         0.0794
      40    H19     18.675165   19.383013   18.874865 H          1 MOL1         0.0794
      41    O10     17.800266   17.533400   18.490822 O.3        1 MOL1        -0.5486
      42    H20     17.071888   17.937111   17.969587 H          1 MOL1         0.3769
      43    C13     18.422487   24.090371   20.886227 C.3        1 MOL1         0.2972
      44    H21     19.116838   24.935186   20.791173 H          1 MOL1         0.0751
      45    O11     19.110325   22.879218   21.267099 O.3        1 MOL1        -0.3740
      46    C14     17.288569   24.410996   21.890268 C.3        1 MOL1         0.1003
      47    H22     16.722106   25.256229   21.477945 H          1 MOL1         0.0783
      48    O12     17.800200   24.776669   23.181172 O.3        1 MOL1        -0.5519
      49    H23     18.240847   23.970003   23.549746 H          1 MOL1         0.3769
      50    C15     16.326046   23.210094   22.023148 C.3        1 MOL1         0.1053
      51    H24     16.867389   22.420796   22.563126 H          1 MOL1         0.0783
      52    O13     15.186850   23.614007   22.790556 O.3        1 MOL1        -0.5519
      53    H25     15.552735   24.079051   23.574991 H          1 MOL1         0.3769
      54    C16     15.865256   22.612905   20.661447 C.3        1 MOL1         0.1018
      55    H26     14.981705   23.166903   20.319535 H          1 MOL1         0.0783
      56    C17     16.964680   22.647444   19.541086 C.3        1 MOL1         0.1043
      57    H27     17.618013   21.774491   19.658326 H          1 MOL1         0.0783
      58    O14     17.770115   23.848972   19.629115 O.3        1 MOL1        -0.3740
      59    C18     16.403816   22.641123   18.097143 C.3        1 MOL1         0.0138
      60    H28     15.891315   21.695752   17.889630 H          1 MOL1         0.0794
      61    H29     17.247646   22.703064   17.396790 H          1 MOL1         0.0794
      62    O15     15.510747   23.738155   17.885586 O.3        1 MOL1        -0.5486
      63    H30     16.021084   24.551466   18.097745 H          1 MOL1         0.3769
      64    C19     22.634331   21.591883   23.091841 C.3        1 MOL1         0.2972
      65    H31     23.557500   21.563175   23.681873 H          1 MOL1         0.0751
      66    O16     22.446578   20.347633   22.374896 O.3        1 MOL1        -0.3740
      67    C20     21.426548   21.794068   24.041279 C.3        1 MOL1         0.1003
      68    H32     21.603392   22.720525   24.603145 H          1 MOL1         0.0783
      69    O17     21.315758   20.697513   24.960384 O.3        1 MOL1        -0.5519
      70    H33     21.381144   19.880450   24.418951 H          1 MOL1         0.3769
      71    C21     20.107631   21.960136   23.249904 C.3        1 MOL1         0.1053
      72    H34     19.869581   21.001223   22.769235 H          1 MOL1         0.0783
      73    O18     19.064507   22.324717   24.160331 O.3        1 MOL1        -0.5519
      74    H35     19.139099   21.686303   24.904606 H          1 MOL1         0.3769
      75    C22     20.242978   23.035651   22.144667 C.3        1 MOL1         0.1018
      76    H36     20.264137   24.026684   22.616865 H          1 MOL1         0.0783
      77    C23     21.526092   22.839213   21.294514 C.3        1 MOL1         0.1043
      78    H37     21.404525   21.930143   20.697478 H          1 MOL1         0.0783
      79    O19     22.673277   22.701819   22.165846 O.3        1 MOL1        -0.3740
      80    C24     21.811281   24.001710   20.318478 C.3        1 MOL1         0.0138
      81    H38     21.011160   24.042338   19.567525 H          1 MOL1         0.0794
      82    H39     22.747517   23.791173   19.784149 H          1 MOL1         0.0794
      83    O20     21.902484   25.249567   21.012194 O.3        1 MOL1        -0.5486
      84    H40     22.618828   25.143069   21.677145 H          1 MOL1         0.3769
      85    C25     24.877987   17.616831   20.330185 C.3        1 MOL1         0.2972
      86    H41     25.550453   17.111491   19.625506 H          1 MOL1         0.0751
      87    O21     24.322074   16.686324   21.278776 O.3        1 MOL1        -0.3740
      88    C26     25.655367   18.688365   21.131024 C.3        1 MOL1         0.1003
      89    H42     26.067398   19.404076   20.407498 H          1 MOL1         0.0783
      90    O22     26.729872   18.079717   21.862750 O.3        1 MOL1        -0.5519
      91    H43     26.338033   17.301220   22.319564 H          1 MOL1         0.3769
      92    C27     24.727885   19.465330   22.100098 C.3        1 MOL1         0.1053
      93    H44     24.412610   18.778132   22.897188 H          1 MOL1         0.0783
      94    O23     25.489642   20.541136   22.656576 O.3        1 MOL1        -0.5519
      95    H45     26.349199   20.141155   22.916912 H          1 MOL1         0.3769
      96    C28     23.447281   19.991301   21.386549 C.3        1 MOL1         0.1018
      97    H46     23.711553   20.851662   20.758173 H          1 MOL1         0.0783
      98    C29     22.799729   18.896878   20.493001 C.3        1 MOL1         0.1043
      99    H47     22.357225   18.134958   21.148875 H          1 MOL1         0.0783
     100    O24     23.803605   18.291559   19.641872 O.3        1 MOL1        -0.3740
     101    C30     21.676136   19.425358   19.574835 C.3        1 MOL1         0.0138
     102    H48     20.861034   19.815767   20.197697 H          1 MOL1         0.0794
     103    H49     21.272271   18.585050   18.994317 H          1 MOL1         0.0794
     104    O25     22.158118   20.444568   18.695094 O.3        1 MOL1        -0.5486
     105    H50     22.919368   20.053500   18.212629 H          1 MOL1         0.3769
     106    C31     21.413834   13.857359   20.884046 C.3        1 MOL1         0.2972
     107    H51     20.729122   13.014613   20.723373 H          1 MOL1         0.0751
     108    O26     20.698544   15.061150   21.237056 O.3        1 MOL1        -0.3740
     109    C32     22.473695   13.516887   21.960128 C.3        1 MOL1         0.1003
     110    H52     23.068149   12.678923   21.573148 H          1 MOL1         0.0783
     111    O27     21.872177   13.127381   23.204454 O.3        1 MOL1        -0.5519
     112    H53     21.408424   13.928191   23.557196 H          1 MOL1         0.3769
     113    C33     23.424462   14.713631   22.183957 C.3        1 MOL1         0.1053
     114    H54     22.846262   15.493146   22.699274 H          1 MOL1         0.0783
     115    O28     24.506309   14.293251   23.022240 O.3        1 MOL1        -0.5519
     116    H55     24.085659   13.813983   23.769784 H          1 MOL1         0.3769
     117    C34     23.980604   15.336455   20.870255 C.3        1 MOL1         0.1018
     118    H56     24.885094   14.786796   20.580042 H          1 MOL1         0.0783
     119    C35     22.962129   15.325689   19.675104 C.3        1 MOL1         0.1043
     120    H57     22.300745   16.195782   19.764574 H          1 MOL1         0.0783
     121    O29     22.154214   14.122676   19.681742 O.3        1 MOL1        -0.3740
     122    C36     23.621738   15.362124   18.273932 C.3        1 MOL1         0.0138
     123    H58     24.143346   16.312890   18.120902 H          1 MOL1         0.0794
     124    H59     22.828669   15.311910   17.515704 H          1 MOL1         0.0794
     125    O30     24.531659   14.271877   18.103083 O.3        1 MOL1        -0.5486
     126    H60     24.010926   13.453048   18.262066 H          1 MOL1         0.3769
@<TRIPOS>BOND
    1     1     2    1
    2     1     3    1
    3     1     4    1
    4     4     5    1
    5     4     6    1
    6     6     7    1
    7     4     8    1
    8     8     9    1
    9     8    10    1
   10    10    11    1
   11     8    12    1
   12    12    13    1
   13    12    14    1
   14    14    15    1
   15     1    16    1
   16    14    16    1
   17    14    17    1
   18    17    18    1
   19    17    19    1
   20    17    20    1
   21    20    21    1
   22    22    23    1
   23    22    24    1
   24    22    25    1
   25    25    26    1
   26    25    27    1
   27    27    28    1
   28    25    29    1
   29    29    30    1
   30    29    31    1
   31    31    32    1
   32     3    33    1
   33    29    33    1
   34    33    34    1
   35    33    35    1
   36    35    36    1
   37    22    37    1
   38    35    37    1
   39    35    38    1
   40    38    39    1
   41    38    40    1
   42    38    41    1
   43    41    42    1
   44    43    44    1
   45    43    45    1
   46    43    46    1
   47    46    47    1
   48    46    48    1
   49    48    49    1
   50    46    50    1
   51    50    51    1
   52    50    52    1
   53    52    53    1
   54    24    54    1
   55    50    54    1
   56    54    55    1
   57    54    56    1
   58    56    57    1
   59    43    58    1
   60    56    58    1
   61    56    59    1
   62    59    60    1
   63    59    61    1
   64    59    62    1
   65    62    63    1
   66    64    65    1
   67    64    66    1
   68    64    67    1
   69    67    68    1
   70    67    69    1
   71    69    70    1
   72    67    71    1
   73    71    72    1
   74    71    73    1
   75    73    74    1
   76    45    75    1
   77    71    75    1
   78    75    76    1
   79    75    77    1
   80    77    78    1
   81    64    79    1
   82    77    79    1
   83    77    80    1
   84    80    81    1
   85    80    82    1
   86    80    83    1
   87    83    84    1
   88    85    86    1
   89    85    87    1
   90    85    88    1
   91    88    89    1
   92    88    90    1
   93    90    91    1
   94    88    92    1
   95    92    93    1
   96    92    94    1
   97    94    95    1
   98    66    96    1
   99    92    96    1
  100    96    97    1
  101    96    98    1
  102    98    99    1
  103    85   100    1
  104    98   100    1
  105    98   101    1
  106   101   102    1
  107   101   103    1
  108   101   104    1
  109   104   105    1
  110   106   107    1
  111    12   108    1
  112   106   108    1
  113   106   109    1
  114   109   110    1
  115   109   111    1
  116   111   112    1
  117   109   113    1
  118   113   114    1
  119   113   115    1
  120   115   116    1
  121    87   117    1
  122   113   117    1
  123   117   118    1
  124   117   119    1
  125   119   120    1
  126   106   121    1
  127   119   121    1
  128   119   122    1
  129   122   123    1
  130   122   124    1
  131   122   125    1
  132   125   126    1
@<TRIPOS>SUBSTRUCTURE
       1 MOL1            1 RESIDUE      1      MOL     
@<SCITEGIC>MOL_PROPERTY
VM2 Rank
SciTegic.value.IntegerValue
3

@<SCITEGIC>MOL_PROPERTY
Conf_Id
SciTegic.value.IntegerValue
7348

@<SCITEGIC>MOL_PROPERTY
Probability
SciTegic.value.DoubleValue
1.82

@<SCITEGIC>MOL_PROPERTY
Sum Probability
SciTegic.value.DoubleValue
6.00

@<SCITEGIC>MOL_PROPERTY
Delta G
SciTegic.value.DoubleValue
0.147

@<SCITEGIC>MOL_PROPERTY
G
SciTegic.value.DoubleValue
522.434

@<SCITEGIC>MOL_PROPERTY
E
SciTegic.value.DoubleValue
363.343

@<SCITEGIC>MOL_PROPERTY
-TS
SciTegic.value.DoubleValue
159.091

@<SCITEGIC>MOL_PROPERTY
U+W
SciTegic.value.DoubleValue
252.457

@<SCITEGIC>MOL_PROPERTY
U
SciTegic.value.DoubleValue
287.192

@<SCITEGIC>MOL_PROPERTY
W
SciTegic.value.DoubleValue
-34.735

@<SCITEGIC>MOL_PROPERTY
W(PB)
SciTegic.value.DoubleValue
-40.579

@<SCITEGIC>MOL_PROPERTY
W(SA)
SciTegic.value.DoubleValue
5.844

@<SCITEGIC>MOL_PROPERTY
Valence
SciTegic.value.DoubleValue
132.996

@<SCITEGIC>MOL_PROPERTY
Coulomb
SciTegic.value.DoubleValue
163.907

@<SCITEGIC>MOL_PROPERTY
VdW
SciTegic.value.DoubleValue
-9.710

@<SCITEGIC>MOL_PROPERTY
VdW6
SciTegic.value.DoubleValue
-144.490

@<SCITEGIC>MOL_PROPERTY
VdW12
SciTegic.value.DoubleValue
134.780

@<SCITEGIC>MOL_PROPERTY
Bond
SciTegic.value.DoubleValue
4.950

@<SCITEGIC>MOL_PROPERTY
Angle
SciTegic.value.DoubleValue
14.809

@<SCITEGIC>MOL_PROPERTY
Pdih
SciTegic.value.DoubleValue
113.236

@<SCITEGIC>MOL_PROPERTY
Idih
SciTegic.value.DoubleValue
0.000

@<SCITEGIC>MOL_PROPERTY
Tether
SciTegic.value.DoubleValue
0.000

@<TRIPOS>MOLECULE
CD_vm2.mol2 : vm2 host conformer 4
         126         132           1
SMALL
USER_CHARGES
 
@<TRIPOS>ATOM
       1    C1      17.006274   16.311171   22.834962 C.3        1 MOL1         0.2972
       2    H1      16.036203   16.347810   23.343193 H          1 MOL1         0.0751
       3    O1      17.262258   17.547602   22.126385 O.3        1 MOL1        -0.3740
       4    C2      18.123885   16.080462   23.883982 C.3        1 MOL1         0.1003
       5    H2      17.905609   15.127068   24.382659 H          1 MOL1         0.0783
       6    O2      18.158259   17.120572   24.869376 O.3        1 MOL1        -0.5519
       7    H3      19.011490   16.988458   25.340224 H          1 MOL1         0.3769
       8    C3      19.506035   15.948853   23.206580 C.3        1 MOL1         0.1053
       9    H4      19.766604   16.917536   22.758449 H          1 MOL1         0.0783
      10    O3      20.477937   15.587350   24.195586 O.3        1 MOL1        -0.5519
      11    H5      21.042888   14.884038   23.795364 H          1 MOL1         0.3769
      12    C4      19.476133   14.884557   22.081698 C.3        1 MOL1         0.1018
      13    H6      19.441704   13.886881   22.540016 H          1 MOL1         0.0783
      14    C5      18.258956   15.066917   21.133029 C.3        1 MOL1         0.1043
      15    H7      18.420175   15.974295   20.542072 H          1 MOL1         0.0783
      16    O4      17.042452   15.200793   21.908118 O.3        1 MOL1        -0.3740
      17    C6      18.059679   13.899601   20.141644 C.3        1 MOL1         0.0138
      18    H8      18.914742   13.864559   19.453668 H          1 MOL1         0.0794
      19    H9      17.164980   14.100263   19.536966 H          1 MOL1         0.0794
      20    O5      17.926721   12.652678   20.830060 O.3        1 MOL1        -0.5486
      21    H10     17.159698   12.753501   21.436834 H          1 MOL1         0.3769
      22    C7      15.021801   20.340656   19.974147 C.3        1 MOL1         0.2972
      23    H11     14.412016   20.878289   19.237041 H          1 MOL1         0.0751
      24    O6      15.515435   21.231788   20.992528 O.3        1 MOL1        -0.3740
      25    C8      14.171529   19.256973   20.677998 C.3        1 MOL1         0.1003
      26    H12     13.810299   18.568681   19.902580 H          1 MOL1         0.0783
      27    O7      13.049106   19.858383   21.340561 O.3        1 MOL1        -0.5519
      28    H13     13.412528   20.615837   21.852897 H          1 MOL1         0.3769
      29    C9      15.010163   18.439050   21.693180 C.3        1 MOL1         0.1053
      30    H14     15.265204   19.096176   22.536009 H          1 MOL1         0.0783
      31    O8      14.194841   17.354603   22.148505 O.3        1 MOL1        -0.5519
      32    H15     13.321632   17.756740   22.354186 H          1 MOL1         0.3769
      33    C10     16.340910   17.920627   21.071325 C.3        1 MOL1         0.1018
      34    H16     16.125059   17.070433   20.411494 H          1 MOL1         0.0783
      35    C11     17.064937   19.025891   20.253088 C.3        1 MOL1         0.1043
      36    H17     17.469538   19.764305   20.958511 H          1 MOL1         0.0783
      37    O9      16.135704   19.669784   19.347717 O.3        1 MOL1        -0.3740
      38    C12     18.245762   18.500227   19.407962 C.3        1 MOL1         0.0138
      39    H18     19.009382   18.089730   20.081139 H          1 MOL1         0.0794
      40    H19     18.699262   19.345487   18.873055 H          1 MOL1         0.0794
      41    O10     17.818603   17.500901   18.478448 O.3        1 MOL1        -0.5486
      42    H20     17.100848   17.909165   17.946159 H          1 MOL1         0.3769
      43    C13     18.443741   24.072562   20.921024 C.3        1 MOL1         0.2972
      44    H21     19.133683   24.922376   20.839408 H          1 MOL1         0.0751
      45    O11     19.135302   22.862652   21.298064 O.3        1 MOL1        -0.3740
      46    C14     17.300532   24.377118   21.919328 C.3        1 MOL1         0.1003
      47    H22     16.734138   25.225037   21.512476 H          1 MOL1         0.0783
      48    O12     17.801148   24.729478   23.218293 O.3        1 MOL1        -0.5519
      49    H23     18.249150   23.922810   23.578019 H          1 MOL1         0.3769
      50    C15     16.341519   23.171110   22.030427 C.3        1 MOL1         0.1053
      51    H24     16.882050   22.376168   22.563125 H          1 MOL1         0.0783
      52    O13     15.196134   23.561657   22.795571 O.3        1 MOL1        -0.5519
      53    H25     15.555616   24.018033   23.588031 H          1 MOL1         0.3769
      54    C16     15.891393   22.592197   20.657292 C.3        1 MOL1         0.1018
      55    H26     15.014777   23.155405   20.312627 H          1 MOL1         0.0783
      56    C17     17.003704   22.634999   19.550131 C.3        1 MOL1         0.1043
      57    H27     17.657046   21.762202   19.669798 H          1 MOL1         0.0783
      58    O14     17.804441   23.838213   19.655915 O.3        1 MOL1        -0.3740
      59    C18     16.461489   22.638585   18.098919 C.3        1 MOL1         0.0138
      60    H28     15.958078   21.692124   17.875260 H          1 MOL1         0.0794
      61    H29     17.314023   22.712342   17.410339 H          1 MOL1         0.0794
      62    O15     15.564393   23.731973   17.885527 O.3        1 MOL1        -0.5486
      63    H30     16.067274   24.546590   18.110055 H          1 MOL1         0.3769
      64    C19     22.670855   21.583649   23.103293 C.3        1 MOL1         0.2972
      65    H31     23.597838   21.552439   23.687558 H          1 MOL1         0.0751
      66    O16     22.481974   20.343855   22.379421 O.3        1 MOL1        -0.3740
      67    C20     21.465860   21.773910   24.058953 C.3        1 MOL1         0.1003
      68    H32     21.639781   22.697388   24.626597 H          1 MOL1         0.0783
      69    O17     21.363968   20.669907   24.970243 O.3        1 MOL1        -0.5519
      70    H33     21.447137   19.857670   24.423788 H          1 MOL1         0.3769
      71    C21     20.143339   21.938002   23.272510 C.3        1 MOL1         0.1053
      72    H34     19.909543   20.981095   22.785821 H          1 MOL1         0.0783
      73    O18     19.099761   22.290266   24.187296 O.3        1 MOL1        -0.5519
      74    H35     19.177960   21.646134   24.926225 H          1 MOL1         0.3769
      75    C22     20.268641   23.021805   22.174266 C.3        1 MOL1         0.1018
      76    H36     20.282912   24.009634   22.653478 H          1 MOL1         0.0783
      77    C23     21.550944   22.840994   21.319411 C.3        1 MOL1         0.1043
      78    H37     21.432695   21.937260   20.713709 H          1 MOL1         0.0783
      79    O19     22.701328   22.701222   22.186102 O.3        1 MOL1        -0.3740
      80    C24     21.827640   24.014327   20.353925 C.3        1 MOL1         0.0138
      81    H38     21.026173   24.057292   19.604541 H          1 MOL1         0.0794
      82    H39     22.764269   23.814465   19.816212 H          1 MOL1         0.0794
      83    O20     21.912650   25.256086   21.059248 O.3        1 MOL1        -0.5486
      84    H40     22.631015   25.147739   21.721724 H          1 MOL1         0.3769
      85    C25     24.885279   17.632396   20.291882 C.3        1 MOL1         0.2972
      86    H41     25.539216   17.120168   19.575091 H          1 MOL1         0.0751
      87    O21     24.345106   16.705779   21.254683 O.3        1 MOL1        -0.3740
      88    C26     25.676943   18.729376   21.050033 C.3        1 MOL1         0.1003
      89    H42     26.025164   19.450873   20.298903 H          1 MOL1         0.0783
      90    O22     26.815163   18.182880   21.739080 O.3        1 MOL1        -0.5519
      91    H43     27.393738   17.760325   21.069521 H          1 MOL1         0.3769
      92    C27     24.768721   19.490563   22.048409 C.3        1 MOL1         0.1053
      93    H44     24.486513   18.795189   22.850686 H          1 MOL1         0.0783
      94    O23     25.530751   20.574915   22.587521 O.3        1 MOL1        -0.5519
      95    H45     26.393116   20.174305   22.838711 H          1 MOL1         0.3769
      96    C28     23.464660   20.003314   21.368123 C.3        1 MOL1         0.1018
      97    H46     23.704681   20.869022   20.737487 H          1 MOL1         0.0783
      98    C29     22.806162   18.906791   20.485193 C.3        1 MOL1         0.1043
      99    H47     22.374695   18.146310   21.149818 H          1 MOL1         0.0783
     100    O24     23.796114   18.299082   19.619080 O.3        1 MOL1        -0.3740
     101    C30     21.667189   19.432078   19.584355 C.3        1 MOL1         0.0138
     102    H48     20.861262   19.822219   20.219356 H          1 MOL1         0.0794
     103    H49     21.255908   18.590163   19.011505 H          1 MOL1         0.0794
     104    O25     22.133436   20.450382   18.695211 O.3        1 MOL1        -0.5486
     105    H50     22.886066   20.059103   18.199631 H          1 MOL1         0.3769
     106    C31     21.394672   13.882035   20.930718 C.3        1 MOL1         0.2972
     107    H51     20.718240   13.029605   20.787439 H          1 MOL1         0.0751
     108    O26     20.672922   15.077193   21.301754 O.3        1 MOL1        -0.3740
     109    C32     22.482025   13.559668   21.984310 C.3        1 MOL1         0.1003
     110    H52     23.085923   12.731611   21.590408 H          1 MOL1         0.0783
     111    O27     21.914521   13.172815   23.242682 O.3        1 MOL1        -0.5519
     112    H53     22.685943   13.049686   23.840991 H          1 MOL1         0.3769
     113    C33     23.410484   14.776292   22.183405 C.3        1 MOL1         0.1053
     114    H54     22.817602   15.561027   22.673562 H          1 MOL1         0.0783
     115    O28     24.505927   14.413243   23.030765 O.3        1 MOL1        -0.5519
     116    H55     25.055761   15.222908   23.116798 H          1 MOL1         0.3769
     117    C34     23.956625   15.366446   20.853871 C.3        1 MOL1         0.1018
     118    H56     24.838549   14.788748   20.548640 H          1 MOL1         0.0783
     119    C35     22.908103   15.363033   19.685223 C.3        1 MOL1         0.1043
     120    H57     22.248426   16.232027   19.793950 H          1 MOL1         0.0783
     121    O29     22.102813   14.157561   19.710470 O.3        1 MOL1        -0.3740
     122    C36     23.532519   15.398150   18.267689 C.3        1 MOL1         0.0138
     123    H58     24.052817   16.346983   18.100331 H          1 MOL1         0.0794
     124    H59     22.720605   15.349400   17.529568 H          1 MOL1         0.0794
     125    O30     24.435730   14.306003   18.074500 O.3        1 MOL1        -0.5486
     126    H60     23.916264   13.488189   18.242592 H          1 MOL1         0.3769
@<TRIPOS>BOND
    1     1     2    1
    2     1     3    1
    3     1     4    1
    4     4     5    1
    5     4     6    1
    6     6     7    1
    7     4     8    1
    8     8     9    1
    9     8    10    1
   10    10    11    1
   11     8    12    1
   12    12    13    1
   13    12    14    1
   14    14    15    1
   15     1    16    1
   16    14    16    1
   17    14    17    1
   18    17    18    1
   19    17    19    1
   20    17    20    1
   21    20    21    1
   22    22    23    1
   23    22    24    1
   24    22    25    1
   25    25    26    1
   26    25    27    1
   27    27    28    1
   28    25    29    1
   29    29    30    1
   30    29    31    1
   31    31    32    1
   32     3    33    1
   33    29    33    1
   34    33    34    1
   35    33    35    1
   36    35    36    1
   37    22    37    1
   38    35    37    1
   39    35    38    1
   40    38    39    1
   41    38    40    1
   42    38    41    1
   43    41    42    1
   44    43    44    1
   45    43    45    1
   46    43    46    1
   47    46    47    1
   48    46    48    1
   49    48    49    1
   50    46    50    1
   51    50    51    1
   52    50    52    1
   53    52    53    1
   54    24    54    1
   55    50    54    1
   56    54    55    1
   57    54    56    1
   58    56    57    1
   59    43    58    1
   60    56    58    1
   61    56    59    1
   62    59    60    1
   63    59    61    1
   64    59    62    1
   65    62    63    1
   66    64    65    1
   67    64    66    1
   68    64    67    1
   69    67    68    1
   70    67    69    1
   71    69    70    1
   72    67    71    1
   73    71    72    1
   74    71    73    1
   75    73    74    1
   76    45    75    1
   77    71    75    1
   78    75    76    1
   79    75    77    1
   80    77    78    1
   81    64    79    1
   82    77    79    1
   83    77    80    1
   84    80    81    1
   85    80    82    1
   86    80    83    1
   87    83    84    1
   88    85    86    1
   89    85    87    1
   90    85    88    1
   91    88    89    1
   92    88    90    1
   93    90    91    1
   94    88    92    1
   95    92    93    1
   96    92    94    1
   97    94    95    1
   98    66    96    1
   99    92    96    1
  100    96    97    1
  101    96    98    1
  102    98    99    1
  103    85   100    1
  104    98   100    1
  105    98   101    1
  106   101   102    1
  107   101   103    1
  108   101   104    1
  109   104   105    1
  110   106   107    1
  111    12   108    1
  112   106   108    1
  113   106   109    1
  114   109   110    1
  115   109   111    1
  116   111   112    1
  117   109   113    1
  118   113   114    1
  119   113   115    1
  120   115   116    1
  121    87   117    1
  122   113   117    1
  123   117   118    1
  124   117   119    1
  125   119   120    1
  126   106   121    1
  127   119   121    1
  128   119   122    1
  129   122   123    1
  130   122   124    1
  131   122   125    1
  132   125   126    1
@<TRIPOS>SUBSTRUCTURE
       1 MOL1            1 RESIDUE      1      MOL     
@<SCITEGIC>MOL_PROPERTY
VM2 Rank
SciTegic.value.IntegerValue
4

@<SCITEGIC>MOL_PROPERTY
Conf_Id
SciTegic.value.IntegerValue
9833

@<SCITEGIC>MOL_PROPERTY
Probability
SciTegic.value.DoubleValue
1.41

@<SCITEGIC>MOL_PROPERTY
Sum Probability
SciTegic.value.DoubleValue
7.41

@<SCITEGIC>MOL_PROPERTY
Delta G
SciTegic.value.DoubleValue
0.301

@<SCITEGIC>MOL_PROPERTY
G
SciTegic.value.DoubleValue
522.588

@<SCITEGIC>MOL_PROPERTY
E
SciTegic.value.DoubleValue
363.933

@<SCITEGIC>MOL_PROPERTY
-TS
SciTegic.value.DoubleValue
158.655

@<SCITEGIC>MOL_PROPERTY
U+W
SciTegic.value.DoubleValue
253.047

@<SCITEGIC>MOL_PROPERTY
U
SciTegic.value.DoubleValue
288.400

@<SCITEGIC>MOL_PROPERTY
W
SciTegic.value.DoubleValue
-35.353

@<SCITEGIC>MOL_PROPERTY
W(PB)
SciTegic.value.DoubleValue
-41.216

@<SCITEGIC>MOL_PROPERTY
W(SA)
SciTegic.value.DoubleValue
5.863

@<SCITEGIC>MOL_PROPERTY
Valence
SciTegic.value.DoubleValue
133.256

@<SCITEGIC>MOL_PROPERTY
Coulomb
SciTegic.value.DoubleValue
165.016

@<SCITEGIC>MOL_PROPERTY
VdW
SciTegic.value.DoubleValue
-9.871

@<SCITEGIC>MOL_PROPERTY
VdW6
SciTegic.value.DoubleValue
-144.130

@<SCITEGIC>MOL_PROPERTY
VdW12
SciTegic.value.DoubleValue
134.259

@<SCITEGIC>MOL_PROPERTY
Bond
SciTegic.value.DoubleValue
4.904

@<SCITEGIC>MOL_PROPERTY
Angle
SciTegic.value.DoubleValue
15.263

@<SCITEGIC>MOL_PROPERTY
Pdih
SciTegic.value.DoubleValue
113.088

@<SCITEGIC>MOL_PROPERTY
Idih
SciTegic.value.DoubleValue
0.000

@<SCITEGIC>MOL_PROPERTY
Tether
SciTegic.value.DoubleValue
0.000

@<TRIPOS>MOLECULE
CD_vm2.mol2 : vm2 host conformer 5
         126         132           1
SMALL
USER_CHARGES
 
@<TRIPOS>ATOM
       1    C1      17.022774   16.330440   22.827580 C.3        1 MOL1         0.2972
       2    H1      16.055738   16.363334   23.341822 H          1 MOL1         0.0751
       3    O1      17.267748   17.566282   22.114576 O.3        1 MOL1        -0.3740
       4    C2      18.148321   16.108576   23.870232 C.3        1 MOL1         0.1003
       5    H2      17.936869   15.156649   24.374613 H          1 MOL1         0.0783
       6    O2      18.185338   17.153215   24.850733 O.3        1 MOL1        -0.5519
       7    H3      19.042285   17.026597   25.316286 H          1 MOL1         0.3769
       8    C3      19.526655   15.979167   23.184570 C.3        1 MOL1         0.1053
       9    H4      19.780156   16.946362   22.729275 H          1 MOL1         0.0783
      10    O3      20.506646   15.627404   24.169182 O.3        1 MOL1        -0.5519
      11    H5      21.049436   14.899461   23.782582 H          1 MOL1         0.3769
      12    C4      19.492332   14.908319   22.066125 C.3        1 MOL1         0.1018
      13    H6      19.455288   13.913713   22.530751 H          1 MOL1         0.0783
      14    C5      18.271741   15.087653   21.121478 C.3        1 MOL1         0.1043
      15    H7      18.428377   15.995032   20.529321 H          1 MOL1         0.0783
      16    O4      17.058498   15.218645   21.902271 O.3        1 MOL1        -0.3740
      17    C6      18.070739   13.919108   20.131877 C.3        1 MOL1         0.0138
      18    H8      18.923070   13.885210   19.440463 H          1 MOL1         0.0794
      19    H9      17.173192   14.117512   19.530677 H          1 MOL1         0.0794
      20    O5      17.943086   12.672462   20.821809 O.3        1 MOL1        -0.5486
      21    H10     17.178408   12.772273   21.431690 H          1 MOL1         0.3769
      22    C7      15.002320   20.350732   19.981744 C.3        1 MOL1         0.2972
      23    H11     14.385540   20.889008   19.250947 H          1 MOL1         0.0751
      24    O6      15.503390   21.240413   20.997893 O.3        1 MOL1        -0.3740
      25    C8      14.159962   19.264624   20.691311 C.3        1 MOL1         0.1003
      26    H12     13.794346   18.575908   19.918330 H          1 MOL1         0.0783
      27    O7      13.041367   19.862934   21.363083 O.3        1 MOL1        -0.5519
      28    H13     13.407047   20.620711   21.873316 H          1 MOL1         0.3769
      29    C9      15.008806   18.448366   21.699390 C.3        1 MOL1         0.1053
      30    H14     15.269043   19.105868   22.540339 H          1 MOL1         0.0783
      31    O8      14.200124   17.361674   22.161156 O.3        1 MOL1        -0.5519
      32    H15     13.327569   17.761444   22.374087 H          1 MOL1         0.3769
      33    C10     16.335804   17.933260   21.066833 C.3        1 MOL1         0.1018
      34    H16     16.117142   17.080672   20.411018 H          1 MOL1         0.0783
      35    C11     17.049755   19.038612   20.240093 C.3        1 MOL1         0.1043
      36    H17     17.461373   19.777570   20.940867 H          1 MOL1         0.0783
      37    O9      16.110945   19.681706   19.344181 O.3        1 MOL1        -0.3740
      38    C12     18.221854   18.512494   19.383373 C.3        1 MOL1         0.0138
      39    H18     18.991373   18.102312   20.049704 H          1 MOL1         0.0794
      40    H19     18.670894   19.357030   18.843465 H          1 MOL1         0.0794
      41    O10     17.785538   17.511889   18.459494 O.3        1 MOL1        -0.5486
      42    H20     17.063232   17.919730   17.933061 H          1 MOL1         0.3769
      43    C13     18.439167   24.069189   20.922308 C.3        1 MOL1         0.2972
      44    H21     19.133737   24.915201   20.840438 H          1 MOL1         0.0751
      45    O11     19.124425   22.855104   21.298181 O.3        1 MOL1        -0.3740
      46    C14     17.298889   24.379558   21.922046 C.3        1 MOL1         0.1003
      47    H22     16.735952   25.230075   21.515815 H          1 MOL1         0.0783
      48    O12     17.803054   24.729733   23.220214 O.3        1 MOL1        -0.5519
      49    H23     18.247568   23.920897   23.579405 H          1 MOL1         0.3769
      50    C15     16.334533   23.178000   22.034507 C.3        1 MOL1         0.1053
      51    H24     16.872147   22.380906   22.566945 H          1 MOL1         0.0783
      52    O13     15.191779   23.573737   22.800900 O.3        1 MOL1        -0.5519
      53    H25     15.554192   24.028606   23.592890 H          1 MOL1         0.3769
      54    C16     15.880250   22.600405   20.662123 C.3        1 MOL1         0.1018
      55    H26     15.003499   23.164939   20.319953 H          1 MOL1         0.0783
      56    C17     16.989389   22.641347   19.551723 C.3        1 MOL1         0.1043
      57    H27     17.639220   21.765430   19.666768 H          1 MOL1         0.0783
      58    O14     17.796699   23.840007   19.657882 O.3        1 MOL1        -0.3740
      59    C18     16.441680   22.651085   18.102659 C.3        1 MOL1         0.0138
      60    H28     15.929406   21.709090   17.880137 H          1 MOL1         0.0794
      61    H29     17.292054   22.718731   17.410796 H          1 MOL1         0.0794
      62    O15     15.552664   23.752027   17.894304 O.3        1 MOL1        -0.5486
      63    H30     16.062668   24.562070   18.119345 H          1 MOL1         0.3769
      64    C19     22.662297   21.573393   23.106553 C.3        1 MOL1         0.2972
      65    H31     23.589004   21.548232   23.691591 H          1 MOL1         0.0751
      66    O16     22.477629   20.327979   22.391361 O.3        1 MOL1        -0.3740
      67    C20     21.456161   21.766743   24.060442 C.3        1 MOL1         0.1003
      68    H32     21.629776   22.692057   24.625180 H          1 MOL1         0.0783
      69    O17     21.353695   20.665842   24.975455 O.3        1 MOL1        -0.5519
      70    H33     21.436455   19.851727   24.431730 H          1 MOL1         0.3769
      71    C21     20.133746   21.928557   23.273062 C.3        1 MOL1         0.1053
      72    H34     19.899534   20.970308   22.789217 H          1 MOL1         0.0783
      73    O18     19.090381   22.284416   24.186680 O.3        1 MOL1        -0.5519
      74    H35     19.167139   21.641600   24.926904 H          1 MOL1         0.3769
      75    C22     20.260619   23.009022   22.171786 C.3        1 MOL1         0.1018
      76    H36     20.281759   23.997878   22.648654 H          1 MOL1         0.0783
      77    C23     21.540193   22.818741   21.315343 C.3        1 MOL1         0.1043
      78    H37     21.418901   21.910024   20.717502 H          1 MOL1         0.0783
      79    O19     22.691609   22.684582   22.181505 O.3        1 MOL1        -0.3740
      80    C24     21.817222   23.983958   20.340142 C.3        1 MOL1         0.0138
      81    H38     21.014035   24.023002   19.592371 H          1 MOL1         0.0794
      82    H39     22.752130   23.777878   19.801793 H          1 MOL1         0.0794
      83    O20     21.906700   25.230892   21.035754 O.3        1 MOL1        -0.5486
      84    H40     22.626149   25.125780   21.697574 H          1 MOL1         0.3769
      85    C25     24.897470   17.628292   20.293485 C.3        1 MOL1         0.2972
      86    H41     25.555731   17.131779   19.569383 H          1 MOL1         0.0751
      87    O21     24.392095   16.688769   21.265689 O.3        1 MOL1        -0.3740
      88    C26     25.678058   18.728392   21.053534 C.3        1 MOL1         0.1003
      89    H42     26.034981   19.449367   20.306254 H          1 MOL1         0.0783
      90    O22     26.805580   18.165061   21.740104 O.3        1 MOL1        -0.5519
      91    H43     26.462171   17.395765   22.243800 H          1 MOL1         0.3769
      92    C27     24.768665   19.489000   22.052615 C.3        1 MOL1         0.1053
      93    H44     24.493013   18.798663   22.861390 H          1 MOL1         0.0783
      94    O23     25.524456   20.582912   22.581030 O.3        1 MOL1        -0.5519
      95    H45     26.404741   20.205781   22.803398 H          1 MOL1         0.3769
      96    C28     23.456894   19.986554   21.377083 C.3        1 MOL1         0.1018
      97    H46     23.685654   20.847862   20.736280 H          1 MOL1         0.0783
      98    C29     22.802724   18.875682   20.510283 C.3        1 MOL1         0.1043
      99    H47     22.391750   18.112099   21.184368 H          1 MOL1         0.0783
     100    O24     23.790473   18.279343   19.634677 O.3        1 MOL1        -0.3740
     101    C30     21.645409   19.380573   19.621244 C.3        1 MOL1         0.0138
     102    H48     20.844601   19.768405   20.264158 H          1 MOL1         0.0794
     103    H49     21.235281   18.529147   19.061832 H          1 MOL1         0.0794
     104    O25     22.088100   20.395475   18.716361 O.3        1 MOL1        -0.5486
     105    H50     22.840363   20.008819   18.216590 H          1 MOL1         0.3769
     106    C31     21.404860   13.890016   20.919774 C.3        1 MOL1         0.2972
     107    H51     20.723156   13.042751   20.771089 H          1 MOL1         0.0751
     108    O26     20.688316   15.091314   21.282018 O.3        1 MOL1        -0.3740
     109    C32     22.479862   13.559470   21.982983 C.3        1 MOL1         0.1003
     110    H52     23.078878   12.725219   21.594668 H          1 MOL1         0.0783
     111    O27     21.898912   13.178230   23.237051 O.3        1 MOL1        -0.5519
     112    H53     22.664837   13.044635   23.840179 H          1 MOL1         0.3769
     113    C33     23.419693   14.766262   22.189780 C.3        1 MOL1         0.1053
     114    H54     22.831255   15.556949   22.675503 H          1 MOL1         0.0783
     115    O28     24.500172   14.384236   23.048328 O.3        1 MOL1        -0.5519
     116    H55     25.031445   15.195537   23.192441 H          1 MOL1         0.3769
     117    C34     23.983850   15.352283   20.864613 C.3        1 MOL1         0.1018
     118    H56     24.859611   14.762314   20.565155 H          1 MOL1         0.0783
     119    C35     22.943246   15.355359   19.687490 C.3        1 MOL1         0.1043
     120    H57     22.287651   16.227733   19.790090 H          1 MOL1         0.0783
     121    O29     22.128021   14.156759   19.706733 O.3        1 MOL1        -0.3740
     122    C36     23.577324   15.383547   18.273930 C.3        1 MOL1         0.0138
     123    H58     24.105572   16.328190   18.107800 H          1 MOL1         0.0794
     124    H59     22.769806   15.339492   17.530704 H          1 MOL1         0.0794
     125    O30     24.473294   14.284179   18.088284 O.3        1 MOL1        -0.5486
     126    H60     23.946491   13.470671   18.254411 H          1 MOL1         0.3769
@<TRIPOS>BOND
    1     1     2    1
    2     1     3    1
    3     1     4    1
    4     4     5    1
    5     4     6    1
    6     6     7    1
    7     4     8    1
    8     8     9    1
    9     8    10    1
   10    10    11    1
   11     8    12    1
   12    12    13    1
   13    12    14    1
   14    14    15    1
   15     1    16    1
   16    14    16    1
   17    14    17    1
   18    17    18    1
   19    17    19    1
   20    17    20    1
   21    20    21    1
   22    22    23    1
   23    22    24    1
   24    22    25    1
   25    25    26    1
   26    25    27    1
   27    27    28    1
   28    25    29    1
   29    29    30    1
   30    29    31    1
   31    31    32    1
   32     3    33    1
   33    29    33    1
   34    33    34    1
   35    33    35    1
   36    35    36    1
   37    22    37    1
   38    35    37    1
   39    35    38    1
   40    38    39    1
   41    38    40    1
   42    38    41    1
   43    41    42    1
   44    43    44    1
   45    43    45    1
   46    43    46    1
   47    46    47    1
   48    46    48    1
   49    48    49    1
   50    46    50    1
   51    50    51    1
   52    50    52    1
   53    52    53    1
   54    24    54    1
   55    50    54    1
   56    54    55    1
   57    54    56    1
   58    56    57    1
   59    43    58    1
   60    56    58    1
   61    56    59    1
   62    59    60    1
   63    59    61    1
   64    59    62    1
   65    62    63    1
   66    64    65    1
   67    64    66    1
   68    64    67    1
   69    67    68    1
   70    67    69    1
   71    69    70    1
   72    67    71    1
   73    71    72    1
   74    71    73    1
   75    73    74    1
   76    45    75    1
   77    71    75    1
   78    75    76    1
   79    75    77    1
   80    77    78    1
   81    64    79    1
   82    77    79    1
   83    77    80    1
   84    80    81    1
   85    80    82    1
   86    80    83    1
   87    83    84    1
   88    85    86    1
   89    85    87    1
   90    85    88    1
   91    88    89    1
   92    88    90    1
   93    90    91    1
   94    88    92    1
   95    92    93    1
   96    92    94    1
   97    94    95    1
   98    66    96    1
   99    92    96    1
  100    96    97    1
  101    96    98    1
  102    98    99    1
  103    85   100    1
  104    98   100    1
  105    98   101    1
  106   101   102    1
  107   101   103    1
  108   101   104    1
  109   104   105    1
  110   106   107    1
  111    12   108    1
  112   106   108    1
  113   106   109    1
  114   109   110    1
  115   109   111    1
  116   111   112    1
  117   109   113    1
  118   113   114    1
  119   113   115    1
  120   115   116    1
  121    87   117    1
  122   113   117    1
  123   117   118    1
  124   117   119    1
  125   119   120    1
  126   106   121    1
  127   119   121    1
  128   119   122    1
  129   122   123    1
  130   122   124    1
  131   122   125    1
  132   125   126    1
@<TRIPOS>SUBSTRUCTURE
       1 MOL1            1 RESIDUE      1      MOL     
@<SCITEGIC>MOL_PROPERTY
VM2 Rank
SciTegic.value.IntegerValue
5

@<SCITEGIC>MOL_PROPERTY
Conf_Id
SciTegic.value.IntegerValue
12564

@<SCITEGIC>MOL_PROPERTY
Probability
SciTegic.value.DoubleValue
1.20

@<SCITEGIC>MOL_PROPERTY
Sum Probability
SciTegic.value.DoubleValue
8.61

@<SCITEGIC>MOL_PROPERTY
Delta G
SciTegic.value.DoubleValue
0.396

@<SCITEGIC>MOL_PROPERTY
G
SciTegic.value.DoubleValue
522.683

@<SCITEGIC>MOL_PROPERTY
E
SciTegic.value.DoubleValue
363.926

@<SCITEGIC>MOL_PROPERTY
-TS
SciTegic.value.DoubleValue
158.756

@<SCITEGIC>MOL_PROPERTY
U+W
SciTegic.value.DoubleValue
253.040

@<SCITEGIC>MOL_PROPERTY
U
SciTegic.value.DoubleValue
288.542

@<SCITEGIC>MOL_PROPERTY
W
SciTegic.value.DoubleValue
-35.502

@<SCITEGIC>MOL_PROPERTY
W(PB)
SciTegic.value.DoubleValue
-41.357

@<SCITEGIC>MOL_PROPERTY
W(SA)
SciTegic.value.DoubleValue
5.856

@<SCITEGIC>MOL_PROPERTY
Valence
SciTegic.value.DoubleValue
133.592

@<SCITEGIC>MOL_PROPERTY
Coulomb
SciTegic.value.DoubleValue
164.927

@<SCITEGIC>MOL_PROPERTY
VdW
SciTegic.value.DoubleValue
-9.978

@<SCITEGIC>MOL_PROPERTY
VdW6
SciTegic.value.DoubleValue
-144.611

@<SCITEGIC>MOL_PROPERTY
VdW12
SciTegic.value.DoubleValue
134.633

@<SCITEGIC>MOL_PROPERTY
Bond
SciTegic.value.DoubleValue
4.919

@<SCITEGIC>MOL_PROPERTY
Angle
SciTegic.value.DoubleValue
15.204

@<SCITEGIC>MOL_PROPERTY
Pdih
SciTegic.value.DoubleValue
113.470

@<SCITEGIC>MOL_PROPERTY
Idih
SciTegic.value.DoubleValue
0.000

@<SCITEGIC>MOL_PROPERTY
Tether
SciTegic.value.DoubleValue
0.000

@<TRIPOS>MOLECULE
CD_vm2.mol2 : vm2 host conformer 6
         126         132           1
SMALL
USER_CHARGES
 
@<TRIPOS>ATOM
       1    C1      17.015581   16.263676   22.803723 C.3        1 MOL1         0.2972
       2    H1      16.045981   16.277885   23.313585 H          1 MOL1         0.0751
       3    O1      17.258109   17.521116   22.129790 O.3        1 MOL1        -0.3740
       4    C2      18.139209   16.019130   23.845953 C.3        1 MOL1         0.1003
       5    H2      17.925538   15.056154   24.328379 H          1 MOL1         0.0783
       6    O2      18.173957   17.048301   24.849382 O.3        1 MOL1        -0.5519
       7    H3      17.278702   17.109054   25.243580 H          1 MOL1         0.3769
       8    C3      19.517673   15.905519   23.155526 C.3        1 MOL1         0.1053
       9    H4      19.768276   16.885112   22.725656 H          1 MOL1         0.0783
      10    O3      20.494391   15.535350   24.134535 O.3        1 MOL1        -0.5519
      11    H5      20.344518   16.158485   24.880967 H          1 MOL1         0.3769
      12    C4      19.484527   14.861075   22.012107 C.3        1 MOL1         0.1018
      13    H6      19.438669   13.857283   22.454480 H          1 MOL1         0.0783
      14    C5      18.267854   15.065886   21.069483 C.3        1 MOL1         0.1043
      15    H7      18.427482   15.987881   20.502136 H          1 MOL1         0.0783
      16    O4      17.053022   15.177873   21.849438 O.3        1 MOL1        -0.3740
      17    C6      18.070679   13.922619   20.049998 C.3        1 MOL1         0.0138
      18    H8      18.929224   13.901915   19.365716 H          1 MOL1         0.0794
      19    H9      17.179272   14.139418   19.446033 H          1 MOL1         0.0794
      20    O5      17.932253   12.660046   20.708319 O.3        1 MOL1        -0.5486
      21    H10     17.164667   12.749269   21.316151 H          1 MOL1         0.3769
      22    C7      14.996525   20.347272   20.026439 C.3        1 MOL1         0.2972
      23    H11     14.374934   20.881571   19.296774 H          1 MOL1         0.0751
      24    O6      15.509666   21.244901   21.029542 O.3        1 MOL1        -0.3740
      25    C8      14.156234   19.269091   20.751330 C.3        1 MOL1         0.1003
      26    H12     13.774249   18.581197   19.985573 H          1 MOL1         0.0783
      27    O7      13.051999   19.877753   21.437397 O.3        1 MOL1        -0.5519
      28    H13     13.429856   20.637746   21.935426 H          1 MOL1         0.3769
      29    C9      15.012602   18.448490   21.749365 C.3        1 MOL1         0.1053
      30    H14     15.293779   19.107920   22.581952 H          1 MOL1         0.0783
      31    O8      14.201144   17.372948   22.231556 O.3        1 MOL1        -0.5519
      32    H15     13.334404   17.782136   22.450741 H          1 MOL1         0.3769
      33    C10     16.323183   17.918401   21.095870 C.3        1 MOL1         0.1018
      34    H16     16.084149   17.079013   20.430096 H          1 MOL1         0.0783
      35    C11     17.040134   19.026631   20.275518 C.3        1 MOL1         0.1043
      36    H17     17.453032   19.761808   20.979522 H          1 MOL1         0.0783
      37    O9      16.098997   19.672554   19.384196 O.3        1 MOL1        -0.3740
      38    C12     18.210053   18.506700   19.412069 C.3        1 MOL1         0.0138
      39    H18     18.981683   18.091202   20.072708 H          1 MOL1         0.0794
      40    H19     18.658101   19.355590   18.878225 H          1 MOL1         0.0794
      41    O10     17.769994   17.515153   18.480131 O.3        1 MOL1        -0.5486
      42    H20     17.044846   17.928018   17.961597 H          1 MOL1         0.3769
      43    C13     18.435456   24.084992   20.894444 C.3        1 MOL1         0.2972
      44    H21     19.125477   24.932831   20.794623 H          1 MOL1         0.0751
      45    O11     19.128563   22.880642   21.286858 O.3        1 MOL1        -0.3740
      46    C14     17.299097   24.406478   21.894971 C.3        1 MOL1         0.1003
      47    H22     16.727848   25.245286   21.476182 H          1 MOL1         0.0783
      48    O12     17.808523   24.785235   23.182956 O.3        1 MOL1        -0.5519
      49    H23     18.263693   23.987696   23.554052 H          1 MOL1         0.3769
      50    C15     16.343877   23.200367   22.034436 C.3        1 MOL1         0.1053
      51    H24     16.891187   22.414322   22.573415 H          1 MOL1         0.0783
      52    O13     15.205271   23.600239   22.804832 O.3        1 MOL1        -0.5519
      53    H25     15.571636   24.071332   23.585468 H          1 MOL1         0.3769
      54    C16     15.881458   22.601530   20.673900 C.3        1 MOL1         0.1018
      55    H26     15.001130   23.159481   20.330094 H          1 MOL1         0.0783
      56    C17     16.982806   22.630058   19.555045 C.3        1 MOL1         0.1043
      57    H27     17.635976   21.757585   19.678152 H          1 MOL1         0.0783
      58    O14     17.787205   23.832478   19.637692 O.3        1 MOL1        -0.3740
      59    C18     16.425272   22.619423   18.109561 C.3        1 MOL1         0.0138
      60    H28     15.914145   21.673534   17.901902 H          1 MOL1         0.0794
      61    H29     17.270832   22.680611   17.411224 H          1 MOL1         0.0794
      62    O15     15.531798   23.715183   17.893036 O.3        1 MOL1        -0.5486
      63    H30     16.041275   24.529424   18.103629 H          1 MOL1         0.3769
      64    C19     22.680861   21.636836   23.082388 C.3        1 MOL1         0.2972
      65    H31     23.616096   21.617462   23.652936 H          1 MOL1         0.0751
      66    O16     22.482570   20.382958   22.386839 O.3        1 MOL1        -0.3740
      67    C20     21.493000   21.878241   24.052315 C.3        1 MOL1         0.1003
      68    H32     21.680662   22.835530   24.556381 H          1 MOL1         0.0783
      69    O17     21.388307   20.840839   25.042203 O.3        1 MOL1        -0.5519
      70    H33     22.256324   20.770795   25.491897 H          1 MOL1         0.3769
      71    C21     20.161418   22.007009   23.276953 C.3        1 MOL1         0.1053
      72    H34     19.930481   21.031801   22.826462 H          1 MOL1         0.0783
      73    O18     19.127017   22.382804   24.192666 O.3        1 MOL1        -0.5519
      74    H35     19.219243   21.752296   24.942289 H          1 MOL1         0.3769
      75    C22     20.273373   23.057500   22.144913 C.3        1 MOL1         0.1018
      76    H36     20.296786   24.058286   22.596135 H          1 MOL1         0.0783
      77    C23     21.545228   22.849776   21.279727 C.3        1 MOL1         0.1043
      78    H37     21.416266   21.930366   20.700284 H          1 MOL1         0.0783
      79    O19     22.707232   22.729057   22.134891 O.3        1 MOL1        -0.3740
      80    C24     21.812465   23.995822   20.279472 C.3        1 MOL1         0.0138
      81    H38     21.000362   24.022212   19.540830 H          1 MOL1         0.0794
      82    H39     22.740475   23.777827   19.733921 H          1 MOL1         0.0794
      83    O20     21.912264   25.255490   20.950317 O.3        1 MOL1        -0.5486
      84    H40     22.640476   25.162148   21.604246 H          1 MOL1         0.3769
      85    C25     24.884750   17.621134   20.337392 C.3        1 MOL1         0.2972
      86    H41     25.545854   17.118943   19.619839 H          1 MOL1         0.0751
      87    O21     24.360327   16.684551   21.302067 O.3        1 MOL1        -0.3740
      88    C26     25.670000   18.713668   21.103465 C.3        1 MOL1         0.1003
      89    H42     26.048018   19.424989   20.357311 H          1 MOL1         0.0783
      90    O22     26.779724   18.137591   21.808241 O.3        1 MOL1        -0.5519
      91    H43     26.419087   17.372910   22.306937 H          1 MOL1         0.3769
      92    C27     24.759704   19.494495   22.085540 C.3        1 MOL1         0.1053
      93    H44     24.462386   18.813814   22.894891 H          1 MOL1         0.0783
      94    O23     25.527532   20.579120   22.616198 O.3        1 MOL1        -0.5519
      95    H45     26.399295   20.188723   22.849339 H          1 MOL1         0.3769
      96    C28     23.464704   20.006704   21.388772 C.3        1 MOL1         0.1018
      97    H46     23.714789   20.853268   20.736361 H          1 MOL1         0.0783
      98    C29     22.802039   18.891294   20.534053 C.3        1 MOL1         0.1043
      99    H47     22.384144   18.138061   21.215699 H          1 MOL1         0.0783
     100    O24     23.788611   18.279687   19.667648 O.3        1 MOL1        -0.3740
     101    C30     21.650269   19.393641   19.636308 C.3        1 MOL1         0.0138
     102    H48     20.849917   19.792871   20.272867 H          1 MOL1         0.0794
     103    H49     21.236354   18.538550   19.085351 H          1 MOL1         0.0794
     104    O25     22.101878   20.395628   18.721292 O.3        1 MOL1        -0.5486
     105    H50     22.854009   19.999031   18.229195 H          1 MOL1         0.3769
     106    C31     21.414592   13.855860   20.880748 C.3        1 MOL1         0.2972
     107    H51     20.741207   13.005954   20.710246 H          1 MOL1         0.0751
     108    O26     20.679938   15.050683   21.228342 O.3        1 MOL1        -0.3740
     109    C32     22.464223   13.523422   21.970178 C.3        1 MOL1         0.1003
     110    H52     23.076641   12.695331   21.590865 H          1 MOL1         0.0783
     111    O27     21.830630   13.112167   23.191635 O.3        1 MOL1        -0.5519
     112    H53     21.432558   13.926248   23.588327 H          1 MOL1         0.3769
     113    C33     23.395565   14.738743   22.203170 C.3        1 MOL1         0.1053
     114    H54     22.793688   15.517330   22.691979 H          1 MOL1         0.0783
     115    O28     24.485133   14.373412   23.058049 O.3        1 MOL1        -0.5519
     116    H55     24.973900   15.202155   23.242853 H          1 MOL1         0.3769
     117    C34     23.972152   15.344956   20.890439 C.3        1 MOL1         0.1018
     118    H56     24.860195   14.767618   20.602767 H          1 MOL1         0.0783
     119    C35     22.958353   15.343847   19.690863 C.3        1 MOL1         0.1043
     120    H57     22.290516   16.208337   19.785333 H          1 MOL1         0.0783
     121    O29     22.161810   14.133754   19.685983 O.3        1 MOL1        -0.3740
     122    C36     23.619253   15.387845   18.289659 C.3        1 MOL1         0.0138
     123    H58     24.129367   16.343935   18.133497 H          1 MOL1         0.0794
     124    H59     22.827062   15.327608   17.531220 H          1 MOL1         0.0794
     125    O30     24.541967   14.308355   18.118875 O.3        1 MOL1        -0.5486
     126    H60     24.029646   13.483299   18.272869 H          1 MOL1         0.3769
@<TRIPOS>BOND
    1     1     2    1
    2     1     3    1
    3     1     4    1
    4     4     5    1
    5     4     6    1
    6     6     7    1
    7     4     8    1
    8     8     9    1
    9     8    10    1
   10    10    11    1
   11     8    12    1
   12    12    13    1
   13    12    14    1
   14    14    15    1
   15     1    16    1
   16    14    16    1
   17    14    17    1
   18    17    18    1
   19    17    19    1
   20    17    20    1
   21    20    21    1
   22    22    23    1
   23    22    24    1
   24    22    25    1
   25    25    26    1
   26    25    27    1
   27    27    28    1
   28    25    29    1
   29    29    30    1
   30    29    31    1
   31    31    32    1
   32     3    33    1
   33    29    33    1
   34    33    34    1
   35    33    35    1
   36    35    36    1
   37    22    37    1
   38    35    37    1
   39    35    38    1
   40    38    39    1
   41    38    40    1
   42    38    41    1
   43    41    42    1
   44    43    44    1
   45    43    45    1
   46    43    46    1
   47    46    47    1
   48    46    48    1
   49    48    49    1
   50    46    50    1
   51    50    51    1
   52    50    52    1
   53    52    53    1
   54    24    54    1
   55    50    54    1
   56    54    55    1
   57    54    56    1
   58    56    57    1
   59    43    58    1
   60    56    58    1
   61    56    59    1
   62    59    60    1
   63    59    61    1
   64    59    62    1
   65    62    63    1
   66    64    65    1
   67    64    66    1
   68    64    67    1
   69    67    68    1
   70    67    69    1
   71    69    70    1
   72    67    71    1
   73    71    72    1
   74    71    73    1
   75    73    74    1
   76    45    75    1
   77    71    75    1
   78    75    76    1
   79    75    77    1
   80    77    78    1
   81    64    79    1
   82    77    79    1
   83    77    80    1
   84    80    81    1
   85    80    82    1
   86    80    83    1
   87    83    84    1
   88    85    86    1
   89    85    87    1
   90    85    88    1
   91    88    89    1
   92    88    90    1
   93    90    91    1
   94    88    92    1
   95    92    93    1
   96    92    94    1
   97    94    95    1
   98    66    96    1
   99    92    96    1
  100    96    97    1
  101    96    98    1
  102    98    99    1
  103    85   100    1
  104    98   100    1
  105    98   101    1
  106   101   102    1
  107   101   103    1
  108   101   104    1
  109   104   105    1
  110   106   107    1
  111    12   108    1
  112   106   108    1
  113   106   109    1
  114   109   110    1
  115   109   111    1
  116   111   112    1
  117   109   113    1
  118   113   114    1
  119   113   115    1
  120   115   116    1
  121    87   117    1
  122   113   117    1
  123   117   118    1
  124   117   119    1
  125   119   120    1
  126   106   121    1
  127   119   121    1
  128   119   122    1
  129   122   123    1
  130   122   124    1
  131   122   125    1
  132   125   126    1
@<TRIPOS>SUBSTRUCTURE
       1 MOL1            1 RESIDUE      1      MOL     
@<SCITEGIC>MOL_PROPERTY
VM2 Rank
SciTegic.value.IntegerValue
6

@<SCITEGIC>MOL_PROPERTY
Conf_Id
SciTegic.value.IntegerValue
12308

@<SCITEGIC>MOL_PROPERTY
Probability
SciTegic.value.DoubleValue
1.08

@<SCITEGIC>MOL_PROPERTY
Sum Probability
SciTegic.value.DoubleValue
9.69

@<SCITEGIC>MOL_PROPERTY
Delta G
SciTegic.value.DoubleValue
0.460

@<SCITEGIC>MOL_PROPERTY
G
SciTegic.value.DoubleValue
522.747

@<SCITEGIC>MOL_PROPERTY
E
SciTegic.value.DoubleValue
363.922

@<SCITEGIC>MOL_PROPERTY
-TS
SciTegic.value.DoubleValue
158.825

@<SCITEGIC>MOL_PROPERTY
U+W
SciTegic.value.DoubleValue
253.036

@<SCITEGIC>MOL_PROPERTY
U
SciTegic.value.DoubleValue
293.081

@<SCITEGIC>MOL_PROPERTY
W
SciTegic.value.DoubleValue
-40.046

@<SCITEGIC>MOL_PROPERTY
W(PB)
SciTegic.value.DoubleValue
-45.951

@<SCITEGIC>MOL_PROPERTY
W(SA)
SciTegic.value.DoubleValue
5.906

@<SCITEGIC>MOL_PROPERTY
Valence
SciTegic.value.DoubleValue
132.517

@<SCITEGIC>MOL_PROPERTY
Coulomb
SciTegic.value.DoubleValue
169.892

@<SCITEGIC>MOL_PROPERTY
VdW
SciTegic.value.DoubleValue
-9.328

@<SCITEGIC>MOL_PROPERTY
VdW6
SciTegic.value.DoubleValue
-144.070

@<SCITEGIC>MOL_PROPERTY
VdW12
SciTegic.value.DoubleValue
134.743

@<SCITEGIC>MOL_PROPERTY
Bond
SciTegic.value.DoubleValue
5.034

@<SCITEGIC>MOL_PROPERTY
Angle
SciTegic.value.DoubleValue
14.919

@<SCITEGIC>MOL_PROPERTY
Pdih
SciTegic.value.DoubleValue
112.564

@<SCITEGIC>MOL_PROPERTY
Idih
SciTegic.value.DoubleValue
0.000

@<SCITEGIC>MOL_PROPERTY
Tether
SciTegic.value.DoubleValue
0.000

@<TRIPOS>MOLECULE
CD_vm2.mol2 : vm2 host conformer 7
         126         132           1
SMALL
USER_CHARGES
 
@<TRIPOS>ATOM
       1    C1      17.005757   16.253175   22.814892 C.3        1 MOL1         0.2972
       2    H1      16.035096   16.272863   23.322597 H          1 MOL1         0.0751
       3    O1      17.256506   17.509028   22.140619 O.3        1 MOL1        -0.3740
       4    C2      18.125968   16.003258   23.859360 C.3        1 MOL1         0.1003
       5    H2      17.908125   15.040259   24.339865 H          1 MOL1         0.0783
       6    O2      18.161973   17.030891   24.864327 O.3        1 MOL1        -0.5519
       7    H3      17.266574   17.092681   25.258059 H          1 MOL1         0.3769
       8    C3      19.505274   15.886207   23.171247 C.3        1 MOL1         0.1053
       9    H4      19.759614   16.865805   22.743561 H          1 MOL1         0.0783
      10    O3      20.479268   15.511670   24.151252 O.3        1 MOL1        -0.5519
      11    H5      20.330329   16.134275   24.898302 H          1 MOL1         0.3769
      12    C4      19.471942   14.843909   22.025735 C.3        1 MOL1         0.1018
      13    H6      19.429722   13.838878   22.465750 H          1 MOL1         0.0783
      14    C5      18.254954   15.048675   21.083340 C.3        1 MOL1         0.1043
      15    H7      18.416683   15.968868   20.513577 H          1 MOL1         0.0783
      16    O4      17.040032   15.165872   21.862296 O.3        1 MOL1        -0.3740
      17    C6      18.055584   13.903338   20.066625 C.3        1 MOL1         0.0138
      18    H8      18.914109   13.879299   19.382431 H          1 MOL1         0.0794
      19    H9      17.164610   14.120365   19.462114 H          1 MOL1         0.0794
      20    O5      17.914668   12.642658   20.728021 O.3        1 MOL1        -0.5486
      21    H10     17.147276   12.734869   21.335661 H          1 MOL1         0.3769
      22    C7      15.013606   20.337670   20.018426 C.3        1 MOL1         0.2972
      23    H11     14.397637   20.870907   19.283247 H          1 MOL1         0.0751
      24    O6      15.519867   21.236883   21.023458 O.3        1 MOL1        -0.3740
      25    C8      14.167203   19.261217   20.738798 C.3        1 MOL1         0.1003
      26    H12     13.789867   18.572821   19.971194 H          1 MOL1         0.0783
      27    O7      13.058801   19.871880   21.416317 O.3        1 MOL1        -0.5519
      28    H13     13.433963   20.632043   21.916127 H          1 MOL1         0.3769
      29    C9      15.015472   18.440806   21.743825 C.3        1 MOL1         0.1053
      30    H14     15.291497   19.100813   22.577678 H          1 MOL1         0.0783
      31    O8      14.199308   17.366712   22.221294 O.3        1 MOL1        -0.5519
      32    H15     13.331546   17.777154   22.433976 H          1 MOL1         0.3769
      33    C10     16.329958   17.908636   21.100029 C.3        1 MOL1         0.1018
      34    H16     16.094376   17.070079   20.431999 H          1 MOL1         0.0783
      35    C11     17.054577   19.016220   20.285402 C.3        1 MOL1         0.1043
      36    H17     17.461623   19.751704   20.992495 H          1 MOL1         0.0783
      37    O9      16.121022   19.661855   19.385803 O.3        1 MOL1        -0.3740
      38    C12     18.231777   18.495936   19.431913 C.3        1 MOL1         0.0138
      39    H18     18.998108   18.079553   20.098412 H          1 MOL1         0.0794
      40    H19     18.684186   19.345135   18.902367 H          1 MOL1         0.0794
      41    O10     17.798905   17.505800   18.495138 O.3        1 MOL1        -0.5486
      42    H20     17.077498   17.919378   17.971968 H          1 MOL1         0.3769
      43    C13     18.439029   24.087015   20.893162 C.3        1 MOL1         0.2972
      44    H21     19.125274   24.938003   20.794161 H          1 MOL1         0.0751
      45    O11     19.137306   22.885845   21.285579 O.3        1 MOL1        -0.3740
      46    C14     17.300110   24.403144   21.892643 C.3        1 MOL1         0.1003
      47    H22     16.726281   25.240192   21.473861 H          1 MOL1         0.0783
      48    O12     17.806282   24.782644   23.181708 O.3        1 MOL1        -0.5519
      49    H23     18.263199   23.986246   23.553096 H          1 MOL1         0.3769
      50    C15     16.349017   23.193519   22.030066 C.3        1 MOL1         0.1053
      51    H24     16.898367   22.409000   22.569178 H          1 MOL1         0.0783
      52    O13     15.207989   23.588962   22.799183 O.3        1 MOL1        -0.5519
      53    H25     15.571662   24.060769   23.580643 H          1 MOL1         0.3769
      54    C16     15.890505   22.594022   20.668576 C.3        1 MOL1         0.1018
      55    H26     15.010161   23.150665   20.322721 H          1 MOL1         0.0783
      56    C17     16.994705   22.624748   19.552616 C.3        1 MOL1         0.1043
      57    H27     17.650895   21.754967   19.679250 H          1 MOL1         0.0783
      58    O14     17.793497   23.831000   19.635661 O.3        1 MOL1        -0.3740
      59    C18     16.441952   22.609289   18.105312 C.3        1 MOL1         0.0138
      60    H28     15.938405   21.659614   17.896474 H          1 MOL1         0.0794
      61    H29     17.289392   22.675920   17.409751 H          1 MOL1         0.0794
      62    O15     15.541553   23.698578   17.884892 O.3        1 MOL1        -0.5486
      63    H30     16.044878   24.516661   18.095355 H          1 MOL1         0.3769
      64    C19     22.684488   21.640596   23.081407 C.3        1 MOL1         0.2972
      65    H31     23.618961   21.614621   23.652885 H          1 MOL1         0.0751
      66    O16     22.483669   20.393219   22.374967 O.3        1 MOL1        -0.3740
      67    C20     21.496065   21.877126   24.051611 C.3        1 MOL1         0.1003
      68    H32     21.683440   22.831615   24.561062 H          1 MOL1         0.0783
      69    O17     21.389936   20.834286   25.035593 O.3        1 MOL1        -0.5519
      70    H33     22.257779   20.760650   25.485073 H          1 MOL1         0.3769
      71    C21     20.165645   22.010219   23.275253 C.3        1 MOL1         0.1053
      72    H34     19.935162   21.037111   22.820010 H          1 MOL1         0.0783
      73    O18     19.129961   22.381696   24.191304 O.3        1 MOL1        -0.5519
      74    H35     19.221310   21.747833   24.938199 H          1 MOL1         0.3769
      75    C22     20.278266   23.065824   22.147974 C.3        1 MOL1         0.1018
      76    H36     20.294968   24.064907   22.603196 H          1 MOL1         0.0783
      77    C23     21.553960   22.868109   21.285711 C.3        1 MOL1         0.1043
      78    H37     21.428536   21.954185   20.697110 H          1 MOL1         0.0783
      79    O19     22.713590   22.740625   22.143153 O.3        1 MOL1        -0.3740
      80    C24     21.822798   24.023479   20.296705 C.3        1 MOL1         0.0138
      81    H38     21.013468   24.054875   19.555238 H          1 MOL1         0.0794
      82    H39     22.753258   23.812006   19.752749 H          1 MOL1         0.0794
      83    O20     21.917701   25.277362   20.978961 O.3        1 MOL1        -0.5486
      84    H40     22.643722   25.179740   21.634700 H          1 MOL1         0.3769
      85    C25     24.874151   17.623774   20.336156 C.3        1 MOL1         0.2972
      86    H41     25.531987   17.107076   19.626182 H          1 MOL1         0.0751
      87    O21     24.315082   16.699266   21.289897 O.3        1 MOL1        -0.3740
      88    C26     25.668523   18.713067   21.102478 C.3        1 MOL1         0.1003
      89    H42     26.038161   19.425984   20.353398 H          1 MOL1         0.0783
      90    O22     26.788817   18.154149   21.810783 O.3        1 MOL1        -0.5519
      91    H43     27.369477   17.717334   21.152277 H          1 MOL1         0.3769
      92    C27     24.757405   19.492667   22.083501 C.3        1 MOL1         0.1053
      93    H44     24.452980   18.805901   22.885142 H          1 MOL1         0.0783
      94    O23     25.529560   20.567743   22.627216 O.3        1 MOL1        -0.5519
      95    H45     26.382775   20.154795   22.889716 H          1 MOL1         0.3769
      96    C28     23.470875   20.019597   21.380865 C.3        1 MOL1         0.1018
      97    H46     23.732339   20.871310   20.739756 H          1 MOL1         0.0783
      98    C29     22.806118   18.918694   20.507999 C.3        1 MOL1         0.1043
      99    H47     22.367684   18.167590   21.178931 H          1 MOL1         0.0783
     100    O24     23.796387   18.297512   19.651759 O.3        1 MOL1        -0.3740
     101    C30     21.673363   19.441159   19.597611 C.3        1 MOL1         0.0138
     102    H48     20.866942   19.841289   20.225808 H          1 MOL1         0.0794
     103    H49     21.259656   18.595702   19.031774 H          1 MOL1         0.0794
     104    O25     22.148554   20.447999   18.699986 O.3        1 MOL1        -0.5486
     105    H50     22.901864   20.048015   18.212473 H          1 MOL1         0.3769
     106    C31     21.404301   13.848897   20.887991 C.3        1 MOL1         0.2972
     107    H51     20.735103   12.994623   20.722861 H          1 MOL1         0.0751
     108    O26     20.665175   15.039201   21.240695 O.3        1 MOL1        -0.3740
     109    C32     22.464115   13.524482   21.970527 C.3        1 MOL1         0.1003
     110    H52     23.081248   12.701714   21.587345 H          1 MOL1         0.0783
     111    O27     21.841530   13.108525   23.195987 O.3        1 MOL1        -0.5519
     112    H53     21.436845   13.918841   23.593808 H          1 MOL1         0.3769
     113    C33     23.385350   14.748710   22.196050 C.3        1 MOL1         0.1053
     114    H54     22.779530   15.522700   22.687445 H          1 MOL1         0.0783
     115    O28     24.488066   14.402477   23.041667 O.3        1 MOL1        -0.5519
     116    H55     25.007516   15.228229   23.153075 H          1 MOL1         0.3769
     117    C34     23.946676   15.356989   20.879054 C.3        1 MOL1         0.1018
     118    H56     24.841017   14.791206   20.587950 H          1 MOL1         0.0783
     119    C35     22.927244   15.348840   19.685728 C.3        1 MOL1         0.1043
     120    H57     22.255575   16.210311   19.783939 H          1 MOL1         0.0783
     121    O29     22.139539   14.132689   19.686798 O.3        1 MOL1        -0.3740
     122    C36     23.581530   15.398365   18.281826 C.3        1 MOL1         0.0138
     123    H58     24.084605   16.358138   18.125187 H          1 MOL1         0.0794
     124    H59     22.786611   15.333527   17.526634 H          1 MOL1         0.0794
     125    O30     24.511193   14.325593   18.106273 O.3        1 MOL1        -0.5486
     126    H60     24.005369   13.496744   18.261400 H          1 MOL1         0.3769
@<TRIPOS>BOND
    1     1     2    1
    2     1     3    1
    3     1     4    1
    4     4     5    1
    5     4     6    1
    6     6     7    1
    7     4     8    1
    8     8     9    1
    9     8    10    1
   10    10    11    1
   11     8    12    1
   12    12    13    1
   13    12    14    1
   14    14    15    1
   15     1    16    1
   16    14    16    1
   17    14    17    1
   18    17    18    1
   19    17    19    1
   20    17    20    1
   21    20    21    1
   22    22    23    1
   23    22    24    1
   24    22    25    1
   25    25    26    1
   26    25    27    1
   27    27    28    1
   28    25    29    1
   29    29    30    1
   30    29    31    1
   31    31    32    1
   32     3    33    1
   33    29    33    1
   34    33    34    1
   35    33    35    1
   36    35    36    1
   37    22    37    1
   38    35    37    1
   39    35    38    1
   40    38    39    1
   41    38    40    1
   42    38    41    1
   43    41    42    1
   44    43    44    1
   45    43    45    1
   46    43    46    1
   47    46    47    1
   48    46    48    1
   49    48    49    1
   50    46    50    1
   51    50    51    1
   52    50    52    1
   53    52    53    1
   54    24    54    1
   55    50    54    1
   56    54    55    1
   57    54    56    1
   58    56    57    1
   59    43    58    1
   60    56    58    1
   61    56    59    1
   62    59    60    1
   63    59    61    1
   64    59    62    1
   65    62    63    1
   66    64    65    1
   67    64    66    1
   68    64    67    1
   69    67    68    1
   70    67    69    1
   71    69    70    1
   72    67    71    1
   73    71    72    1
   74    71    73    1
   75    73    74    1
   76    45    75    1
   77    71    75    1
   78    75    76    1
   79    75    77    1
   80    77    78    1
   81    64    79    1
   82    77    79    1
   83    77    80    1
   84    80    81    1
   85    80    82    1
   86    80    83    1
   87    83    84    1
   88    85    86    1
   89    85    87    1
   90    85    88    1
   91    88    89    1
   92    88    90    1
   93    90    91    1
   94    88    92    1
   95    92    93    1
   96    92    94    1
   97    94    95    1
   98    66    96    1
   99    92    96    1
  100    96    97    1
  101    96    98    1
  102    98    99    1
  103    85   100    1
  104    98   100    1
  105    98   101    1
  106   101   102    1
  107   101   103    1
  108   101   104    1
  109   104   105    1
  110   106   107    1
  111    12   108    1
  112   106   108    1
  113   106   109    1
  114   109   110    1
  115   109   111    1
  116   111   112    1
  117   109   113    1
  118   113   114    1
  119   113   115    1
  120   115   116    1
  121    87   117    1
  122   113   117    1
  123   117   118    1
  124   117   119    1
  125   119   120    1
  126   106   121    1
  127   119   121    1
  128   119   122    1
  129   122   123    1
  130   122   124    1
  131   122   125    1
  132   125   126    1
@<TRIPOS>SUBSTRUCTURE
       1 MOL1            1 RESIDUE      1      MOL     
@<SCITEGIC>MOL_PROPERTY
VM2 Rank
SciTegic.value.IntegerValue
7

@<SCITEGIC>MOL_PROPERTY
Conf_Id
SciTegic.value.IntegerValue
12277

@<SCITEGIC>MOL_PROPERTY
Probability
SciTegic.value.DoubleValue
1.01

@<SCITEGIC>MOL_PROPERTY
Sum Probability
SciTegic.value.DoubleValue
10.70

@<SCITEGIC>MOL_PROPERTY
Delta G
SciTegic.value.DoubleValue
0.497

@<SCITEGIC>MOL_PROPERTY
G
SciTegic.value.DoubleValue
522.785

@<SCITEGIC>MOL_PROPERTY
E
SciTegic.value.DoubleValue
364.035

@<SCITEGIC>MOL_PROPERTY
-TS
SciTegic.value.DoubleValue
158.749

@<SCITEGIC>MOL_PROPERTY
U+W
SciTegic.value.DoubleValue
253.149

@<SCITEGIC>MOL_PROPERTY
U
SciTegic.value.DoubleValue
293.418

@<SCITEGIC>MOL_PROPERTY
W
SciTegic.value.DoubleValue
-40.269

@<SCITEGIC>MOL_PROPERTY
W(PB)
SciTegic.value.DoubleValue
-46.184

@<SCITEGIC>MOL_PROPERTY
W(SA)
SciTegic.value.DoubleValue
5.915

@<SCITEGIC>MOL_PROPERTY
Valence
SciTegic.value.DoubleValue
132.237

@<SCITEGIC>MOL_PROPERTY
Coulomb
SciTegic.value.DoubleValue
170.418

@<SCITEGIC>MOL_PROPERTY
VdW
SciTegic.value.DoubleValue
-9.236

@<SCITEGIC>MOL_PROPERTY
VdW6
SciTegic.value.DoubleValue
-143.694

@<SCITEGIC>MOL_PROPERTY
VdW12
SciTegic.value.DoubleValue
134.458

@<SCITEGIC>MOL_PROPERTY
Bond
SciTegic.value.DoubleValue
5.018

@<SCITEGIC>MOL_PROPERTY
Angle
SciTegic.value.DoubleValue
15.045

@<SCITEGIC>MOL_PROPERTY
Pdih
SciTegic.value.DoubleValue
112.174

@<SCITEGIC>MOL_PROPERTY
Idih
SciTegic.value.DoubleValue
0.000

@<SCITEGIC>MOL_PROPERTY
Tether
SciTegic.value.DoubleValue
0.000

@<TRIPOS>MOLECULE
CD_vm2.mol2 : vm2 host conformer 8
         126         132           1
SMALL
USER_CHARGES
 
@<TRIPOS>ATOM
       1    C1      17.004482   16.234124   22.823620 C.3        1 MOL1         0.2972
       2    H1      16.032570   16.252096   23.328802 H          1 MOL1         0.0751
       3    O1      17.261096   17.496556   22.162828 O.3        1 MOL1        -0.3740
       4    C2      18.119198   15.965096   23.869138 C.3        1 MOL1         0.1003
       5    H2      17.893930   14.997168   24.336214 H          1 MOL1         0.0783
       6    O2      18.156913   16.979745   24.887182 O.3        1 MOL1        -0.5519
       7    H3      17.260188   17.041498   25.278008 H          1 MOL1         0.3769
       8    C3      19.500367   15.848767   23.185402 C.3        1 MOL1         0.1053
       9    H4      19.761673   16.832316   22.771154 H          1 MOL1         0.0783
      10    O3      20.469652   15.454833   24.162869 O.3        1 MOL1        -0.5519
      11    H5      20.322205   16.067915   24.918102 H          1 MOL1         0.3769
      12    C4      19.467430   14.821282   22.027474 C.3        1 MOL1         0.1018
      13    H6      19.424168   13.811317   22.456210 H          1 MOL1         0.0783
      14    C5      18.252413   15.035792   21.084537 C.3        1 MOL1         0.1043
      15    H7      18.418701   15.962809   20.527810 H          1 MOL1         0.0783
      16    O4      17.035218   15.158140   21.859464 O.3        1 MOL1        -0.3740
      17    C6      18.058115   13.907867   20.043784 C.3        1 MOL1         0.0138
      18    H8      18.858513   13.983627   19.295327 H          1 MOL1         0.0794
      19    H9      17.107435   14.076681   19.520313 H          1 MOL1         0.0794
      20    O5      18.074112   12.606988   20.645520 O.3        1 MOL1        -0.5486
      21    H10     17.853765   11.952934   19.946745 H          1 MOL1         0.3769
      22    C7      15.024409   20.335104   20.034554 C.3        1 MOL1         0.2972
      23    H11     14.408352   20.862700   19.295392 H          1 MOL1         0.0751
      24    O6      15.530301   21.242293   21.032323 O.3        1 MOL1        -0.3740
      25    C8      14.177517   19.263936   20.762276 C.3        1 MOL1         0.1003
      26    H12     13.796714   18.572968   19.998704 H          1 MOL1         0.0783
      27    O7      13.072024   19.880423   21.439316 O.3        1 MOL1        -0.5519
      28    H13     13.449784   20.643375   21.932930 H          1 MOL1         0.3769
      29    C9      15.025538   18.445578   21.769159 C.3        1 MOL1         0.1053
      30    H14     15.305807   19.108400   22.599348 H          1 MOL1         0.0783
      31    O8      14.206132   17.376931   22.253106 O.3        1 MOL1        -0.5519
      32    H15     13.340424   17.791861   22.465544 H          1 MOL1         0.3769
      33    C10     16.336615   17.906717   21.123829 C.3        1 MOL1         0.1018
      34    H16     16.095345   17.072187   20.452755 H          1 MOL1         0.0783
      35    C11     17.064506   19.013424   20.310915 C.3        1 MOL1         0.1043
      36    H17     17.468729   19.750225   21.018261 H          1 MOL1         0.0783
      37    O9      16.133020   19.656400   19.407101 O.3        1 MOL1        -0.3740
      38    C12     18.244172   18.493138   19.460807 C.3        1 MOL1         0.0138
      39    H18     19.008466   18.075464   20.128944 H          1 MOL1         0.0794
      40    H19     18.698314   19.342897   18.933738 H          1 MOL1         0.0794
      41    O10     17.813446   17.505082   18.520814 O.3        1 MOL1        -0.5486
      42    H20     17.092268   17.919527   17.998018 H          1 MOL1         0.3769
      43    C13     18.434510   24.105342   20.871626 C.3        1 MOL1         0.2972
      44    H21     19.117413   24.958023   20.764378 H          1 MOL1         0.0751
      45    O11     19.137985   22.909656   21.270905 O.3        1 MOL1        -0.3740
      46    C14     17.296444   24.424695   21.871126 C.3        1 MOL1         0.1003
      47    H22     16.717712   25.255390   21.446480 H          1 MOL1         0.0783
      48    O12     17.803645   24.817803   23.155674 O.3        1 MOL1        -0.5519
      49    H23     18.263321   24.026185   23.533770 H          1 MOL1         0.3769
      50    C15     16.351341   23.211811   22.021071 C.3        1 MOL1         0.1053
      51    H24     16.905468   22.434451   22.565568 H          1 MOL1         0.0783
      52    O13     15.210101   23.608349   22.789306 O.3        1 MOL1        -0.5519
      53    H25     15.573174   24.088403   23.566004 H          1 MOL1         0.3769
      54    C16     15.892703   22.598575   20.665796 C.3        1 MOL1         0.1018
      55    H26     15.008500   23.147680   20.317738 H          1 MOL1         0.0783
      56    C17     16.993741   22.625823   19.546533 C.3        1 MOL1         0.1043
      57    H27     17.654201   21.759958   19.678405 H          1 MOL1         0.0783
      58    O14     17.786857   23.836669   19.617879 O.3        1 MOL1        -0.3740
      59    C18     16.437678   22.596073   18.100708 C.3        1 MOL1         0.0138
      60    H28     15.940270   21.641439   17.899932 H          1 MOL1         0.0794
      61    H29     17.283031   22.663342   17.402670 H          1 MOL1         0.0794
      62    O15     15.529416   23.677589   17.874390 O.3        1 MOL1        -0.5486
      63    H30     16.027874   24.500664   18.076798 H          1 MOL1         0.3769
      64    C19     22.681012   21.670386   23.069442 C.3        1 MOL1         0.2972
      65    H31     23.615729   21.641867   23.640155 H          1 MOL1         0.0751
      66    O16     22.472618   20.422569   22.365636 O.3        1 MOL1        -0.3740
      67    C20     21.495569   21.915431   24.040780 C.3        1 MOL1         0.1003
      68    H32     21.686771   22.871850   24.545176 H          1 MOL1         0.0783
      69    O17     21.388193   20.877611   25.029926 O.3        1 MOL1        -0.5519
      70    H33     22.256049   20.805123   25.479620 H          1 MOL1         0.3769
      71    C21     20.164556   22.048583   23.266027 C.3        1 MOL1         0.1053
      72    H34     19.930566   21.073702   22.816400 H          1 MOL1         0.0783
      73    O18     19.131587   22.427533   24.182052 O.3        1 MOL1        -0.5519
      74    H35     19.223898   21.798554   24.932941 H          1 MOL1         0.3769
      75    C22     20.277855   23.097720   22.132712 C.3        1 MOL1         0.1018
      76    H36     20.292457   24.099660   22.581651 H          1 MOL1         0.0783
      77    C23     21.553984   22.896767   21.271469 C.3        1 MOL1         0.1043
      78    H37     21.427147   21.982421   20.684097 H          1 MOL1         0.0783
      79    O19     22.713728   22.767812   22.128546 O.3        1 MOL1        -0.3740
      80    C24     21.824512   24.050079   20.280562 C.3        1 MOL1         0.0138
      81    H38     21.015090   24.081522   19.539206 H          1 MOL1         0.0794
      82    H39     22.754522   23.836184   19.736773 H          1 MOL1         0.0794
      83    O20     21.921495   25.304945   20.960703 O.3        1 MOL1        -0.5486
      84    H40     22.647578   25.207390   21.616379 H          1 MOL1         0.3769
      85    C25     24.854163   17.626544   20.342614 C.3        1 MOL1         0.2972
      86    H41     25.519836   17.112289   19.637863 H          1 MOL1         0.0751
      87    O21     24.282213   16.701573   21.286965 O.3        1 MOL1        -0.3740
      88    C26     25.647971   18.684584   21.145565 C.3        1 MOL1         0.1003
      89    H42     26.078899   19.389293   20.422254 H          1 MOL1         0.0783
      90    O22     26.705671   18.056261   21.885158 O.3        1 MOL1        -0.5519
      91    H43     26.296259   17.284531   22.338220 H          1 MOL1         0.3769
      92    C27     24.732177   19.484520   22.106915 C.3        1 MOL1         0.1053
      93    H44     24.397828   18.806974   22.904562 H          1 MOL1         0.0783
      94    O23     25.514559   20.545483   22.663672 O.3        1 MOL1        -0.5519
      95    H45     26.364715   20.127817   22.927338 H          1 MOL1         0.3769
      96    C28     23.466594   20.033767   21.384236 C.3        1 MOL1         0.1018
      97    H46     23.750741   20.881332   20.747184 H          1 MOL1         0.0783
      98    C29     22.798064   18.942055   20.502920 C.3        1 MOL1         0.1043
      99    H47     22.347641   18.192034   21.167141 H          1 MOL1         0.0783
     100    O24     23.790347   18.316637   19.653270 O.3        1 MOL1        -0.3740
     101    C30     21.678431   19.477107   19.583684 C.3        1 MOL1         0.0138
     102    H48     20.868897   19.880856   20.205459 H          1 MOL1         0.0794
     103    H49     21.263733   18.637105   19.010470 H          1 MOL1         0.0794
     104    O25     22.170455   20.483556   18.694680 O.3        1 MOL1        -0.5486
     105    H50     22.926456   20.079840   18.214412 H          1 MOL1         0.3769
     106    C31     21.396385   13.842283   20.876856 C.3        1 MOL1         0.2972
     107    H51     20.725330   12.990732   20.707312 H          1 MOL1         0.0751
     108    O26     20.663943   15.028784   21.250056 O.3        1 MOL1        -0.3740
     109    C32     22.464870   13.505224   21.945113 C.3        1 MOL1         0.1003
     110    H52     23.072839   12.683233   21.545116 H          1 MOL1         0.0783
     111    O27     21.873302   13.087447   23.184985 O.3        1 MOL1        -0.5519
     112    H53     21.382341   13.869576   23.542979 H          1 MOL1         0.3769
     113    C33     23.395114   14.715734   22.181375 C.3        1 MOL1         0.1053
     114    H54     22.803491   15.482958   22.700215 H          1 MOL1         0.0783
     115    O28     24.481596   14.305963   23.018953 O.3        1 MOL1        -0.5519
     116    H55     24.066687   13.811315   23.759725 H          1 MOL1         0.3769
     117    C34     23.944623   15.352883   20.871810 C.3        1 MOL1         0.1018
     118    H56     24.850029   14.808681   20.574226 H          1 MOL1         0.0783
     119    C35     22.921414   15.347384   19.680660 C.3        1 MOL1         0.1043
     120    H57     22.252429   16.210515   19.784352 H          1 MOL1         0.0783
     121    O29     22.126877   14.135407   19.675127 O.3        1 MOL1        -0.3740
     122    C36     23.573523   15.404251   18.276336 C.3        1 MOL1         0.0138
     123    H58     24.082888   16.362054   18.127499 H          1 MOL1         0.0794
     124    H59     22.777086   15.350851   17.521858 H          1 MOL1         0.0794
     125    O30     24.495502   14.326514   18.091164 O.3        1 MOL1        -0.5486
     126    H60     23.984997   13.500194   18.244336 H          1 MOL1         0.3769
@<TRIPOS>BOND
    1     1     2    1
    2     1     3    1
    3     1     4    1
    4     4     5    1
    5     4     6    1
    6     6     7    1
    7     4     8    1
    8     8     9    1
    9     8    10    1
   10    10    11    1
   11     8    12    1
   12    12    13    1
   13    12    14    1
   14    14    15    1
   15     1    16    1
   16    14    16    1
   17    14    17    1
   18    17    18    1
   19    17    19    1
   20    17    20    1
   21    20    21    1
   22    22    23    1
   23    22    24    1
   24    22    25    1
   25    25    26    1
   26    25    27    1
   27    27    28    1
   28    25    29    1
   29    29    30    1
   30    29    31    1
   31    31    32    1
   32     3    33    1
   33    29    33    1
   34    33    34    1
   35    33    35    1
   36    35    36    1
   37    22    37    1
   38    35    37    1
   39    35    38    1
   40    38    39    1
   41    38    40    1
   42    38    41    1
   43    41    42    1
   44    43    44    1
   45    43    45    1
   46    43    46    1
   47    46    47    1
   48    46    48    1
   49    48    49    1
   50    46    50    1
   51    50    51    1
   52    50    52    1
   53    52    53    1
   54    24    54    1
   55    50    54    1
   56    54    55    1
   57    54    56    1
   58    56    57    1
   59    43    58    1
   60    56    58    1
   61    56    59    1
   62    59    60    1
   63    59    61    1
   64    59    62    1
   65    62    63    1
   66    64    65    1
   67    64    66    1
   68    64    67    1
   69    67    68    1
   70    67    69    1
   71    69    70    1
   72    67    71    1
   73    71    72    1
   74    71    73    1
   75    73    74    1
   76    45    75    1
   77    71    75    1
   78    75    76    1
   79    75    77    1
   80    77    78    1
   81    64    79    1
   82    77    79    1
   83    77    80    1
   84    80    81    1
   85    80    82    1
   86    80    83    1
   87    83    84    1
   88    85    86    1
   89    85    87    1
   90    85    88    1
   91    88    89    1
   92    88    90    1
   93    90    91    1
   94    88    92    1
   95    92    93    1
   96    92    94    1
   97    94    95    1
   98    66    96    1
   99    92    96    1
  100    96    97    1
  101    96    98    1
  102    98    99    1
  103    85   100    1
  104    98   100    1
  105    98   101    1
  106   101   102    1
  107   101   103    1
  108   101   104    1
  109   104   105    1
  110   106   107    1
  111    12   108    1
  112   106   108    1
  113   106   109    1
  114   109   110    1
  115   109   111    1
  116   111   112    1
  117   109   113    1
  118   113   114    1
  119   113   115    1
  120   115   116    1
  121    87   117    1
  122   113   117    1
  123   117   118    1
  124   117   119    1
  125   119   120    1
  126   106   121    1
  127   119   121    1
  128   119   122    1
  129   122   123    1
  130   122   124    1
  131   122   125    1
  132   125   126    1
@<TRIPOS>SUBSTRUCTURE
       1 MOL1            1 RESIDUE      1      MOL     
@<SCITEGIC>MOL_PROPERTY
VM2 Rank
SciTegic.value.IntegerValue
8

@<SCITEGIC>MOL_PROPERTY
Conf_Id
SciTegic.value.IntegerValue
11487

@<SCITEGIC>MOL_PROPERTY
Probability
SciTegic.value.DoubleValue
0.99

@<SCITEGIC>MOL_PROPERTY
Sum Probability
SciTegic.value.DoubleValue
11.69

@<SCITEGIC>MOL_PROPERTY
Delta G
SciTegic.value.DoubleValue
0.508

@<SCITEGIC>MOL_PROPERTY
G
SciTegic.value.DoubleValue
522.795

@<SCITEGIC>MOL_PROPERTY
E
SciTegic.value.DoubleValue
363.944

@<SCITEGIC>MOL_PROPERTY
-TS
SciTegic.value.DoubleValue
158.852

@<SCITEGIC>MOL_PROPERTY
U+W
SciTegic.value.DoubleValue
253.057

@<SCITEGIC>MOL_PROPERTY
U
SciTegic.value.DoubleValue
290.557

@<SCITEGIC>MOL_PROPERTY
W
SciTegic.value.DoubleValue
-37.500

@<SCITEGIC>MOL_PROPERTY
W(PB)
SciTegic.value.DoubleValue
-43.422

@<SCITEGIC>MOL_PROPERTY
W(SA)
SciTegic.value.DoubleValue
5.922

@<SCITEGIC>MOL_PROPERTY
Valence
SciTegic.value.DoubleValue
132.494

@<SCITEGIC>MOL_PROPERTY
Coulomb
SciTegic.value.DoubleValue
167.316

@<SCITEGIC>MOL_PROPERTY
VdW
SciTegic.value.DoubleValue
-9.253

@<SCITEGIC>MOL_PROPERTY
VdW6
SciTegic.value.DoubleValue
-143.501

@<SCITEGIC>MOL_PROPERTY
VdW12
SciTegic.value.DoubleValue
134.248

@<SCITEGIC>MOL_PROPERTY
Bond
SciTegic.value.DoubleValue
5.002

@<SCITEGIC>MOL_PROPERTY
Angle
SciTegic.value.DoubleValue
14.835

@<SCITEGIC>MOL_PROPERTY
Pdih
SciTegic.value.DoubleValue
112.657

@<SCITEGIC>MOL_PROPERTY
Idih
SciTegic.value.DoubleValue
0.000

@<SCITEGIC>MOL_PROPERTY
Tether
SciTegic.value.DoubleValue
0.000

