@<TRIPOS>MOLECULE
CD_vm2.mol2 : vm2 host conformer 1
         126         132           1
SMALL
USER_CHARGES
 
@<TRIPOS>ATOM
       1    C1      17.015389   16.243431   22.819802 C.3        1 MOL1         0.2972
       2    H1      16.044079   16.259275   23.326280 H          1 MOL1         0.0751
       3    O1      17.266829   17.504885   22.155618 O.3        1 MOL1        -0.3740
       4    C2      18.132965   15.982164   23.864679 C.3        1 MOL1         0.1003
       5    H2      17.909944   15.016738   24.337879 H          1 MOL1         0.0783
       6    O2      18.170824   17.002172   24.877178 O.3        1 MOL1        -0.5519
       7    H3      17.274128   17.066394   25.267618 H          1 MOL1         0.3769
       8    C3      19.513878   15.863893   23.180006 C.3        1 MOL1         0.1053
       9    H4      19.776097   16.846742   22.764603 H          1 MOL1         0.0783
      10    O3      20.482745   15.469328   24.157418 O.3        1 MOL1        -0.5519
      11    H5      20.338874   16.085330   24.910957 H          1 MOL1         0.3769
      12    C4      19.479486   14.834882   22.023376 C.3        1 MOL1         0.1018
      13    H6      19.433168   13.825334   22.452692 H          1 MOL1         0.0783
      14    C5      18.265785   15.053009   21.080071 C.3        1 MOL1         0.1043
      15    H7      18.431406   15.978997   20.521171 H          1 MOL1         0.0783
      16    O4      17.049711   15.164397   21.857882 O.3        1 MOL1        -0.3740
      17    C6      18.065810   13.919533   20.050281 C.3        1 MOL1         0.0138
      18    H8      18.924539   13.902678   19.366127 H          1 MOL1         0.0794
      19    H9      17.175286   14.144202   19.447895 H          1 MOL1         0.0794
      20    O5      17.923729   12.651478   20.697240 O.3        1 MOL1        -0.5486
      21    H10     17.154044   12.736176   21.303075 H          1 MOL1         0.3769
      22    C7      15.017620   20.335354   20.032072 C.3        1 MOL1         0.2972
      23    H11     14.399391   20.862648   19.294519 H          1 MOL1         0.0751
      24    O6      15.520995   21.241833   21.031880 O.3        1 MOL1        -0.3740
      25    C8      14.174942   19.259377   20.757640 C.3        1 MOL1         0.1003
      26    H12     13.796886   18.568466   19.992650 H          1 MOL1         0.0783
      27    O7      13.067014   19.870026   21.435956 O.3        1 MOL1        -0.5519
      28    H13     13.441779   20.633202   21.931473 H          1 MOL1         0.3769
      29    C9      15.026259   18.442308   21.762852 C.3        1 MOL1         0.1053
      30    H14     15.303246   19.104387   22.594734 H          1 MOL1         0.0783
      31    O8      14.211692   17.368607   22.243881 O.3        1 MOL1        -0.5519
      32    H15     13.344019   17.778936   22.457198 H          1 MOL1         0.3769
      33    C10     16.339958   17.910547   21.117011 C.3        1 MOL1         0.1018
      34    H16     16.102752   17.075017   20.445769 H          1 MOL1         0.0783
      35    C11     17.062658   19.020945   20.304533 C.3        1 MOL1         0.1043
      36    H17     17.464822   19.758379   21.012394 H          1 MOL1         0.0783
      37    O9      16.127909   19.661500   19.402408 O.3        1 MOL1        -0.3740
      38    C12     18.243614   18.506185   19.452905 C.3        1 MOL1         0.0138
      39    H18     19.010431   18.091904   20.120203 H          1 MOL1         0.0794
      40    H19     18.693543   19.357958   18.925438 H          1 MOL1         0.0794
      41    O10     17.816230   17.516143   18.513491 O.3        1 MOL1        -0.5486
      42    H20     17.093451   17.927679   17.990609 H          1 MOL1         0.3769
      43    C13     18.429253   24.101042   20.876481 C.3        1 MOL1         0.2972
      44    H21     19.113346   24.953014   20.771207 H          1 MOL1         0.0751
      45    O11     19.131456   22.903020   21.271378 O.3        1 MOL1        -0.3740
      46    C14     17.292595   24.419213   21.877971 C.3        1 MOL1         0.1003
      47    H22     16.714912   25.252181   21.456360 H          1 MOL1         0.0783
      48    O12     17.801520   24.807568   23.163278 O.3        1 MOL1        -0.5519
      49    H23     18.259872   24.013897   23.538668 H          1 MOL1         0.3769
      50    C15     16.345502   23.207541   22.025087 C.3        1 MOL1         0.1053
      51    H24     16.898711   22.427749   22.567028 H          1 MOL1         0.0783
      52    O13     15.205529   23.603890   22.795294 O.3        1 MOL1        -0.5519
      53    H25     15.570019   24.081077   23.573093 H          1 MOL1         0.3769
      54    C16     15.884838   22.598696   20.668490 C.3        1 MOL1         0.1018
      55    H26     15.000916   23.149751   20.322818 H          1 MOL1         0.0783
      56    C17     16.984787   22.628220   19.548149 C.3        1 MOL1         0.1043
      57    H27     17.644415   21.761261   19.676363 H          1 MOL1         0.0783
      58    O14     17.779835   23.837557   19.622556 O.3        1 MOL1        -0.3740
      59    C18     16.426919   22.603896   18.102931 C.3        1 MOL1         0.0138
      60    H28     15.927017   21.650984   17.900106 H          1 MOL1         0.0794
      61    H29     17.271562   22.671238   17.404043 H          1 MOL1         0.0794
      62    O15     15.520863   23.688144   17.880882 O.3        1 MOL1        -0.5486
      63    H30     16.021380   24.509459   18.085368 H          1 MOL1         0.3769
      64    C19     22.676563   21.661341   23.068768 C.3        1 MOL1         0.2972
      65    H31     23.610774   21.634710   23.640390 H          1 MOL1         0.0751
      66    O16     22.472223   20.413582   22.363807 O.3        1 MOL1        -0.3740
      67    C20     21.489638   21.902457   24.039373 C.3        1 MOL1         0.1003
      68    H32     21.678948   22.858086   24.545970 H          1 MOL1         0.0783
      69    O17     21.382979   20.862457   25.026300 O.3        1 MOL1        -0.5519
      70    H33     22.250771   20.789814   25.476067 H          1 MOL1         0.3769
      71    C21     20.158969   22.035331   23.263907 C.3        1 MOL1         0.1053
      72    H34     19.926595   21.061155   22.811918 H          1 MOL1         0.0783
      73    O18     19.124946   22.410963   24.180103 O.3        1 MOL1        -0.5519
      74    H35     19.217118   21.779942   24.929300 H          1 MOL1         0.3769
      75    C22     20.272071   23.087213   22.133159 C.3        1 MOL1         0.1018
      76    H36     20.288076   24.087953   22.584722 H          1 MOL1         0.0783
      77    C23     21.547887   22.887140   21.271336 C.3        1 MOL1         0.1043
      78    H37     21.421709   21.972618   20.683984 H          1 MOL1         0.0783
      79    O19     22.707700   22.759399   22.128511 O.3        1 MOL1        -0.3740
      80    C24     21.817392   24.040828   20.280579 C.3        1 MOL1         0.0138
      81    H38     21.007706   24.071942   19.539494 H          1 MOL1         0.0794
      82    H39     22.747367   23.827626   19.736457 H          1 MOL1         0.0794
      83    O20     21.913801   25.295605   20.960980 O.3        1 MOL1        -0.5486
      84    H40     22.640087   25.198291   21.616466 H          1 MOL1         0.3769
      85    C25     24.864018   17.624548   20.343778 C.3        1 MOL1         0.2972
      86    H41     25.531842   17.111665   19.640080 H          1 MOL1         0.0751
      87    O21     24.293738   16.698631   21.288322 O.3        1 MOL1        -0.3740
      88    C26     25.654091   18.685236   21.146898 C.3        1 MOL1         0.1003
      89    H42     26.083369   19.391027   20.423659 H          1 MOL1         0.0783
      90    O22     26.713183   18.060388   21.887437 O.3        1 MOL1        -0.5519
      91    H43     26.305767   17.287697   22.340633 H          1 MOL1         0.3769
      92    C27     24.735131   19.482650   22.107332 C.3        1 MOL1         0.1053
      93    H44     24.402075   18.804282   22.904820 H          1 MOL1         0.0783
      94    O23     25.513972   20.545971   22.664558 O.3        1 MOL1        -0.5519
      95    H45     26.365205   20.130863   22.928789 H          1 MOL1         0.3769
      96    C28     23.468566   20.028105   21.383471 C.3        1 MOL1         0.1018
      97    H46     23.750773   20.876711   20.746941 H          1 MOL1         0.0783
      98    C29     22.804182   18.934653   20.501226 C.3        1 MOL1         0.1043
      99    H47     22.354821   18.183505   21.164900 H          1 MOL1         0.0783
     100    O24     23.799170   18.311605   19.652872 O.3        1 MOL1        -0.3740
     101    C30     21.684208   19.467131   19.580886 C.3        1 MOL1         0.0138
     102    H48     20.873050   19.868535   20.202031 H          1 MOL1         0.0794
     103    H49     21.272184   18.626371   19.006834 H          1 MOL1         0.0794
     104    O25     22.174485   20.475436   18.693031 O.3        1 MOL1        -0.5486
     105    H50     22.931825   20.073943   18.213015 H          1 MOL1         0.3769
     106    C31     21.405020   13.845088   20.876335 C.3        1 MOL1         0.2972
     107    H51     20.730368   12.995856   20.707297 H          1 MOL1         0.0751
     108    O26     20.676509   15.035466   21.245882 O.3        1 MOL1        -0.3740
     109    C32     22.470378   13.506201   21.947024 C.3        1 MOL1         0.1003
     110    H52     23.076249   12.681425   21.549562 H          1 MOL1         0.0783
     111    O27     21.874585   13.092599   23.186300 O.3        1 MOL1        -0.5519
     112    H53     21.390971   13.878929   23.545077 H          1 MOL1         0.3769
     113    C33     23.404281   14.714045   22.183057 C.3        1 MOL1         0.1053
     114    H54     22.814593   15.483235   22.701159 H          1 MOL1         0.0783
     115    O28     24.488896   14.301615   23.021723 O.3        1 MOL1        -0.5519
     116    H55     24.072141   13.809230   23.762942 H          1 MOL1         0.3769
     117    C34     23.956674   15.349547   20.873760 C.3        1 MOL1         0.1018
     118    H56     24.862645   14.804903   20.578723 H          1 MOL1         0.0783
     119    C35     22.936349   15.343155   19.680103 C.3        1 MOL1         0.1043
     120    H57     22.268870   16.207831   19.779966 H          1 MOL1         0.0783
     121    O29     22.138903   14.133118   19.675521 O.3        1 MOL1        -0.3740
     122    C36     23.592216   15.395963   18.277421 C.3        1 MOL1         0.0138
     123    H58     24.104216   16.352394   18.128509 H          1 MOL1         0.0794
     124    H59     22.797654   15.343173   17.520925 H          1 MOL1         0.0794
     125    O30     24.512142   14.315750   18.096562 O.3        1 MOL1        -0.5486
     126    H60     23.999327   13.490857   18.249736 H          1 MOL1         0.3769
@<TRIPOS>BOND
    1     1     2    1
    2     1     3    1
    3     1     4    1
    4     4     5    1
    5     4     6    1
    6     6     7    1
    7     4     8    1
    8     8     9    1
    9     8    10    1
   10    10    11    1
   11     8    12    1
   12    12    13    1
   13    12    14    1
   14    14    15    1
   15     1    16    1
   16    14    16    1
   17    14    17    1
   18    17    18    1
   19    17    19    1
   20    17    20    1
   21    20    21    1
   22    22    23    1
   23    22    24    1
   24    22    25    1
   25    25    26    1
   26    25    27    1
   27    27    28    1
   28    25    29    1
   29    29    30    1
   30    29    31    1
   31    31    32    1
   32     3    33    1
   33    29    33    1
   34    33    34    1
   35    33    35    1
   36    35    36    1
   37    22    37    1
   38    35    37    1
   39    35    38    1
   40    38    39    1
   41    38    40    1
   42    38    41    1
   43    41    42    1
   44    43    44    1
   45    43    45    1
   46    43    46    1
   47    46    47    1
   48    46    48    1
   49    48    49    1
   50    46    50    1
   51    50    51    1
   52    50    52    1
   53    52    53    1
   54    24    54    1
   55    50    54    1
   56    54    55    1
   57    54    56    1
   58    56    57    1
   59    43    58    1
   60    56    58    1
   61    56    59    1
   62    59    60    1
   63    59    61    1
   64    59    62    1
   65    62    63    1
   66    64    65    1
   67    64    66    1
   68    64    67    1
   69    67    68    1
   70    67    69    1
   71    69    70    1
   72    67    71    1
   73    71    72    1
   74    71    73    1
   75    73    74    1
   76    45    75    1
   77    71    75    1
   78    75    76    1
   79    75    77    1
   80    77    78    1
   81    64    79    1
   82    77    79    1
   83    77    80    1
   84    80    81    1
   85    80    82    1
   86    80    83    1
   87    83    84    1
   88    85    86    1
   89    85    87    1
   90    85    88    1
   91    88    89    1
   92    88    90    1
   93    90    91    1
   94    88    92    1
   95    92    93    1
   96    92    94    1
   97    94    95    1
   98    66    96    1
   99    92    96    1
  100    96    97    1
  101    96    98    1
  102    98    99    1
  103    85   100    1
  104    98   100    1
  105    98   101    1
  106   101   102    1
  107   101   103    1
  108   101   104    1
  109   104   105    1
  110   106   107    1
  111    12   108    1
  112   106   108    1
  113   106   109    1
  114   109   110    1
  115   109   111    1
  116   111   112    1
  117   109   113    1
  118   113   114    1
  119   113   115    1
  120   115   116    1
  121    87   117    1
  122   113   117    1
  123   117   118    1
  124   117   119    1
  125   119   120    1
  126   106   121    1
  127   119   121    1
  128   119   122    1
  129   122   123    1
  130   122   124    1
  131   122   125    1
  132   125   126    1
@<TRIPOS>SUBSTRUCTURE
       1 MOL1            1 RESIDUE      1      MOL     
@<SCITEGIC>MOL_PROPERTY
VM2 Rank
SciTegic.value.IntegerValue
1

@<SCITEGIC>MOL_PROPERTY
Conf_Id
SciTegic.value.IntegerValue
9793

@<SCITEGIC>MOL_PROPERTY
Probability
SciTegic.value.DoubleValue
2.33

@<SCITEGIC>MOL_PROPERTY
Sum Probability
SciTegic.value.DoubleValue
2.33

@<SCITEGIC>MOL_PROPERTY
Delta G
SciTegic.value.DoubleValue
0.000

@<SCITEGIC>MOL_PROPERTY
G
SciTegic.value.DoubleValue
522.287

@<SCITEGIC>MOL_PROPERTY
E
SciTegic.value.DoubleValue
363.386

@<SCITEGIC>MOL_PROPERTY
-TS
SciTegic.value.DoubleValue
158.901

@<SCITEGIC>MOL_PROPERTY
U+W
SciTegic.value.DoubleValue
252.500

@<SCITEGIC>MOL_PROPERTY
U
SciTegic.value.DoubleValue
288.668

@<SCITEGIC>MOL_PROPERTY
W
SciTegic.value.DoubleValue
-36.168

@<SCITEGIC>MOL_PROPERTY
W(PB)
SciTegic.value.DoubleValue
-42.071

@<SCITEGIC>MOL_PROPERTY
W(SA)
SciTegic.value.DoubleValue
5.903

@<SCITEGIC>MOL_PROPERTY
Valence
SciTegic.value.DoubleValue
132.706

@<SCITEGIC>MOL_PROPERTY
Coulomb
SciTegic.value.DoubleValue
165.278

@<SCITEGIC>MOL_PROPERTY
VdW
SciTegic.value.DoubleValue
-9.316

@<SCITEGIC>MOL_PROPERTY
VdW6
SciTegic.value.DoubleValue
-143.640

@<SCITEGIC>MOL_PROPERTY
VdW12
SciTegic.value.DoubleValue
134.324

@<SCITEGIC>MOL_PROPERTY
Bond
SciTegic.value.DoubleValue
4.988

@<SCITEGIC>MOL_PROPERTY
Angle
SciTegic.value.DoubleValue
14.686

@<SCITEGIC>MOL_PROPERTY
Pdih
SciTegic.value.DoubleValue
113.032

@<SCITEGIC>MOL_PROPERTY
Idih
SciTegic.value.DoubleValue
0.000

@<SCITEGIC>MOL_PROPERTY
Tether
SciTegic.value.DoubleValue
0.000

