@<TRIPOS>MOLECULE
guest-s19_confgen4.mol2 : confsearch ligand conformer 1
          17          16           1
SMALL
USER_CHARGES
 
@<TRIPOS>ATOM
       1    C1      19.772539   19.078628   25.279184 C.2        1 MOL1         0.6173
       2    O1      19.319872   19.920333   26.030402 O.co2      1 MOL1        -0.6755
       3    O2      20.445948   18.141825   25.665597 O.co2      1 MOL1        -0.6755
       4    C2      19.475302   19.220903   23.828125 C.2        1 MOL1        -0.1504
       5    H1      18.868590   20.079630   23.549924 H          1 MOL1         0.0814
       6    C3      19.914123   18.360974   22.881001 C.2        1 MOL1        -0.1394
       7    H2      20.524603   17.498662   23.148402 H          1 MOL1         0.0817
       8    C4      19.609118   18.514115   21.406973 C.3        1 MOL1        -0.1849
       9    H3      18.579616   18.872791   21.271750 H          1 MOL1         0.0736
      10    H4      19.665288   17.533252   20.915915 H          1 MOL1         0.0736
      11    C5      20.593215   19.488435   20.727805 C.3        1 MOL1        -0.1866
      12    H5      20.535210   20.471579   21.215271 H          1 MOL1         0.0738
      13    H6      21.621996   19.126504   20.862650 H          1 MOL1         0.0738
      14    C6      20.294884   19.642786   19.222913 C.3        1 MOL1        -0.2879
      15    H7      20.377404   18.678241   18.704962 H          1 MOL1         0.0750
      16    H8      19.281544   20.033264   19.061345 H          1 MOL1         0.0750
      17    H9      21.004501   20.339114   18.757400 H          1 MOL1         0.0750
@<TRIPOS>BOND
    1     1     2    1
    2     1     3    2
    3     1     4    1
    4     4     5    1
    5     4     6    2
    6     6     7    1
    7     6     8    1
    8     8     9    1
    9     8    10    1
   10     8    11    1
   11    11    12    1
   12    11    13    1
   13    11    14    1
   14    14    15    1
   15    14    16    1
   16    14    17    1
@<TRIPOS>SUBSTRUCTURE
       1 MOL1            1 RESIDUE      1      MOL     
@<SCITEGIC>MOL_PROPERTY
VConf Rank
SciTegic.value.IntegerValue
1

@<SCITEGIC>MOL_PROPERTY
Conf_Id
SciTegic.value.IntegerValue
36

@<SCITEGIC>MOL_PROPERTY
Delta U+W
SciTegic.value.DoubleValue
0.000

@<SCITEGIC>MOL_PROPERTY
U+W
SciTegic.value.DoubleValue
-53.409

@<SCITEGIC>MOL_PROPERTY
Grad RMS
SciTegic.value.DoubleValue
0.000000

@<SCITEGIC>MOL_PROPERTY
U
SciTegic.value.DoubleValue
9.048

@<SCITEGIC>MOL_PROPERTY
W
SciTegic.value.DoubleValue
-62.457

@<SCITEGIC>MOL_PROPERTY
W(PB)
SciTegic.value.DoubleValue
-64.540

@<SCITEGIC>MOL_PROPERTY
W(SA)
SciTegic.value.DoubleValue
2.084

@<SCITEGIC>MOL_PROPERTY
Valence
SciTegic.value.DoubleValue
2.652

@<SCITEGIC>MOL_PROPERTY
Coulomb
SciTegic.value.DoubleValue
5.578

@<SCITEGIC>MOL_PROPERTY
VdW
SciTegic.value.DoubleValue
0.818

@<SCITEGIC>MOL_PROPERTY
VdW6
SciTegic.value.DoubleValue
-4.534

@<SCITEGIC>MOL_PROPERTY
VdW12
SciTegic.value.DoubleValue
5.352

@<SCITEGIC>MOL_PROPERTY
Bond
SciTegic.value.DoubleValue
0.063

@<SCITEGIC>MOL_PROPERTY
Angle
SciTegic.value.DoubleValue
2.579

@<SCITEGIC>MOL_PROPERTY
Pdih
SciTegic.value.DoubleValue
0.010

@<SCITEGIC>MOL_PROPERTY
Idih
SciTegic.value.DoubleValue
0.000

@<SCITEGIC>MOL_PROPERTY
Tether
SciTegic.value.DoubleValue
0.000

@<TRIPOS>MOLECULE
guest-s19_confgen4.mol2 : confsearch ligand conformer 2
          17          16           1
SMALL
USER_CHARGES
 
@<TRIPOS>ATOM
       1    C1      19.927535   18.897956   25.279918 C.2        1 MOL1         0.6173
       2    O1      19.102312   19.707721   25.658970 O.co2      1 MOL1        -0.6755
       3    O2      20.687477   18.326241   26.037108 O.co2      1 MOL1        -0.6755
       4    C2      20.029151   18.575635   23.830799 C.2        1 MOL1        -0.1504
       5    H1      20.786819   17.844102   23.559307 H          1 MOL1         0.0814
       6    C3      19.249864   19.135424   22.877681 C.2        1 MOL1        -0.1394
       7    H2      18.489142   19.871039   23.138349 H          1 MOL1         0.0817
       8    C4      19.360942   18.803421   21.405719 C.3        1 MOL1        -0.1849
       9    H3      18.402304   19.006398   20.909531 H          1 MOL1         0.0736
      10    H4      19.558656   17.730555   21.276596 H          1 MOL1         0.0736
      11    C5      20.477108   19.623754   20.727306 C.3        1 MOL1        -0.1866
      12    H5      20.276002   20.696404   20.855935 H          1 MOL1         0.0738
      13    H6      21.437728   19.418694   21.219973 H          1 MOL1         0.0738
      14    C6      20.590611   19.297847   19.224499 C.3        1 MOL1        -0.2879
      15    H7      19.652208   19.524006   18.701352 H          1 MOL1         0.0750
      16    H8      21.389095   19.890545   18.759460 H          1 MOL1         0.0750
      17    H9      20.822536   18.235989   19.069241 H          1 MOL1         0.0750
@<TRIPOS>BOND
    1     1     2    1
    2     1     3    2
    3     1     4    1
    4     4     5    1
    5     4     6    2
    6     6     7    1
    7     6     8    1
    8     8     9    1
    9     8    10    1
   10     8    11    1
   11    11    12    1
   12    11    13    1
   13    11    14    1
   14    14    15    1
   15    14    16    1
   16    14    17    1
@<TRIPOS>SUBSTRUCTURE
       1 MOL1            1 RESIDUE      1      MOL     
@<SCITEGIC>MOL_PROPERTY
VConf Rank
SciTegic.value.IntegerValue
2

@<SCITEGIC>MOL_PROPERTY
Conf_Id
SciTegic.value.IntegerValue
1

@<SCITEGIC>MOL_PROPERTY
Delta U+W
SciTegic.value.DoubleValue
0.030

@<SCITEGIC>MOL_PROPERTY
U+W
SciTegic.value.DoubleValue
-53.378

@<SCITEGIC>MOL_PROPERTY
Grad RMS
SciTegic.value.DoubleValue
0.000000

@<SCITEGIC>MOL_PROPERTY
U
SciTegic.value.DoubleValue
9.048

@<SCITEGIC>MOL_PROPERTY
W
SciTegic.value.DoubleValue
-62.426

@<SCITEGIC>MOL_PROPERTY
W(PB)
SciTegic.value.DoubleValue
-64.506

@<SCITEGIC>MOL_PROPERTY
W(SA)
SciTegic.value.DoubleValue
2.080

@<SCITEGIC>MOL_PROPERTY
Valence
SciTegic.value.DoubleValue
2.652

@<SCITEGIC>MOL_PROPERTY
Coulomb
SciTegic.value.DoubleValue
5.578

@<SCITEGIC>MOL_PROPERTY
VdW
SciTegic.value.DoubleValue
0.818

@<SCITEGIC>MOL_PROPERTY
VdW6
SciTegic.value.DoubleValue
-4.535

@<SCITEGIC>MOL_PROPERTY
VdW12
SciTegic.value.DoubleValue
5.352

@<SCITEGIC>MOL_PROPERTY
Bond
SciTegic.value.DoubleValue
0.063

@<SCITEGIC>MOL_PROPERTY
Angle
SciTegic.value.DoubleValue
2.579

@<SCITEGIC>MOL_PROPERTY
Pdih
SciTegic.value.DoubleValue
0.010

@<SCITEGIC>MOL_PROPERTY
Idih
SciTegic.value.DoubleValue
0.000

@<SCITEGIC>MOL_PROPERTY
Tether
SciTegic.value.DoubleValue
0.000

@<TRIPOS>MOLECULE
guest-s19_confgen4.mol2 : confsearch ligand conformer 3
          17          16           1
SMALL
USER_CHARGES
 
@<TRIPOS>ATOM
       1    C1      19.611904   18.998883   25.104601 C.2        1 MOL1         0.6173
       2    O1      20.049555   20.090808   25.415408 O.co2      1 MOL1        -0.6755
       3    O2      18.930471   18.324100   25.851680 O.co2      1 MOL1        -0.6755
       4    C2      19.913074   18.442066   23.757997 C.2        1 MOL1        -0.1504
       5    H1      19.492539   17.462077   23.544611 H          1 MOL1         0.0814
       6    C3      20.655802   19.082284   22.826621 C.2        1 MOL1        -0.1394
       7    H2      21.079103   20.065951   23.028645 H          1 MOL1         0.0817
       8    C4      20.954926   18.510898   21.456564 C.3        1 MOL1        -0.1849
       9    H3      21.169588   17.437223   21.544138 H          1 MOL1         0.0736
      10    H4      21.864814   18.972885   21.050406 H          1 MOL1         0.0736
      11    C5      19.786585   18.714492   20.467073 C.3        1 MOL1        -0.1866
      12    H5      20.015317   18.190897   19.528626 H          1 MOL1         0.0738
      13    H6      18.874911   18.252154   20.870213 H          1 MOL1         0.0738
      14    C6      19.522683   20.204469   20.162056 C.3        1 MOL1        -0.2879
      15    H7      20.417830   20.684621   19.745749 H          1 MOL1         0.0750
      16    H8      18.710267   20.310791   19.431588 H          1 MOL1         0.0750
      17    H9      19.232186   20.749199   21.069857 H          1 MOL1         0.0750
@<TRIPOS>BOND
    1     1     2    1
    2     1     3    2
    3     1     4    1
    4     4     5    1
    5     4     6    2
    6     6     7    1
    7     6     8    1
    8     8     9    1
    9     8    10    1
   10     8    11    1
   11    11    12    1
   12    11    13    1
   13    11    14    1
   14    14    15    1
   15    14    16    1
   16    14    17    1
@<TRIPOS>SUBSTRUCTURE
       1 MOL1            1 RESIDUE      1      MOL     
@<SCITEGIC>MOL_PROPERTY
VConf Rank
SciTegic.value.IntegerValue
3

@<SCITEGIC>MOL_PROPERTY
Conf_Id
SciTegic.value.IntegerValue
3

@<SCITEGIC>MOL_PROPERTY
Delta U+W
SciTegic.value.DoubleValue
0.531

@<SCITEGIC>MOL_PROPERTY
U+W
SciTegic.value.DoubleValue
-52.878

@<SCITEGIC>MOL_PROPERTY
Grad RMS
SciTegic.value.DoubleValue
0.000000

@<SCITEGIC>MOL_PROPERTY
U
SciTegic.value.DoubleValue
10.067

@<SCITEGIC>MOL_PROPERTY
W
SciTegic.value.DoubleValue
-62.945

@<SCITEGIC>MOL_PROPERTY
W(PB)
SciTegic.value.DoubleValue
-64.982

@<SCITEGIC>MOL_PROPERTY
W(SA)
SciTegic.value.DoubleValue
2.037

@<SCITEGIC>MOL_PROPERTY
Valence
SciTegic.value.DoubleValue
2.779

@<SCITEGIC>MOL_PROPERTY
Coulomb
SciTegic.value.DoubleValue
6.474

@<SCITEGIC>MOL_PROPERTY
VdW
SciTegic.value.DoubleValue
0.815

@<SCITEGIC>MOL_PROPERTY
VdW6
SciTegic.value.DoubleValue
-5.088

@<SCITEGIC>MOL_PROPERTY
VdW12
SciTegic.value.DoubleValue
5.902

@<SCITEGIC>MOL_PROPERTY
Bond
SciTegic.value.DoubleValue
0.078

@<SCITEGIC>MOL_PROPERTY
Angle
SciTegic.value.DoubleValue
2.651

@<SCITEGIC>MOL_PROPERTY
Pdih
SciTegic.value.DoubleValue
0.050

@<SCITEGIC>MOL_PROPERTY
Idih
SciTegic.value.DoubleValue
0.000

@<SCITEGIC>MOL_PROPERTY
Tether
SciTegic.value.DoubleValue
0.000

@<TRIPOS>MOLECULE
guest-s19_confgen4.mol2 : confsearch ligand conformer 4
          17          16           1
SMALL
USER_CHARGES
 
@<TRIPOS>ATOM
       1    C1      19.830484   19.191591   25.091261 C.2        1 MOL1         0.6173
       2    O1      19.314829   20.019598   25.816717 O.co2      1 MOL1        -0.6755
       3    O2      20.695291   18.425785   25.473487 O.co2      1 MOL1        -0.6755
       4    C2      19.364612   19.129281   23.679470 C.2        1 MOL1        -0.1504
       5    H1      18.590099   19.841355   23.404178 H          1 MOL1         0.0814
       6    C3      19.850704   18.261148   22.763150 C.2        1 MOL1        -0.1394
       7    H2      20.629355   17.546841   23.029585 H          1 MOL1         0.0817
       8    C4      19.376333   18.201985   21.325858 C.3        1 MOL1        -0.1849
       9    H3      18.411369   18.715316   21.215971 H          1 MOL1         0.0736
      10    H4      19.197715   17.154054   21.050275 H          1 MOL1         0.0736
      11    C5      20.402227   18.810003   20.344522 C.3        1 MOL1        -0.1866
      12    H5      21.368564   18.298826   20.455653 H          1 MOL1         0.0738
      13    H6      20.066238   18.625489   19.314831 H          1 MOL1         0.0738
      14    C6      20.590518   20.328609   20.547535 C.3        1 MOL1        -0.2879
      15    H7      20.987946   20.548412   21.546931 H          1 MOL1         0.0750
      16    H8      21.295242   20.732365   19.809151 H          1 MOL1         0.0750
      17    H9      19.637352   20.861062   20.433256 H          1 MOL1         0.0750
@<TRIPOS>BOND
    1     1     2    1
    2     1     3    2
    3     1     4    1
    4     4     5    1
    5     4     6    2
    6     6     7    1
    7     6     8    1
    8     8     9    1
    9     8    10    1
   10     8    11    1
   11    11    12    1
   12    11    13    1
   13    11    14    1
   14    14    15    1
   15    14    16    1
   16    14    17    1
@<TRIPOS>SUBSTRUCTURE
       1 MOL1            1 RESIDUE      1      MOL     
@<SCITEGIC>MOL_PROPERTY
VConf Rank
SciTegic.value.IntegerValue
4

@<SCITEGIC>MOL_PROPERTY
Conf_Id
SciTegic.value.IntegerValue
45

@<SCITEGIC>MOL_PROPERTY
Delta U+W
SciTegic.value.DoubleValue
0.562

@<SCITEGIC>MOL_PROPERTY
U+W
SciTegic.value.DoubleValue
-52.846

@<SCITEGIC>MOL_PROPERTY
Grad RMS
SciTegic.value.DoubleValue
0.000000

@<SCITEGIC>MOL_PROPERTY
U
SciTegic.value.DoubleValue
10.243

@<SCITEGIC>MOL_PROPERTY
W
SciTegic.value.DoubleValue
-63.089

@<SCITEGIC>MOL_PROPERTY
W(PB)
SciTegic.value.DoubleValue
-65.116

@<SCITEGIC>MOL_PROPERTY
W(SA)
SciTegic.value.DoubleValue
2.026

@<SCITEGIC>MOL_PROPERTY
Valence
SciTegic.value.DoubleValue
2.822

@<SCITEGIC>MOL_PROPERTY
Coulomb
SciTegic.value.DoubleValue
6.637

@<SCITEGIC>MOL_PROPERTY
VdW
SciTegic.value.DoubleValue
0.785

@<SCITEGIC>MOL_PROPERTY
VdW6
SciTegic.value.DoubleValue
-5.216

@<SCITEGIC>MOL_PROPERTY
VdW12
SciTegic.value.DoubleValue
6.001

@<SCITEGIC>MOL_PROPERTY
Bond
SciTegic.value.DoubleValue
0.080

@<SCITEGIC>MOL_PROPERTY
Angle
SciTegic.value.DoubleValue
2.678

@<SCITEGIC>MOL_PROPERTY
Pdih
SciTegic.value.DoubleValue
0.064

@<SCITEGIC>MOL_PROPERTY
Idih
SciTegic.value.DoubleValue
0.000

@<SCITEGIC>MOL_PROPERTY
Tether
SciTegic.value.DoubleValue
0.000

@<TRIPOS>MOLECULE
guest-s19_confgen4.mol2 : confsearch ligand conformer 5
          17          16           1
SMALL
USER_CHARGES
 
@<TRIPOS>ATOM
       1    C1      20.438680   16.581688   24.092520 C.2        1 MOL1         0.6173
       2    O1      20.200434   15.397694   23.954312 O.co2      1 MOL1        -0.6755
       3    O2      20.683948   17.084474   25.173003 O.co2      1 MOL1        -0.6755
       4    C2      20.425325   17.432730   22.871983 C.2        1 MOL1        -0.1504
       5    H1      20.199241   16.921191   21.939179 H          1 MOL1         0.0814
       6    C3      20.670776   18.762694   22.877738 C.2        1 MOL1        -0.1394
       7    H2      20.896011   19.285659   23.807012 H          1 MOL1         0.0817
       8    C4      20.653087   19.621414   21.632135 C.3        1 MOL1        -0.1849
       9    H3      21.089988   19.069132   20.788980 H          1 MOL1         0.0736
      10    H4      21.284678   20.506626   21.786667 H          1 MOL1         0.0736
      11    C5      19.219599   20.065902   21.276389 C.3        1 MOL1        -0.1866
      12    H5      18.587336   19.181312   21.117315 H          1 MOL1         0.0738
      13    H6      18.785515   20.619795   22.120392 H          1 MOL1         0.0738
      14    C6      19.194014   20.949554   20.013048 C.3        1 MOL1        -0.2879
      15    H7      19.793596   21.858015   20.156683 H          1 MOL1         0.0750
      16    H8      19.594754   20.407579   19.146383 H          1 MOL1         0.0750
      17    H9      18.166770   21.255580   19.775880 H          1 MOL1         0.0750
@<TRIPOS>BOND
    1     1     2    1
    2     1     3    2
    3     1     4    1
    4     4     5    1
    5     4     6    2
    6     6     7    1
    7     6     8    1
    8     8     9    1
    9     8    10    1
   10     8    11    1
   11    11    12    1
   12    11    13    1
   13    11    14    1
   14    14    15    1
   15    14    16    1
   16    14    17    1
@<TRIPOS>SUBSTRUCTURE
       1 MOL1            1 RESIDUE      1      MOL     
@<SCITEGIC>MOL_PROPERTY
VConf Rank
SciTegic.value.IntegerValue
5

@<SCITEGIC>MOL_PROPERTY
Conf_Id
SciTegic.value.IntegerValue
36

@<SCITEGIC>MOL_PROPERTY
Delta U+W
SciTegic.value.DoubleValue
0.000

@<SCITEGIC>MOL_PROPERTY
U+W
SciTegic.value.DoubleValue
-53.409

@<SCITEGIC>MOL_PROPERTY
Grad RMS
SciTegic.value.DoubleValue
0.000000

@<SCITEGIC>MOL_PROPERTY
U
SciTegic.value.DoubleValue
9.048

@<SCITEGIC>MOL_PROPERTY
W
SciTegic.value.DoubleValue
-62.457

@<SCITEGIC>MOL_PROPERTY
W(PB)
SciTegic.value.DoubleValue
-64.540

@<SCITEGIC>MOL_PROPERTY
W(SA)
SciTegic.value.DoubleValue
2.084

@<SCITEGIC>MOL_PROPERTY
Valence
SciTegic.value.DoubleValue
2.652

@<SCITEGIC>MOL_PROPERTY
Coulomb
SciTegic.value.DoubleValue
5.578

@<SCITEGIC>MOL_PROPERTY
VdW
SciTegic.value.DoubleValue
0.818

@<SCITEGIC>MOL_PROPERTY
VdW6
SciTegic.value.DoubleValue
-4.534

@<SCITEGIC>MOL_PROPERTY
VdW12
SciTegic.value.DoubleValue
5.352

@<SCITEGIC>MOL_PROPERTY
Bond
SciTegic.value.DoubleValue
0.063

@<SCITEGIC>MOL_PROPERTY
Angle
SciTegic.value.DoubleValue
2.579

@<SCITEGIC>MOL_PROPERTY
Pdih
SciTegic.value.DoubleValue
0.010

@<SCITEGIC>MOL_PROPERTY
Idih
SciTegic.value.DoubleValue
0.000

@<SCITEGIC>MOL_PROPERTY
Tether
SciTegic.value.DoubleValue
0.000

@<TRIPOS>MOLECULE
guest-s19_confgen4.mol2 : confsearch ligand conformer 6
          17          16           1
SMALL
USER_CHARGES
 
@<TRIPOS>ATOM
       1    C1      21.653602   21.336505   23.826079 C.2        1 MOL1         0.6173
       2    O1      20.814755   21.907160   24.497705 O.co2      1 MOL1        -0.6755
       3    O2      22.808072   21.710397   23.754608 O.co2      1 MOL1        -0.6755
       4    C2      21.274105   20.124707   23.050391 C.2        1 MOL1        -0.1504
       5    H1      22.070775   19.662926   22.471612 H          1 MOL1         0.0814
       6    C3      20.028309   19.598521   23.036010 C.2        1 MOL1        -0.1394
       7    H2      19.222147   20.054424   23.610490 H          1 MOL1         0.0817
       8    C4      19.650234   18.366771   22.242859 C.3        1 MOL1        -0.1849
       9    H3      18.777771   17.885314   22.704806 H          1 MOL1         0.0736
      10    H4      20.466840   17.632750   22.277116 H          1 MOL1         0.0736
      11    C5      19.328686   18.719629   20.776190 C.3        1 MOL1        -0.1866
      12    H5      18.510246   19.452237   20.744470 H          1 MOL1         0.0738
      13    H6      20.202067   19.197769   20.311273 H          1 MOL1         0.0738
      14    C6      18.933335   17.470561   19.963139 C.3        1 MOL1        -0.2879
      15    H7      18.042331   16.990468   20.388643 H          1 MOL1         0.0750
      16    H8      18.708395   17.741204   18.923291 H          1 MOL1         0.0750
      17    H9      19.747820   16.734389   19.953062 H          1 MOL1         0.0750
@<TRIPOS>BOND
    1     1     2    1
    2     1     3    2
    3     1     4    1
    4     4     5    1
    5     4     6    2
    6     6     7    1
    7     6     8    1
    8     8     9    1
    9     8    10    1
   10     8    11    1
   11    11    12    1
   12    11    13    1
   13    11    14    1
   14    14    15    1
   15    14    16    1
   16    14    17    1
@<TRIPOS>SUBSTRUCTURE
       1 MOL1            1 RESIDUE      1      MOL     
@<SCITEGIC>MOL_PROPERTY
VConf Rank
SciTegic.value.IntegerValue
6

@<SCITEGIC>MOL_PROPERTY
Conf_Id
SciTegic.value.IntegerValue
1

@<SCITEGIC>MOL_PROPERTY
Delta U+W
SciTegic.value.DoubleValue
0.030

@<SCITEGIC>MOL_PROPERTY
U+W
SciTegic.value.DoubleValue
-53.378

@<SCITEGIC>MOL_PROPERTY
Grad RMS
SciTegic.value.DoubleValue
0.000000

@<SCITEGIC>MOL_PROPERTY
U
SciTegic.value.DoubleValue
9.048

@<SCITEGIC>MOL_PROPERTY
W
SciTegic.value.DoubleValue
-62.426

@<SCITEGIC>MOL_PROPERTY
W(PB)
SciTegic.value.DoubleValue
-64.506

@<SCITEGIC>MOL_PROPERTY
W(SA)
SciTegic.value.DoubleValue
2.080

@<SCITEGIC>MOL_PROPERTY
Valence
SciTegic.value.DoubleValue
2.652

@<SCITEGIC>MOL_PROPERTY
Coulomb
SciTegic.value.DoubleValue
5.578

@<SCITEGIC>MOL_PROPERTY
VdW
SciTegic.value.DoubleValue
0.818

@<SCITEGIC>MOL_PROPERTY
VdW6
SciTegic.value.DoubleValue
-4.535

@<SCITEGIC>MOL_PROPERTY
VdW12
SciTegic.value.DoubleValue
5.352

@<SCITEGIC>MOL_PROPERTY
Bond
SciTegic.value.DoubleValue
0.063

@<SCITEGIC>MOL_PROPERTY
Angle
SciTegic.value.DoubleValue
2.579

@<SCITEGIC>MOL_PROPERTY
Pdih
SciTegic.value.DoubleValue
0.010

@<SCITEGIC>MOL_PROPERTY
Idih
SciTegic.value.DoubleValue
0.000

@<SCITEGIC>MOL_PROPERTY
Tether
SciTegic.value.DoubleValue
0.000

@<TRIPOS>MOLECULE
guest-s19_confgen4.mol2 : confsearch ligand conformer 7
          17          16           1
SMALL
USER_CHARGES
 
@<TRIPOS>ATOM
       1    C1      18.455682   21.512668   23.138539 C.2        1 MOL1         0.6173
       2    O1      19.374654   22.268510   23.392774 O.co2      1 MOL1        -0.6755
       3    O2      17.299502   21.880958   23.064912 O.co2      1 MOL1        -0.6755
       4    C2      18.733291   20.069255   22.907053 C.2        1 MOL1        -0.1504
       5    H1      17.867886   19.448970   22.685511 H          1 MOL1         0.0814
       6    C3      19.969120   19.522166   22.956104 C.2        1 MOL1        -0.1394
       7    H2      20.843519   20.135030   23.173868 H          1 MOL1         0.0817
       8    C4      20.244452   18.052699   22.715538 C.3        1 MOL1        -0.1849
       9    H3      19.464446   17.448071   23.197764 H          1 MOL1         0.0736
      10    H4      21.191627   17.767748   23.192986 H          1 MOL1         0.0736
      11    C5      20.298533   17.703417   21.211995 C.3        1 MOL1        -0.1866
      12    H5      20.394522   16.614720   21.099398 H          1 MOL1         0.0738
      13    H6      19.351568   17.986285   20.731712 H          1 MOL1         0.0738
      14    C6      21.474948   18.391234   20.486967 C.3        1 MOL1        -0.2879
      15    H7      22.434002   18.112654   20.942769 H          1 MOL1         0.0750
      16    H8      21.503154   18.095164   19.430343 H          1 MOL1         0.0750
      17    H9      21.380652   19.484248   20.527597 H          1 MOL1         0.0750
@<TRIPOS>BOND
    1     1     2    1
    2     1     3    2
    3     1     4    1
    4     4     5    1
    5     4     6    2
    6     6     7    1
    7     6     8    1
    8     8     9    1
    9     8    10    1
   10     8    11    1
   11    11    12    1
   12    11    13    1
   13    11    14    1
   14    14    15    1
   15    14    16    1
   16    14    17    1
@<TRIPOS>SUBSTRUCTURE
       1 MOL1            1 RESIDUE      1      MOL     
@<SCITEGIC>MOL_PROPERTY
VConf Rank
SciTegic.value.IntegerValue
7

@<SCITEGIC>MOL_PROPERTY
Conf_Id
SciTegic.value.IntegerValue
3

@<SCITEGIC>MOL_PROPERTY
Delta U+W
SciTegic.value.DoubleValue
0.531

@<SCITEGIC>MOL_PROPERTY
U+W
SciTegic.value.DoubleValue
-52.878

@<SCITEGIC>MOL_PROPERTY
Grad RMS
SciTegic.value.DoubleValue
0.000000

@<SCITEGIC>MOL_PROPERTY
U
SciTegic.value.DoubleValue
10.067

@<SCITEGIC>MOL_PROPERTY
W
SciTegic.value.DoubleValue
-62.945

@<SCITEGIC>MOL_PROPERTY
W(PB)
SciTegic.value.DoubleValue
-64.982

@<SCITEGIC>MOL_PROPERTY
W(SA)
SciTegic.value.DoubleValue
2.037

@<SCITEGIC>MOL_PROPERTY
Valence
SciTegic.value.DoubleValue
2.779

@<SCITEGIC>MOL_PROPERTY
Coulomb
SciTegic.value.DoubleValue
6.474

@<SCITEGIC>MOL_PROPERTY
VdW
SciTegic.value.DoubleValue
0.815

@<SCITEGIC>MOL_PROPERTY
VdW6
SciTegic.value.DoubleValue
-5.088

@<SCITEGIC>MOL_PROPERTY
VdW12
SciTegic.value.DoubleValue
5.902

@<SCITEGIC>MOL_PROPERTY
Bond
SciTegic.value.DoubleValue
0.078

@<SCITEGIC>MOL_PROPERTY
Angle
SciTegic.value.DoubleValue
2.651

@<SCITEGIC>MOL_PROPERTY
Pdih
SciTegic.value.DoubleValue
0.050

@<SCITEGIC>MOL_PROPERTY
Idih
SciTegic.value.DoubleValue
0.000

@<SCITEGIC>MOL_PROPERTY
Tether
SciTegic.value.DoubleValue
0.000

@<TRIPOS>MOLECULE
guest-s19_confgen4.mol2 : confsearch ligand conformer 8
          17          16           1
SMALL
USER_CHARGES
 
@<TRIPOS>ATOM
       1    C1      22.381059   18.839376   23.885183 C.2        1 MOL1         0.6173
       2    O1      22.433124   18.751941   25.096556 O.co2      1 MOL1        -0.6755
       3    O2      23.326669   19.195964   23.207603 O.co2      1 MOL1        -0.6755
       4    C2      21.094991   18.486448   23.225226 C.2        1 MOL1        -0.1504
       5    H1      20.291358   18.175949   23.888905 H          1 MOL1         0.0814
       6    C3      20.894365   18.539790   21.888630 C.2        1 MOL1        -0.1394
       7    H2      21.693019   18.853323   21.216791 H          1 MOL1         0.0817
       8    C4      19.583055   18.182500   21.219940 C.3        1 MOL1        -0.1849
       9    H3      18.948286   17.599396   21.900967 H          1 MOL1         0.0736
      10    H4      19.785511   17.531551   20.358960 H          1 MOL1         0.0736
      11    C5      18.813629   19.430415   20.734285 C.3        1 MOL1        -0.1866
      12    H5      19.448862   20.015692   20.055029 H          1 MOL1         0.0738
      13    H6      17.941450   19.108410   20.148782 H          1 MOL1         0.0738
      14    C6      18.335529   20.323865   21.898758 C.3        1 MOL1        -0.2879
      15    H7      19.185700   20.718379   22.470267 H          1 MOL1         0.0750
      16    H8      17.760296   21.178095   21.518935 H          1 MOL1         0.0750
      17    H9      17.691976   19.760629   22.587014 H          1 MOL1         0.0750
@<TRIPOS>BOND
    1     1     2    1
    2     1     3    2
    3     1     4    1
    4     4     5    1
    5     4     6    2
    6     6     7    1
    7     6     8    1
    8     8     9    1
    9     8    10    1
   10     8    11    1
   11    11    12    1
   12    11    13    1
   13    11    14    1
   14    14    15    1
   15    14    16    1
   16    14    17    1
@<TRIPOS>SUBSTRUCTURE
       1 MOL1            1 RESIDUE      1      MOL     
@<SCITEGIC>MOL_PROPERTY
VConf Rank
SciTegic.value.IntegerValue
8

@<SCITEGIC>MOL_PROPERTY
Conf_Id
SciTegic.value.IntegerValue
45

@<SCITEGIC>MOL_PROPERTY
Delta U+W
SciTegic.value.DoubleValue
0.562

@<SCITEGIC>MOL_PROPERTY
U+W
SciTegic.value.DoubleValue
-52.846

@<SCITEGIC>MOL_PROPERTY
Grad RMS
SciTegic.value.DoubleValue
0.000000

@<SCITEGIC>MOL_PROPERTY
U
SciTegic.value.DoubleValue
10.243

@<SCITEGIC>MOL_PROPERTY
W
SciTegic.value.DoubleValue
-63.089

@<SCITEGIC>MOL_PROPERTY
W(PB)
SciTegic.value.DoubleValue
-65.116

@<SCITEGIC>MOL_PROPERTY
W(SA)
SciTegic.value.DoubleValue
2.026

@<SCITEGIC>MOL_PROPERTY
Valence
SciTegic.value.DoubleValue
2.822

@<SCITEGIC>MOL_PROPERTY
Coulomb
SciTegic.value.DoubleValue
6.637

@<SCITEGIC>MOL_PROPERTY
VdW
SciTegic.value.DoubleValue
0.785

@<SCITEGIC>MOL_PROPERTY
VdW6
SciTegic.value.DoubleValue
-5.216

@<SCITEGIC>MOL_PROPERTY
VdW12
SciTegic.value.DoubleValue
6.001

@<SCITEGIC>MOL_PROPERTY
Bond
SciTegic.value.DoubleValue
0.080

@<SCITEGIC>MOL_PROPERTY
Angle
SciTegic.value.DoubleValue
2.678

@<SCITEGIC>MOL_PROPERTY
Pdih
SciTegic.value.DoubleValue
0.064

@<SCITEGIC>MOL_PROPERTY
Idih
SciTegic.value.DoubleValue
0.000

@<SCITEGIC>MOL_PROPERTY
Tether
SciTegic.value.DoubleValue
0.000

@<TRIPOS>MOLECULE
guest-s19_confgen4.mol2 : confsearch ligand conformer 9
          17          16           1
SMALL
USER_CHARGES
 
@<TRIPOS>ATOM
       1    C1      20.756187   20.698876   24.793729 C.2        1 MOL1         0.6173
       2    O1      21.794155   20.687049   25.426332 O.co2      1 MOL1        -0.6755
       3    O2      19.712794   21.133200   25.244382 O.co2      1 MOL1        -0.6755
       4    C2      20.788525   20.154268   23.409346 C.2        1 MOL1        -0.1504
       5    H1      21.751893   19.782310   23.068057 H          1 MOL1         0.0814
       6    C3      19.710756   20.103732   22.593904 C.2        1 MOL1        -0.1394
       7    H2      18.740242   20.471461   22.926547 H          1 MOL1         0.0817
       8    C4      19.751676   19.546221   21.187937 C.3        1 MOL1        -0.1849
       9    H3      20.694517   19.827854   20.699529 H          1 MOL1         0.0736
      10    H4      18.945059   19.993290   20.591376 H          1 MOL1         0.0736
      11    C5      19.603681   18.010932   21.187737 C.3        1 MOL1        -0.1866
      12    H5      20.412475   17.561793   21.780769 H          1 MOL1         0.0738
      13    H6      18.659036   17.731833   21.674888 H          1 MOL1         0.0738
      14    C6      19.634930   17.435656   19.757489 C.3        1 MOL1        -0.2879
      15    H7      18.815988   17.844773   19.151364 H          1 MOL1         0.0750
      16    H8      20.583340   17.674558   19.258610 H          1 MOL1         0.0750
      17    H9      19.528496   16.343229   19.777623 H          1 MOL1         0.0750
@<TRIPOS>BOND
    1     1     2    1
    2     1     3    2
    3     1     4    1
    4     4     5    1
    5     4     6    2
    6     6     7    1
    7     6     8    1
    8     8     9    1
    9     8    10    1
   10     8    11    1
   11    11    12    1
   12    11    13    1
   13    11    14    1
   14    14    15    1
   15    14    16    1
   16    14    17    1
@<TRIPOS>SUBSTRUCTURE
       1 MOL1            1 RESIDUE      1      MOL     
@<SCITEGIC>MOL_PROPERTY
VConf Rank
SciTegic.value.IntegerValue
9

@<SCITEGIC>MOL_PROPERTY
Conf_Id
SciTegic.value.IntegerValue
36

@<SCITEGIC>MOL_PROPERTY
Delta U+W
SciTegic.value.DoubleValue
0.000

@<SCITEGIC>MOL_PROPERTY
U+W
SciTegic.value.DoubleValue
-53.409

@<SCITEGIC>MOL_PROPERTY
Grad RMS
SciTegic.value.DoubleValue
0.000000

@<SCITEGIC>MOL_PROPERTY
U
SciTegic.value.DoubleValue
9.048

@<SCITEGIC>MOL_PROPERTY
W
SciTegic.value.DoubleValue
-62.457

@<SCITEGIC>MOL_PROPERTY
W(PB)
SciTegic.value.DoubleValue
-64.540

@<SCITEGIC>MOL_PROPERTY
W(SA)
SciTegic.value.DoubleValue
2.084

@<SCITEGIC>MOL_PROPERTY
Valence
SciTegic.value.DoubleValue
2.652

@<SCITEGIC>MOL_PROPERTY
Coulomb
SciTegic.value.DoubleValue
5.578

@<SCITEGIC>MOL_PROPERTY
VdW
SciTegic.value.DoubleValue
0.818

@<SCITEGIC>MOL_PROPERTY
VdW6
SciTegic.value.DoubleValue
-4.534

@<SCITEGIC>MOL_PROPERTY
VdW12
SciTegic.value.DoubleValue
5.352

@<SCITEGIC>MOL_PROPERTY
Bond
SciTegic.value.DoubleValue
0.063

@<SCITEGIC>MOL_PROPERTY
Angle
SciTegic.value.DoubleValue
2.579

@<SCITEGIC>MOL_PROPERTY
Pdih
SciTegic.value.DoubleValue
0.010

@<SCITEGIC>MOL_PROPERTY
Idih
SciTegic.value.DoubleValue
0.000

@<SCITEGIC>MOL_PROPERTY
Tether
SciTegic.value.DoubleValue
0.000

@<TRIPOS>MOLECULE
guest-s19_confgen4.mol2 : confsearch ligand conformer 10
          17          16           1
SMALL
USER_CHARGES
 
@<TRIPOS>ATOM
       1    C1      22.976810   20.705479   21.938322 C.2        1 MOL1         0.6173
       2    O1      23.801774   19.920550   22.366942 O.co2      1 MOL1        -0.6755
       3    O2      23.210526   21.887887   21.780226 O.co2      1 MOL1        -0.6755
       4    C2      21.615550   20.220306   21.583724 C.2        1 MOL1        -0.1504
       5    H1      20.926830   20.972808   21.206476 H          1 MOL1         0.0814
       6    C3      21.217430   18.933904   21.709249 C.2        1 MOL1        -0.1394
       7    H2      21.898637   18.172248   22.088207 H          1 MOL1         0.0817
       8    C4      19.830447   18.449069   21.348067 C.3        1 MOL1        -0.1849
       9    H3      19.866197   17.377881   21.107932 H          1 MOL1         0.0736
      10    H4      19.477778   18.960794   20.442215 H          1 MOL1         0.0736
      11    C5      18.834134   18.686482   22.501329 C.3        1 MOL1        -0.1866
      12    H5      19.187906   18.171932   23.405570 H          1 MOL1         0.0738
      13    H6      18.794097   19.758365   22.740125 H          1 MOL1         0.0738
      14    C6      17.419847   18.186486   22.144507 C.3        1 MOL1        -0.2879
      15    H7      17.425837   17.109380   21.931813 H          1 MOL1         0.0750
      16    H8      16.725686   18.363719   22.976288 H          1 MOL1         0.0750
      17    H9      17.030006   18.708441   21.260752 H          1 MOL1         0.0750
@<TRIPOS>BOND
    1     1     2    1
    2     1     3    2
    3     1     4    1
    4     4     5    1
    5     4     6    2
    6     6     7    1
    7     6     8    1
    8     8     9    1
    9     8    10    1
   10     8    11    1
   11    11    12    1
   12    11    13    1
   13    11    14    1
   14    14    15    1
   15    14    16    1
   16    14    17    1
@<TRIPOS>SUBSTRUCTURE
       1 MOL1            1 RESIDUE      1      MOL     
@<SCITEGIC>MOL_PROPERTY
VConf Rank
SciTegic.value.IntegerValue
10

@<SCITEGIC>MOL_PROPERTY
Conf_Id
SciTegic.value.IntegerValue
1

@<SCITEGIC>MOL_PROPERTY
Delta U+W
SciTegic.value.DoubleValue
0.030

@<SCITEGIC>MOL_PROPERTY
U+W
SciTegic.value.DoubleValue
-53.378

@<SCITEGIC>MOL_PROPERTY
Grad RMS
SciTegic.value.DoubleValue
0.000000

@<SCITEGIC>MOL_PROPERTY
U
SciTegic.value.DoubleValue
9.048

@<SCITEGIC>MOL_PROPERTY
W
SciTegic.value.DoubleValue
-62.426

@<SCITEGIC>MOL_PROPERTY
W(PB)
SciTegic.value.DoubleValue
-64.506

@<SCITEGIC>MOL_PROPERTY
W(SA)
SciTegic.value.DoubleValue
2.080

@<SCITEGIC>MOL_PROPERTY
Valence
SciTegic.value.DoubleValue
2.652

@<SCITEGIC>MOL_PROPERTY
Coulomb
SciTegic.value.DoubleValue
5.578

@<SCITEGIC>MOL_PROPERTY
VdW
SciTegic.value.DoubleValue
0.818

@<SCITEGIC>MOL_PROPERTY
VdW6
SciTegic.value.DoubleValue
-4.535

@<SCITEGIC>MOL_PROPERTY
VdW12
SciTegic.value.DoubleValue
5.352

@<SCITEGIC>MOL_PROPERTY
Bond
SciTegic.value.DoubleValue
0.063

@<SCITEGIC>MOL_PROPERTY
Angle
SciTegic.value.DoubleValue
2.579

@<SCITEGIC>MOL_PROPERTY
Pdih
SciTegic.value.DoubleValue
0.010

@<SCITEGIC>MOL_PROPERTY
Idih
SciTegic.value.DoubleValue
0.000

@<SCITEGIC>MOL_PROPERTY
Tether
SciTegic.value.DoubleValue
0.000

@<TRIPOS>MOLECULE
guest-s19_confgen4.mol2 : confsearch ligand conformer 11
          17          16           1
SMALL
USER_CHARGES
 
@<TRIPOS>ATOM
       1    C1      18.059732   18.390478   19.773367 C.2        1 MOL1         0.6173
       2    O1      18.476984   17.292908   19.454492 O.co2      1 MOL1        -0.6755
       3    O2      16.968663   18.805687   19.434279 O.co2      1 MOL1        -0.6755
       4    C2      18.904713   19.283313   20.611785 C.2        1 MOL1        -0.1504
       5    H1      18.472848   20.250076   20.860022 H          1 MOL1         0.0814
       6    C3      20.136366   18.951621   21.061228 C.2        1 MOL1        -0.1394
       7    H2      20.577223   17.984315   20.821305 H          1 MOL1         0.0817
       8    C4      20.989058   19.864148   21.917513 C.3        1 MOL1        -0.1849
       9    H3      20.905695   20.896498   21.551686 H          1 MOL1         0.0736
      10    H4      22.047400   19.588267   21.817037 H          1 MOL1         0.0736
      11    C5      20.583288   19.820632   23.407150 C.3        1 MOL1        -0.1866
      12    H5      21.160612   20.575264   23.958859 H          1 MOL1         0.0738
      13    H6      19.524984   20.097456   23.511022 H          1 MOL1         0.0738
      14    C6      20.823470   18.435813   24.045352 C.3        1 MOL1        -0.2879
      15    H7      21.878587   18.143742   23.964309 H          1 MOL1         0.0750
      16    H8      20.556540   18.450053   25.109989 H          1 MOL1         0.0750
      17    H9      20.215392   17.663527   23.556438 H          1 MOL1         0.0750
@<TRIPOS>BOND
    1     1     2    1
    2     1     3    2
    3     1     4    1
    4     4     5    1
    5     4     6    2
    6     6     7    1
    7     6     8    1
    8     8     9    1
    9     8    10    1
   10     8    11    1
   11    11    12    1
   12    11    13    1
   13    11    14    1
   14    14    15    1
   15    14    16    1
   16    14    17    1
@<TRIPOS>SUBSTRUCTURE
       1 MOL1            1 RESIDUE      1      MOL     
@<SCITEGIC>MOL_PROPERTY
VConf Rank
SciTegic.value.IntegerValue
11

@<SCITEGIC>MOL_PROPERTY
Conf_Id
SciTegic.value.IntegerValue
3

@<SCITEGIC>MOL_PROPERTY
Delta U+W
SciTegic.value.DoubleValue
0.531

@<SCITEGIC>MOL_PROPERTY
U+W
SciTegic.value.DoubleValue
-52.878

@<SCITEGIC>MOL_PROPERTY
Grad RMS
SciTegic.value.DoubleValue
0.000000

@<SCITEGIC>MOL_PROPERTY
U
SciTegic.value.DoubleValue
10.067

@<SCITEGIC>MOL_PROPERTY
W
SciTegic.value.DoubleValue
-62.945

@<SCITEGIC>MOL_PROPERTY
W(PB)
SciTegic.value.DoubleValue
-64.982

@<SCITEGIC>MOL_PROPERTY
W(SA)
SciTegic.value.DoubleValue
2.037

@<SCITEGIC>MOL_PROPERTY
Valence
SciTegic.value.DoubleValue
2.779

@<SCITEGIC>MOL_PROPERTY
Coulomb
SciTegic.value.DoubleValue
6.474

@<SCITEGIC>MOL_PROPERTY
VdW
SciTegic.value.DoubleValue
0.815

@<SCITEGIC>MOL_PROPERTY
VdW6
SciTegic.value.DoubleValue
-5.088

@<SCITEGIC>MOL_PROPERTY
VdW12
SciTegic.value.DoubleValue
5.902

@<SCITEGIC>MOL_PROPERTY
Bond
SciTegic.value.DoubleValue
0.078

@<SCITEGIC>MOL_PROPERTY
Angle
SciTegic.value.DoubleValue
2.651

@<SCITEGIC>MOL_PROPERTY
Pdih
SciTegic.value.DoubleValue
0.050

@<SCITEGIC>MOL_PROPERTY
Idih
SciTegic.value.DoubleValue
0.000

@<SCITEGIC>MOL_PROPERTY
Tether
SciTegic.value.DoubleValue
0.000

@<TRIPOS>MOLECULE
guest-s19_confgen4.mol2 : confsearch ligand conformer 12
          17          16           1
SMALL
USER_CHARGES
 
@<TRIPOS>ATOM
       1    C1      19.181487   16.955439   24.048473 C.2        1 MOL1         0.6173
       2    O1      18.094456   16.718484   24.538368 O.co2      1 MOL1        -0.6755
       3    O2      20.226284   16.580808   24.546969 O.co2      1 MOL1        -0.6755
       4    C2      19.209252   17.736547   22.782309 C.2        1 MOL1        -0.1504
       5    H1      18.240834   18.039766   22.391245 H          1 MOL1         0.0814
       6    C3      20.345008   18.073880   22.129739 C.2        1 MOL1        -0.1394
       7    H2      21.319645   17.777286   22.516562 H          1 MOL1         0.0817
       8    C4      20.370178   18.871552   20.842330 C.3        1 MOL1        -0.1849
       9    H3      19.380806   18.866151   20.364991 H          1 MOL1         0.0736
      10    H4      21.053849   18.386004   20.133213 H          1 MOL1         0.0736
      11    C5      20.831130   20.328709   21.064556 C.3        1 MOL1        -0.1866
      12    H5      21.819629   20.335024   21.544440 H          1 MOL1         0.0738
      13    H6      20.952886   20.818915   20.088815 H          1 MOL1         0.0738
      14    C6      19.834222   21.143737   21.915870 C.3        1 MOL1        -0.2879
      15    H7      19.734904   20.719932   22.923629 H          1 MOL1         0.0750
      16    H8      20.174235   22.182221   22.019834 H          1 MOL1         0.0750
      17    H9      18.840074   21.157266   21.450488 H          1 MOL1         0.0750
@<TRIPOS>BOND
    1     1     2    1
    2     1     3    2
    3     1     4    1
    4     4     5    1
    5     4     6    2
    6     6     7    1
    7     6     8    1
    8     8     9    1
    9     8    10    1
   10     8    11    1
   11    11    12    1
   12    11    13    1
   13    11    14    1
   14    14    15    1
   15    14    16    1
   16    14    17    1
@<TRIPOS>SUBSTRUCTURE
       1 MOL1            1 RESIDUE      1      MOL     
@<SCITEGIC>MOL_PROPERTY
VConf Rank
SciTegic.value.IntegerValue
12

@<SCITEGIC>MOL_PROPERTY
Conf_Id
SciTegic.value.IntegerValue
45

@<SCITEGIC>MOL_PROPERTY
Delta U+W
SciTegic.value.DoubleValue
0.562

@<SCITEGIC>MOL_PROPERTY
U+W
SciTegic.value.DoubleValue
-52.846

@<SCITEGIC>MOL_PROPERTY
Grad RMS
SciTegic.value.DoubleValue
0.000000

@<SCITEGIC>MOL_PROPERTY
U
SciTegic.value.DoubleValue
10.243

@<SCITEGIC>MOL_PROPERTY
W
SciTegic.value.DoubleValue
-63.089

@<SCITEGIC>MOL_PROPERTY
W(PB)
SciTegic.value.DoubleValue
-65.116

@<SCITEGIC>MOL_PROPERTY
W(SA)
SciTegic.value.DoubleValue
2.026

@<SCITEGIC>MOL_PROPERTY
Valence
SciTegic.value.DoubleValue
2.822

@<SCITEGIC>MOL_PROPERTY
Coulomb
SciTegic.value.DoubleValue
6.637

@<SCITEGIC>MOL_PROPERTY
VdW
SciTegic.value.DoubleValue
0.785

@<SCITEGIC>MOL_PROPERTY
VdW6
SciTegic.value.DoubleValue
-5.216

@<SCITEGIC>MOL_PROPERTY
VdW12
SciTegic.value.DoubleValue
6.001

@<SCITEGIC>MOL_PROPERTY
Bond
SciTegic.value.DoubleValue
0.080

@<SCITEGIC>MOL_PROPERTY
Angle
SciTegic.value.DoubleValue
2.678

@<SCITEGIC>MOL_PROPERTY
Pdih
SciTegic.value.DoubleValue
0.064

@<SCITEGIC>MOL_PROPERTY
Idih
SciTegic.value.DoubleValue
0.000

@<SCITEGIC>MOL_PROPERTY
Tether
SciTegic.value.DoubleValue
0.000

@<TRIPOS>MOLECULE
guest-s19_confgen4.mol2 : confsearch ligand conformer 13
          17          16           1
SMALL
USER_CHARGES
 
@<TRIPOS>ATOM
       1    C1      18.347874   16.984590   19.883527 C.2        1 MOL1         0.6173
       2    O1      18.549459   15.802584   19.683703 O.co2      1 MOL1        -0.6755
       3    O2      17.620103   17.658939   19.179257 O.co2      1 MOL1        -0.6755
       4    C2      19.031168   17.611452   21.047278 C.2        1 MOL1        -0.1504
       5    H1      19.666996   16.953456   21.635217 H          1 MOL1         0.0814
       6    C3      18.899614   18.913993   21.386637 C.2        1 MOL1        -0.1394
       7    H2      18.267014   19.582652   20.803126 H          1 MOL1         0.0817
       8    C4      19.599824   19.544209   22.570602 C.3        1 MOL1        -0.1849
       9    H3      19.617773   18.840900   23.414310 H          1 MOL1         0.0736
      10    H4      19.033352   20.422622   22.908071 H          1 MOL1         0.0736
      11    C5      21.039984   19.964985   22.212967 C.3        1 MOL1        -0.1866
      12    H5      21.609377   19.086419   21.879092 H          1 MOL1         0.0738
      13    H6      21.019283   20.669939   21.370246 H          1 MOL1         0.0738
      14    C6      21.757521   20.616920   23.411986 C.3        1 MOL1        -0.2879
      15    H7      21.225529   21.517334   23.746156 H          1 MOL1         0.0750
      16    H8      21.819117   19.920818   24.258794 H          1 MOL1         0.0750
      17    H9      22.779762   20.909225   23.138651 H          1 MOL1         0.0750
@<TRIPOS>BOND
    1     1     2    1
    2     1     3    2
    3     1     4    1
    4     4     5    1
    5     4     6    2
    6     6     7    1
    7     6     8    1
    8     8     9    1
    9     8    10    1
   10     8    11    1
   11    11    12    1
   12    11    13    1
   13    11    14    1
   14    14    15    1
   15    14    16    1
   16    14    17    1
@<TRIPOS>SUBSTRUCTURE
       1 MOL1            1 RESIDUE      1      MOL     
@<SCITEGIC>MOL_PROPERTY
VConf Rank
SciTegic.value.IntegerValue
13

@<SCITEGIC>MOL_PROPERTY
Conf_Id
SciTegic.value.IntegerValue
36

@<SCITEGIC>MOL_PROPERTY
Delta U+W
SciTegic.value.DoubleValue
0.000

@<SCITEGIC>MOL_PROPERTY
U+W
SciTegic.value.DoubleValue
-53.409

@<SCITEGIC>MOL_PROPERTY
Grad RMS
SciTegic.value.DoubleValue
0.000000

@<SCITEGIC>MOL_PROPERTY
U
SciTegic.value.DoubleValue
9.048

@<SCITEGIC>MOL_PROPERTY
W
SciTegic.value.DoubleValue
-62.457

@<SCITEGIC>MOL_PROPERTY
W(PB)
SciTegic.value.DoubleValue
-64.540

@<SCITEGIC>MOL_PROPERTY
W(SA)
SciTegic.value.DoubleValue
2.084

@<SCITEGIC>MOL_PROPERTY
Valence
SciTegic.value.DoubleValue
2.652

@<SCITEGIC>MOL_PROPERTY
Coulomb
SciTegic.value.DoubleValue
5.578

@<SCITEGIC>MOL_PROPERTY
VdW
SciTegic.value.DoubleValue
0.818

@<SCITEGIC>MOL_PROPERTY
VdW6
SciTegic.value.DoubleValue
-4.534

@<SCITEGIC>MOL_PROPERTY
VdW12
SciTegic.value.DoubleValue
5.352

@<SCITEGIC>MOL_PROPERTY
Bond
SciTegic.value.DoubleValue
0.063

@<SCITEGIC>MOL_PROPERTY
Angle
SciTegic.value.DoubleValue
2.579

@<SCITEGIC>MOL_PROPERTY
Pdih
SciTegic.value.DoubleValue
0.010

@<SCITEGIC>MOL_PROPERTY
Idih
SciTegic.value.DoubleValue
0.000

@<SCITEGIC>MOL_PROPERTY
Tether
SciTegic.value.DoubleValue
0.000

@<TRIPOS>MOLECULE
guest-s19_confgen4.mol2 : confsearch ligand conformer 14
          17          16           1
SMALL
USER_CHARGES
 
@<TRIPOS>ATOM
       1    C1      16.882273   18.094533   21.157479 C.2        1 MOL1         0.6173
       2    O1      16.847572   17.924338   19.953227 O.co2      1 MOL1        -0.6755
       3    O2      15.885114   18.096927   21.852730 O.co2      1 MOL1        -0.6755
       4    C2      18.191110   18.309843   21.831830 C.2        1 MOL1        -0.1504
       5    H1      18.151773   18.455368   22.908949 H          1 MOL1         0.0814
       6    C3      19.378042   18.332873   21.183951 C.2        1 MOL1        -0.1394
       7    H2      19.428751   18.190358   20.104650 H          1 MOL1         0.0817
       8    C4      20.704590   18.554330   21.877108 C.3        1 MOL1        -0.1849
       9    H3      21.510797   18.107511   21.279806 H          1 MOL1         0.0736
      10    H4      20.712027   18.039023   22.847268 H          1 MOL1         0.0736
      11    C5      20.986912   20.056573   22.083454 C.3        1 MOL1        -0.1866
      12    H5      20.981106   20.569393   21.111575 H          1 MOL1         0.0738
      13    H6      20.183228   20.504339   22.684416 H          1 MOL1         0.0738
      14    C6      22.341769   20.291137   22.781213 C.3        1 MOL1        -0.2879
      15    H7      23.167177   19.880426   22.185018 H          1 MOL1         0.0750
      16    H8      22.524978   21.364692   22.919211 H          1 MOL1         0.0750
      17    H9      22.362273   19.814069   23.769860 H          1 MOL1         0.0750
@<TRIPOS>BOND
    1     1     2    1
    2     1     3    2
    3     1     4    1
    4     4     5    1
    5     4     6    2
    6     6     7    1
    7     6     8    1
    8     8     9    1
    9     8    10    1
   10     8    11    1
   11    11    12    1
   12    11    13    1
   13    11    14    1
   14    14    15    1
   15    14    16    1
   16    14    17    1
@<TRIPOS>SUBSTRUCTURE
       1 MOL1            1 RESIDUE      1      MOL     
@<SCITEGIC>MOL_PROPERTY
VConf Rank
SciTegic.value.IntegerValue
14

@<SCITEGIC>MOL_PROPERTY
Conf_Id
SciTegic.value.IntegerValue
1

@<SCITEGIC>MOL_PROPERTY
Delta U+W
SciTegic.value.DoubleValue
0.030

@<SCITEGIC>MOL_PROPERTY
U+W
SciTegic.value.DoubleValue
-53.378

@<SCITEGIC>MOL_PROPERTY
Grad RMS
SciTegic.value.DoubleValue
0.000000

@<SCITEGIC>MOL_PROPERTY
U
SciTegic.value.DoubleValue
9.048

@<SCITEGIC>MOL_PROPERTY
W
SciTegic.value.DoubleValue
-62.426

@<SCITEGIC>MOL_PROPERTY
W(PB)
SciTegic.value.DoubleValue
-64.506

@<SCITEGIC>MOL_PROPERTY
W(SA)
SciTegic.value.DoubleValue
2.080

@<SCITEGIC>MOL_PROPERTY
Valence
SciTegic.value.DoubleValue
2.652

@<SCITEGIC>MOL_PROPERTY
Coulomb
SciTegic.value.DoubleValue
5.578

@<SCITEGIC>MOL_PROPERTY
VdW
SciTegic.value.DoubleValue
0.818

@<SCITEGIC>MOL_PROPERTY
VdW6
SciTegic.value.DoubleValue
-4.535

@<SCITEGIC>MOL_PROPERTY
VdW12
SciTegic.value.DoubleValue
5.352

@<SCITEGIC>MOL_PROPERTY
Bond
SciTegic.value.DoubleValue
0.063

@<SCITEGIC>MOL_PROPERTY
Angle
SciTegic.value.DoubleValue
2.579

@<SCITEGIC>MOL_PROPERTY
Pdih
SciTegic.value.DoubleValue
0.010

@<SCITEGIC>MOL_PROPERTY
Idih
SciTegic.value.DoubleValue
0.000

@<SCITEGIC>MOL_PROPERTY
Tether
SciTegic.value.DoubleValue
0.000

@<TRIPOS>MOLECULE
guest-s19_confgen4.mol2 : confsearch ligand conformer 15
          17          16           1
SMALL
USER_CHARGES
 
@<TRIPOS>ATOM
       1    C1      20.034463   20.005631   19.107971 C.2        1 MOL1         0.6173
       2    O1      21.137954   20.514202   19.043901 O.co2      1 MOL1        -0.6755
       3    O2      19.384557   19.713093   18.123159 O.co2      1 MOL1        -0.6755
       4    C2      19.431249   19.722794   20.438470 C.2        1 MOL1        -0.1504
       5    H1      18.443119   19.268729   20.424856 H          1 MOL1         0.0814
       6    C3      20.040273   19.994110   21.615102 C.2        1 MOL1        -0.1394
       7    H2      21.031684   20.445846   21.640295 H          1 MOL1         0.0817
       8    C4      19.421663   19.699816   22.965556 C.3        1 MOL1        -0.1849
       9    H3      18.352380   19.950143   22.943277 H          1 MOL1         0.0736
      10    H4      19.871622   20.346594   23.730741 H          1 MOL1         0.0736
      11    C5      19.586770   18.220488   23.377736 C.3        1 MOL1        -0.1866
      12    H5      19.030981   18.042848   24.308701 H          1 MOL1         0.0738
      13    H6      19.136349   17.570828   22.614526 H          1 MOL1         0.0738
      14    C6      21.064263   17.826842   23.589326 C.3        1 MOL1        -0.2879
      15    H7      21.531973   18.455664   24.358075 H          1 MOL1         0.0750
      16    H8      21.142345   16.780972   23.913312 H          1 MOL1         0.0750
      17    H9      21.639912   17.935198   22.660828 H          1 MOL1         0.0750
@<TRIPOS>BOND
    1     1     2    1
    2     1     3    2
    3     1     4    1
    4     4     5    1
    5     4     6    2
    6     6     7    1
    7     6     8    1
    8     8     9    1
    9     8    10    1
   10     8    11    1
   11    11    12    1
   12    11    13    1
   13    11    14    1
   14    14    15    1
   15    14    16    1
   16    14    17    1
@<TRIPOS>SUBSTRUCTURE
       1 MOL1            1 RESIDUE      1      MOL     
@<SCITEGIC>MOL_PROPERTY
VConf Rank
SciTegic.value.IntegerValue
15

@<SCITEGIC>MOL_PROPERTY
Conf_Id
SciTegic.value.IntegerValue
3

@<SCITEGIC>MOL_PROPERTY
Delta U+W
SciTegic.value.DoubleValue
0.531

@<SCITEGIC>MOL_PROPERTY
U+W
SciTegic.value.DoubleValue
-52.878

@<SCITEGIC>MOL_PROPERTY
Grad RMS
SciTegic.value.DoubleValue
0.000000

@<SCITEGIC>MOL_PROPERTY
U
SciTegic.value.DoubleValue
10.067

@<SCITEGIC>MOL_PROPERTY
W
SciTegic.value.DoubleValue
-62.945

@<SCITEGIC>MOL_PROPERTY
W(PB)
SciTegic.value.DoubleValue
-64.982

@<SCITEGIC>MOL_PROPERTY
W(SA)
SciTegic.value.DoubleValue
2.037

@<SCITEGIC>MOL_PROPERTY
Valence
SciTegic.value.DoubleValue
2.779

@<SCITEGIC>MOL_PROPERTY
Coulomb
SciTegic.value.DoubleValue
6.474

@<SCITEGIC>MOL_PROPERTY
VdW
SciTegic.value.DoubleValue
0.815

@<SCITEGIC>MOL_PROPERTY
VdW6
SciTegic.value.DoubleValue
-5.088

@<SCITEGIC>MOL_PROPERTY
VdW12
SciTegic.value.DoubleValue
5.902

@<SCITEGIC>MOL_PROPERTY
Bond
SciTegic.value.DoubleValue
0.078

@<SCITEGIC>MOL_PROPERTY
Angle
SciTegic.value.DoubleValue
2.651

@<SCITEGIC>MOL_PROPERTY
Pdih
SciTegic.value.DoubleValue
0.050

@<SCITEGIC>MOL_PROPERTY
Idih
SciTegic.value.DoubleValue
0.000

@<SCITEGIC>MOL_PROPERTY
Tether
SciTegic.value.DoubleValue
0.000

@<TRIPOS>MOLECULE
guest-s19_confgen4.mol2 : confsearch ligand conformer 16
          17          16           1
SMALL
USER_CHARGES
 
@<TRIPOS>ATOM
       1    C1      18.109474   18.090799   19.928760 C.2        1 MOL1         0.6173
       2    O1      18.363665   17.664155   18.819191 O.co2      1 MOL1        -0.6755
       3    O2      17.012957   18.519175   20.236319 O.co2      1 MOL1        -0.6755
       4    C2      19.202501   18.075022   20.938272 C.2        1 MOL1        -0.1504
       5    H1      20.156507   17.679371   20.597627 H          1 MOL1         0.0814
       6    C3      19.062144   18.519869   22.207916 C.2        1 MOL1        -0.1394
       7    H2      18.110819   18.921220   22.556364 H          1 MOL1         0.0817
       8    C4      20.177583   18.505055   23.232568 C.3        1 MOL1        -0.1849
       9    H3      20.982128   17.826381   22.918164 H          1 MOL1         0.0736
      10    H4      19.790422   18.102159   24.177973 H          1 MOL1         0.0736
      11    C5      20.757200   19.913508   23.488438 C.3        1 MOL1        -0.1866
      12    H5      19.952570   20.593714   23.800450 H          1 MOL1         0.0738
      13    H6      21.467063   19.862365   24.325503 H          1 MOL1         0.0738
      14    C6      21.478091   20.492655   22.252423 C.3        1 MOL1        -0.2879
      15    H7      20.783476   20.619251   21.411865 H          1 MOL1         0.0750
      16    H8      21.910044   21.475159   22.482571 H          1 MOL1         0.0750
      17    H9      22.292233   19.831865   21.927426 H          1 MOL1         0.0750
@<TRIPOS>BOND
    1     1     2    1
    2     1     3    2
    3     1     4    1
    4     4     5    1
    5     4     6    2
    6     6     7    1
    7     6     8    1
    8     8     9    1
    9     8    10    1
   10     8    11    1
   11    11    12    1
   12    11    13    1
   13    11    14    1
   14    14    15    1
   15    14    16    1
   16    14    17    1
@<TRIPOS>SUBSTRUCTURE
       1 MOL1            1 RESIDUE      1      MOL     
@<SCITEGIC>MOL_PROPERTY
VConf Rank
SciTegic.value.IntegerValue
16

@<SCITEGIC>MOL_PROPERTY
Conf_Id
SciTegic.value.IntegerValue
45

@<SCITEGIC>MOL_PROPERTY
Delta U+W
SciTegic.value.DoubleValue
0.562

@<SCITEGIC>MOL_PROPERTY
U+W
SciTegic.value.DoubleValue
-52.846

@<SCITEGIC>MOL_PROPERTY
Grad RMS
SciTegic.value.DoubleValue
0.000000

@<SCITEGIC>MOL_PROPERTY
U
SciTegic.value.DoubleValue
10.243

@<SCITEGIC>MOL_PROPERTY
W
SciTegic.value.DoubleValue
-63.089

@<SCITEGIC>MOL_PROPERTY
W(PB)
SciTegic.value.DoubleValue
-65.116

@<SCITEGIC>MOL_PROPERTY
W(SA)
SciTegic.value.DoubleValue
2.026

@<SCITEGIC>MOL_PROPERTY
Valence
SciTegic.value.DoubleValue
2.822

@<SCITEGIC>MOL_PROPERTY
Coulomb
SciTegic.value.DoubleValue
6.637

@<SCITEGIC>MOL_PROPERTY
VdW
SciTegic.value.DoubleValue
0.785

@<SCITEGIC>MOL_PROPERTY
VdW6
SciTegic.value.DoubleValue
-5.216

@<SCITEGIC>MOL_PROPERTY
VdW12
SciTegic.value.DoubleValue
6.001

@<SCITEGIC>MOL_PROPERTY
Bond
SciTegic.value.DoubleValue
0.080

@<SCITEGIC>MOL_PROPERTY
Angle
SciTegic.value.DoubleValue
2.678

@<SCITEGIC>MOL_PROPERTY
Pdih
SciTegic.value.DoubleValue
0.064

@<SCITEGIC>MOL_PROPERTY
Idih
SciTegic.value.DoubleValue
0.000

@<SCITEGIC>MOL_PROPERTY
Tether
SciTegic.value.DoubleValue
0.000

@<TRIPOS>MOLECULE
guest-s19_confgen4.mol2 : confsearch ligand conformer 17
          17          16           1
SMALL
USER_CHARGES
 
@<TRIPOS>ATOM
       1    C1      20.667493   21.638026   19.775457 C.2        1 MOL1         0.6173
       2    O1      20.291939   21.796778   18.630267 O.co2      1 MOL1        -0.6755
       3    O2      21.565472   22.291251   20.272774 O.co2      1 MOL1        -0.6755
       4    C2      19.982714   20.594141   20.585114 C.2        1 MOL1        -0.1504
       5    H1      19.189445   20.046946   20.080921 H          1 MOL1         0.0814
       6    C3      20.297078   20.309607   21.869365 C.2        1 MOL1        -0.1394
       7    H2      21.091715   20.850076   22.383387 H          1 MOL1         0.0817
       8    C4      19.597104   19.244794   22.685114 C.3        1 MOL1        -0.1849
       9    H3      18.522937   19.240951   22.454985 H          1 MOL1         0.0736
      10    H4      19.686837   19.481911   23.753810 H          1 MOL1         0.0736
      11    C5      20.192392   17.847838   22.414634 C.3        1 MOL1        -0.1866
      12    H5      20.099596   17.607278   21.346421 H          1 MOL1         0.0738
      13    H6      21.266321   17.853649   22.647469 H          1 MOL1         0.0738
      14    C6      19.490513   16.757955   23.249527 C.3        1 MOL1        -0.2879
      15    H7      19.595552   16.957448   24.324050 H          1 MOL1         0.0750
      16    H8      18.419514   16.710405   23.012596 H          1 MOL1         0.0750
      17    H9      19.927128   15.771981   23.043728 H          1 MOL1         0.0750
@<TRIPOS>BOND
    1     1     2    1
    2     1     3    2
    3     1     4    1
    4     4     5    1
    5     4     6    2
    6     6     7    1
    7     6     8    1
    8     8     9    1
    9     8    10    1
   10     8    11    1
   11    11    12    1
   12    11    13    1
   13    11    14    1
   14    14    15    1
   15    14    16    1
   16    14    17    1
@<TRIPOS>SUBSTRUCTURE
       1 MOL1            1 RESIDUE      1      MOL     
@<SCITEGIC>MOL_PROPERTY
VConf Rank
SciTegic.value.IntegerValue
17

@<SCITEGIC>MOL_PROPERTY
Conf_Id
SciTegic.value.IntegerValue
36

@<SCITEGIC>MOL_PROPERTY
Delta U+W
SciTegic.value.DoubleValue
0.000

@<SCITEGIC>MOL_PROPERTY
U+W
SciTegic.value.DoubleValue
-53.409

@<SCITEGIC>MOL_PROPERTY
Grad RMS
SciTegic.value.DoubleValue
0.000000

@<SCITEGIC>MOL_PROPERTY
U
SciTegic.value.DoubleValue
9.048

@<SCITEGIC>MOL_PROPERTY
W
SciTegic.value.DoubleValue
-62.457

@<SCITEGIC>MOL_PROPERTY
W(PB)
SciTegic.value.DoubleValue
-64.540

@<SCITEGIC>MOL_PROPERTY
W(SA)
SciTegic.value.DoubleValue
2.084

@<SCITEGIC>MOL_PROPERTY
Valence
SciTegic.value.DoubleValue
2.652

@<SCITEGIC>MOL_PROPERTY
Coulomb
SciTegic.value.DoubleValue
5.578

@<SCITEGIC>MOL_PROPERTY
VdW
SciTegic.value.DoubleValue
0.818

@<SCITEGIC>MOL_PROPERTY
VdW6
SciTegic.value.DoubleValue
-4.534

@<SCITEGIC>MOL_PROPERTY
VdW12
SciTegic.value.DoubleValue
5.352

@<SCITEGIC>MOL_PROPERTY
Bond
SciTegic.value.DoubleValue
0.063

@<SCITEGIC>MOL_PROPERTY
Angle
SciTegic.value.DoubleValue
2.579

@<SCITEGIC>MOL_PROPERTY
Pdih
SciTegic.value.DoubleValue
0.010

@<SCITEGIC>MOL_PROPERTY
Idih
SciTegic.value.DoubleValue
0.000

@<SCITEGIC>MOL_PROPERTY
Tether
SciTegic.value.DoubleValue
0.000

@<TRIPOS>MOLECULE
guest-s19_confgen4.mol2 : confsearch ligand conformer 18
          17          16           1
SMALL
USER_CHARGES
 
@<TRIPOS>ATOM
       1    C1      16.692756   18.709049   22.359334 C.2        1 MOL1         0.6173
       2    O1      16.151508   19.644845   21.801006 O.co2      1 MOL1        -0.6755
       3    O2      16.098658   17.947890   23.097840 O.co2      1 MOL1        -0.6755
       4    C2      18.144500   18.464287   22.143243 C.2        1 MOL1        -0.1504
       5    H1      18.565862   17.611966   22.671365 H          1 MOL1         0.0814
       6    C3      18.928149   19.230030   21.350390 C.2        1 MOL1        -0.1394
       7    H2      18.516782   20.087640   20.818361 H          1 MOL1         0.0817
       8    C4      20.404302   18.975310   21.137482 C.3        1 MOL1        -0.1849
       9    H3      20.715657   19.400440   20.173786 H          1 MOL1         0.0736
      10    H4      20.594290   17.894929   21.078423 H          1 MOL1         0.0736
      11    C5      21.250031   19.591369   22.270721 C.3        1 MOL1        -0.1866
      12    H5      21.059927   20.672262   22.326385 H          1 MOL1         0.0738
      13    H6      20.942546   19.164020   23.235286 H          1 MOL1         0.0738
      14    C6      22.756796   19.344043   22.056212 C.3        1 MOL1        -0.2879
      15    H7      23.097689   19.789380   21.112338 H          1 MOL1         0.0750
      16    H8      23.341714   19.789201   22.871587 H          1 MOL1         0.0750
      17    H9      22.978324   18.269071   22.027986 H          1 MOL1         0.0750
@<TRIPOS>BOND
    1     1     2    1
    2     1     3    2
    3     1     4    1
    4     4     5    1
    5     4     6    2
    6     6     7    1
    7     6     8    1
    8     8     9    1
    9     8    10    1
   10     8    11    1
   11    11    12    1
   12    11    13    1
   13    11    14    1
   14    14    15    1
   15    14    16    1
   16    14    17    1
@<TRIPOS>SUBSTRUCTURE
       1 MOL1            1 RESIDUE      1      MOL     
@<SCITEGIC>MOL_PROPERTY
VConf Rank
SciTegic.value.IntegerValue
18

@<SCITEGIC>MOL_PROPERTY
Conf_Id
SciTegic.value.IntegerValue
1

@<SCITEGIC>MOL_PROPERTY
Delta U+W
SciTegic.value.DoubleValue
0.030

@<SCITEGIC>MOL_PROPERTY
U+W
SciTegic.value.DoubleValue
-53.378

@<SCITEGIC>MOL_PROPERTY
Grad RMS
SciTegic.value.DoubleValue
0.000000

@<SCITEGIC>MOL_PROPERTY
U
SciTegic.value.DoubleValue
9.048

@<SCITEGIC>MOL_PROPERTY
W
SciTegic.value.DoubleValue
-62.426

@<SCITEGIC>MOL_PROPERTY
W(PB)
SciTegic.value.DoubleValue
-64.506

@<SCITEGIC>MOL_PROPERTY
W(SA)
SciTegic.value.DoubleValue
2.080

@<SCITEGIC>MOL_PROPERTY
Valence
SciTegic.value.DoubleValue
2.652

@<SCITEGIC>MOL_PROPERTY
Coulomb
SciTegic.value.DoubleValue
5.578

@<SCITEGIC>MOL_PROPERTY
VdW
SciTegic.value.DoubleValue
0.818

@<SCITEGIC>MOL_PROPERTY
VdW6
SciTegic.value.DoubleValue
-4.535

@<SCITEGIC>MOL_PROPERTY
VdW12
SciTegic.value.DoubleValue
5.352

@<SCITEGIC>MOL_PROPERTY
Bond
SciTegic.value.DoubleValue
0.063

@<SCITEGIC>MOL_PROPERTY
Angle
SciTegic.value.DoubleValue
2.579

@<SCITEGIC>MOL_PROPERTY
Pdih
SciTegic.value.DoubleValue
0.010

@<SCITEGIC>MOL_PROPERTY
Idih
SciTegic.value.DoubleValue
0.000

@<SCITEGIC>MOL_PROPERTY
Tether
SciTegic.value.DoubleValue
0.000

@<TRIPOS>MOLECULE
guest-s19_confgen4.mol2 : confsearch ligand conformer 19
          17          16           1
SMALL
USER_CHARGES
 
@<TRIPOS>ATOM
       1    C1      18.018704   16.750804   21.833923 C.2        1 MOL1         0.6173
       2    O1      16.972925   17.365009   21.736252 O.co2      1 MOL1        -0.6755
       3    O2      18.118777   15.570564   21.560368 O.co2      1 MOL1        -0.6755
       4    C2      19.241651   17.452053   22.310094 C.2        1 MOL1        -0.1504
       5    H1      20.141815   16.845245   22.375279 H          1 MOL1         0.0814
       6    C3      19.276500   18.761171   22.647705 C.2        1 MOL1        -0.1394
       7    H2      18.381265   19.379197   22.582922 H          1 MOL1         0.0817
       8    C4      20.526018   19.469075   23.127903 C.3        1 MOL1        -0.1849
       9    H3      21.081815   18.812533   23.810961 H          1 MOL1         0.0736
      10    H4      20.250184   20.356615   23.713124 H          1 MOL1         0.0736
      11    C5      21.450007   19.885718   21.962478 C.3        1 MOL1        -0.1866
      12    H5      22.382783   20.296429   22.372841 H          1 MOL1         0.0738
      13    H6      21.728745   18.999459   21.375726 H          1 MOL1         0.0738
      14    C6      20.799238   20.937243   21.038623 C.3        1 MOL1        -0.2879
      15    H7      20.523490   21.838124   21.602114 H          1 MOL1         0.0750
      16    H8      21.494348   21.234726   20.242864 H          1 MOL1         0.0750
      17    H9      19.893290   20.539834   20.562655 H          1 MOL1         0.0750
@<TRIPOS>BOND
    1     1     2    1
    2     1     3    2
    3     1     4    1
    4     4     5    1
    5     4     6    2
    6     6     7    1
    7     6     8    1
    8     8     9    1
    9     8    10    1
   10     8    11    1
   11    11    12    1
   12    11    13    1
   13    11    14    1
   14    14    15    1
   15    14    16    1
   16    14    17    1
@<TRIPOS>SUBSTRUCTURE
       1 MOL1            1 RESIDUE      1      MOL     
@<SCITEGIC>MOL_PROPERTY
VConf Rank
SciTegic.value.IntegerValue
19

@<SCITEGIC>MOL_PROPERTY
Conf_Id
SciTegic.value.IntegerValue
3

@<SCITEGIC>MOL_PROPERTY
Delta U+W
SciTegic.value.DoubleValue
0.531

@<SCITEGIC>MOL_PROPERTY
U+W
SciTegic.value.DoubleValue
-52.878

@<SCITEGIC>MOL_PROPERTY
Grad RMS
SciTegic.value.DoubleValue
0.000000

@<SCITEGIC>MOL_PROPERTY
U
SciTegic.value.DoubleValue
10.067

@<SCITEGIC>MOL_PROPERTY
W
SciTegic.value.DoubleValue
-62.945

@<SCITEGIC>MOL_PROPERTY
W(PB)
SciTegic.value.DoubleValue
-64.982

@<SCITEGIC>MOL_PROPERTY
W(SA)
SciTegic.value.DoubleValue
2.037

@<SCITEGIC>MOL_PROPERTY
Valence
SciTegic.value.DoubleValue
2.779

@<SCITEGIC>MOL_PROPERTY
Coulomb
SciTegic.value.DoubleValue
6.474

@<SCITEGIC>MOL_PROPERTY
VdW
SciTegic.value.DoubleValue
0.815

@<SCITEGIC>MOL_PROPERTY
VdW6
SciTegic.value.DoubleValue
-5.088

@<SCITEGIC>MOL_PROPERTY
VdW12
SciTegic.value.DoubleValue
5.902

@<SCITEGIC>MOL_PROPERTY
Bond
SciTegic.value.DoubleValue
0.078

@<SCITEGIC>MOL_PROPERTY
Angle
SciTegic.value.DoubleValue
2.651

@<SCITEGIC>MOL_PROPERTY
Pdih
SciTegic.value.DoubleValue
0.050

@<SCITEGIC>MOL_PROPERTY
Idih
SciTegic.value.DoubleValue
0.000

@<SCITEGIC>MOL_PROPERTY
Tether
SciTegic.value.DoubleValue
0.000

@<TRIPOS>MOLECULE
guest-s19_confgen4.mol2 : confsearch ligand conformer 20
          17          16           1
SMALL
USER_CHARGES
 
@<TRIPOS>ATOM
       1    C1      18.049241   16.780694   21.918125 C.2        1 MOL1         0.6173
       2    O1      16.833678   16.781702   21.931741 O.co2      1 MOL1        -0.6755
       3    O2      18.711932   15.798883   22.196217 O.co2      1 MOL1        -0.6755
       4    C2      18.733421   18.046341   21.538510 C.2        1 MOL1        -0.1504
       5    H1      18.082164   18.884611   21.302133 H          1 MOL1         0.0814
       6    C3      20.077342   18.189313   21.483576 C.2        1 MOL1        -0.1394
       7    H2      20.737192   17.355598   21.722396 H          1 MOL1         0.0817
       8    C4      20.770962   19.479915   21.099420 C.3        1 MOL1        -0.1849
       9    H3      20.072376   20.157052   20.589318 H          1 MOL1         0.0736
      10    H4      21.565172   19.257814   20.374224 H          1 MOL1         0.0736
      11    C5      21.391907   20.196910   22.318236 C.3        1 MOL1        -0.1866
      12    H5      22.088890   19.519331   22.830642 H          1 MOL1         0.0738
      13    H6      21.986361   21.051515   21.966849 H          1 MOL1         0.0738
      14    C6      20.327791   20.701011   23.316419 C.3        1 MOL1        -0.2879
      15    H7      19.754259   19.865992   23.739335 H          1 MOL1         0.0750
      16    H8      20.802145   21.238308   24.147784 H          1 MOL1         0.0750
      17    H9      19.624044   21.386729   22.826905 H          1 MOL1         0.0750
@<TRIPOS>BOND
    1     1     2    1
    2     1     3    2
    3     1     4    1
    4     4     5    1
    5     4     6    2
    6     6     7    1
    7     6     8    1
    8     8     9    1
    9     8    10    1
   10     8    11    1
   11    11    12    1
   12    11    13    1
   13    11    14    1
   14    14    15    1
   15    14    16    1
   16    14    17    1
@<TRIPOS>SUBSTRUCTURE
       1 MOL1            1 RESIDUE      1      MOL     
@<SCITEGIC>MOL_PROPERTY
VConf Rank
SciTegic.value.IntegerValue
20

@<SCITEGIC>MOL_PROPERTY
Conf_Id
SciTegic.value.IntegerValue
45

@<SCITEGIC>MOL_PROPERTY
Delta U+W
SciTegic.value.DoubleValue
0.562

@<SCITEGIC>MOL_PROPERTY
U+W
SciTegic.value.DoubleValue
-52.846

@<SCITEGIC>MOL_PROPERTY
Grad RMS
SciTegic.value.DoubleValue
0.000000

@<SCITEGIC>MOL_PROPERTY
U
SciTegic.value.DoubleValue
10.243

@<SCITEGIC>MOL_PROPERTY
W
SciTegic.value.DoubleValue
-63.089

@<SCITEGIC>MOL_PROPERTY
W(PB)
SciTegic.value.DoubleValue
-65.116

@<SCITEGIC>MOL_PROPERTY
W(SA)
SciTegic.value.DoubleValue
2.026

@<SCITEGIC>MOL_PROPERTY
Valence
SciTegic.value.DoubleValue
2.822

@<SCITEGIC>MOL_PROPERTY
Coulomb
SciTegic.value.DoubleValue
6.637

@<SCITEGIC>MOL_PROPERTY
VdW
SciTegic.value.DoubleValue
0.785

@<SCITEGIC>MOL_PROPERTY
VdW6
SciTegic.value.DoubleValue
-5.216

@<SCITEGIC>MOL_PROPERTY
VdW12
SciTegic.value.DoubleValue
6.001

@<SCITEGIC>MOL_PROPERTY
Bond
SciTegic.value.DoubleValue
0.080

@<SCITEGIC>MOL_PROPERTY
Angle
SciTegic.value.DoubleValue
2.678

@<SCITEGIC>MOL_PROPERTY
Pdih
SciTegic.value.DoubleValue
0.064

@<SCITEGIC>MOL_PROPERTY
Idih
SciTegic.value.DoubleValue
0.000

@<SCITEGIC>MOL_PROPERTY
Tether
SciTegic.value.DoubleValue
0.000

@<TRIPOS>MOLECULE
guest-s19_confgen4.mol2 : confsearch ligand conformer 21
          17          16           1
SMALL
USER_CHARGES
 
@<TRIPOS>ATOM
       1    C1      17.946571   18.201860   24.433560 C.2        1 MOL1         0.6173
       2    O1      16.781612   17.857113   24.392054 O.co2      1 MOL1        -0.6755
       3    O2      18.513411   18.490973   25.470624 O.co2      1 MOL1        -0.6755
       4    C2      18.691441   18.263991   23.146910 C.2        1 MOL1        -0.1504
       5    H1      18.126476   17.993120   22.257893 H          1 MOL1         0.0814
       6    C3      19.988981   18.631296   23.044137 C.2        1 MOL1        -0.1394
       7    H2      20.563733   18.906937   23.928136 H          1 MOL1         0.0817
       8    C4      20.738571   18.693949   21.731343 C.3        1 MOL1        -0.1849
       9    H3      20.437172   17.857235   21.086457 H          1 MOL1         0.0736
      10    H4      21.814620   18.574130   21.916137 H          1 MOL1         0.0736
      11    C5      20.485575   20.029830   21.003039 C.3        1 MOL1        -0.1866
      12    H5      19.409746   20.149312   20.813628 H          1 MOL1         0.0738
      13    H6      20.789690   20.865037   21.649190 H          1 MOL1         0.0738
      14    C6      21.253725   20.105480   19.668217 C.3        1 MOL1        -0.2879
      15    H7      22.335993   20.020504   19.832248 H          1 MOL1         0.0750
      16    H8      20.945034   19.298275   18.991042 H          1 MOL1         0.0750
      17    H9      21.061401   21.061994   19.165004 H          1 MOL1         0.0750
@<TRIPOS>BOND
    1     1     2    1
    2     1     3    2
    3     1     4    1
    4     4     5    1
    5     4     6    2
    6     6     7    1
    7     6     8    1
    8     8     9    1
    9     8    10    1
   10     8    11    1
   11    11    12    1
   12    11    13    1
   13    11    14    1
   14    14    15    1
   15    14    16    1
   16    14    17    1
@<TRIPOS>SUBSTRUCTURE
       1 MOL1            1 RESIDUE      1      MOL     
@<SCITEGIC>MOL_PROPERTY
VConf Rank
SciTegic.value.IntegerValue
21

@<SCITEGIC>MOL_PROPERTY
Conf_Id
SciTegic.value.IntegerValue
36

@<SCITEGIC>MOL_PROPERTY
Delta U+W
SciTegic.value.DoubleValue
0.000

@<SCITEGIC>MOL_PROPERTY
U+W
SciTegic.value.DoubleValue
-53.409

@<SCITEGIC>MOL_PROPERTY
Grad RMS
SciTegic.value.DoubleValue
0.000000

@<SCITEGIC>MOL_PROPERTY
U
SciTegic.value.DoubleValue
9.048

@<SCITEGIC>MOL_PROPERTY
W
SciTegic.value.DoubleValue
-62.457

@<SCITEGIC>MOL_PROPERTY
W(PB)
SciTegic.value.DoubleValue
-64.540

@<SCITEGIC>MOL_PROPERTY
W(SA)
SciTegic.value.DoubleValue
2.084

@<SCITEGIC>MOL_PROPERTY
Valence
SciTegic.value.DoubleValue
2.652

@<SCITEGIC>MOL_PROPERTY
Coulomb
SciTegic.value.DoubleValue
5.578

@<SCITEGIC>MOL_PROPERTY
VdW
SciTegic.value.DoubleValue
0.818

@<SCITEGIC>MOL_PROPERTY
VdW6
SciTegic.value.DoubleValue
-4.534

@<SCITEGIC>MOL_PROPERTY
VdW12
SciTegic.value.DoubleValue
5.352

@<SCITEGIC>MOL_PROPERTY
Bond
SciTegic.value.DoubleValue
0.063

@<SCITEGIC>MOL_PROPERTY
Angle
SciTegic.value.DoubleValue
2.579

@<SCITEGIC>MOL_PROPERTY
Pdih
SciTegic.value.DoubleValue
0.010

@<SCITEGIC>MOL_PROPERTY
Idih
SciTegic.value.DoubleValue
0.000

@<SCITEGIC>MOL_PROPERTY
Tether
SciTegic.value.DoubleValue
0.000

@<TRIPOS>MOLECULE
guest-s19_confgen4.mol2 : confsearch ligand conformer 22
          17          16           1
SMALL
USER_CHARGES
 
@<TRIPOS>ATOM
       1    C1      21.022277   18.840205   18.704733 C.2        1 MOL1         0.6173
       2    O1      20.611721   19.829251   18.127128 O.co2      1 MOL1        -0.6755
       3    O2      21.503109   17.887697   18.122294 O.co2      1 MOL1        -0.6755
       4    C2      20.944442   18.770700   20.189076 C.2        1 MOL1        -0.1504
       5    H1      21.328584   17.859709   20.642330 H          1 MOL1         0.0814
       6    C3      20.433756   19.754491   20.963958 C.2        1 MOL1        -0.1394
       7    H2      20.044181   20.670469   20.520124 H          1 MOL1         0.0817
       8    C4      20.356591   19.675067   22.472923 C.3        1 MOL1        -0.1849
       9    H3      20.338118   20.689271   22.894154 H          1 MOL1         0.0736
      10    H4      21.257759   19.188159   22.869942 H          1 MOL1         0.0736
      11    C5      19.102709   18.902792   22.931604 C.3        1 MOL1        -0.1866
      12    H5      18.202640   19.392913   22.535090 H          1 MOL1         0.0738
      13    H6      19.121675   17.886389   22.514320 H          1 MOL1         0.0738
      14    C6      19.011839   18.825370   24.468898 C.3        1 MOL1        -0.2879
      15    H7      18.959464   19.829184   24.910537 H          1 MOL1         0.0750
      16    H8      18.114264   18.272900   24.775927 H          1 MOL1         0.0750
      17    H9      19.886360   18.311164   24.888708 H          1 MOL1         0.0750
@<TRIPOS>BOND
    1     1     2    1
    2     1     3    2
    3     1     4    1
    4     4     5    1
    5     4     6    2
    6     6     7    1
    7     6     8    1
    8     8     9    1
    9     8    10    1
   10     8    11    1
   11    11    12    1
   12    11    13    1
   13    11    14    1
   14    14    15    1
   15    14    16    1
   16    14    17    1
@<TRIPOS>SUBSTRUCTURE
       1 MOL1            1 RESIDUE      1      MOL     
@<SCITEGIC>MOL_PROPERTY
VConf Rank
SciTegic.value.IntegerValue
22

@<SCITEGIC>MOL_PROPERTY
Conf_Id
SciTegic.value.IntegerValue
1

@<SCITEGIC>MOL_PROPERTY
Delta U+W
SciTegic.value.DoubleValue
0.030

@<SCITEGIC>MOL_PROPERTY
U+W
SciTegic.value.DoubleValue
-53.378

@<SCITEGIC>MOL_PROPERTY
Grad RMS
SciTegic.value.DoubleValue
0.000000

@<SCITEGIC>MOL_PROPERTY
U
SciTegic.value.DoubleValue
9.048

@<SCITEGIC>MOL_PROPERTY
W
SciTegic.value.DoubleValue
-62.426

@<SCITEGIC>MOL_PROPERTY
W(PB)
SciTegic.value.DoubleValue
-64.506

@<SCITEGIC>MOL_PROPERTY
W(SA)
SciTegic.value.DoubleValue
2.080

@<SCITEGIC>MOL_PROPERTY
Valence
SciTegic.value.DoubleValue
2.652

@<SCITEGIC>MOL_PROPERTY
Coulomb
SciTegic.value.DoubleValue
5.578

@<SCITEGIC>MOL_PROPERTY
VdW
SciTegic.value.DoubleValue
0.818

@<SCITEGIC>MOL_PROPERTY
VdW6
SciTegic.value.DoubleValue
-4.535

@<SCITEGIC>MOL_PROPERTY
VdW12
SciTegic.value.DoubleValue
5.352

@<SCITEGIC>MOL_PROPERTY
Bond
SciTegic.value.DoubleValue
0.063

@<SCITEGIC>MOL_PROPERTY
Angle
SciTegic.value.DoubleValue
2.579

@<SCITEGIC>MOL_PROPERTY
Pdih
SciTegic.value.DoubleValue
0.010

@<SCITEGIC>MOL_PROPERTY
Idih
SciTegic.value.DoubleValue
0.000

@<SCITEGIC>MOL_PROPERTY
Tether
SciTegic.value.DoubleValue
0.000

@<TRIPOS>MOLECULE
guest-s19_confgen4.mol2 : confsearch ligand conformer 23
          17          16           1
SMALL
USER_CHARGES
 
@<TRIPOS>ATOM
       1    C1      22.290443   19.697099   24.039932 C.2        1 MOL1         0.6173
       2    O1      21.973715   20.815782   24.398643 O.co2      1 MOL1        -0.6755
       3    O2      23.099107   19.015997   24.639911 O.co2      1 MOL1        -0.6755
       4    C2      21.677616   19.116728   22.814492 C.2        1 MOL1        -0.1504
       5    H1      22.004891   18.114079   22.549262 H          1 MOL1         0.0814
       6    C3      20.764828   19.759707   22.051352 C.2        1 MOL1        -0.1394
       7    H2      20.427380   20.763169   22.309790 H          1 MOL1         0.0817
       8    C4      20.142493   19.161027   20.807448 C.3        1 MOL1        -0.1849
       9    H3      20.909397   18.622102   20.234784 H          1 MOL1         0.0736
      10    H4      19.776707   19.962014   20.151008 H          1 MOL1         0.0736
      11    C5      18.984056   18.194094   21.137031 C.3        1 MOL1        -0.1866
      12    H5      18.643395   17.712554   20.210089 H          1 MOL1         0.0738
      13    H6      19.347327   17.390725   21.792820 H          1 MOL1         0.0738
      14    C6      17.788773   18.908431   21.803166 C.3        1 MOL1        -0.2879
      15    H7      17.400730   19.708286   21.159116 H          1 MOL1         0.0750
      16    H8      16.972322   18.199572   21.992462 H          1 MOL1         0.0750
      17    H9      18.078377   19.352431   22.764527 H          1 MOL1         0.0750
@<TRIPOS>BOND
    1     1     2    1
    2     1     3    2
    3     1     4    1
    4     4     5    1
    5     4     6    2
    6     6     7    1
    7     6     8    1
    8     8     9    1
    9     8    10    1
   10     8    11    1
   11    11    12    1
   12    11    13    1
   13    11    14    1
   14    14    15    1
   15    14    16    1
   16    14    17    1
@<TRIPOS>SUBSTRUCTURE
       1 MOL1            1 RESIDUE      1      MOL     
@<SCITEGIC>MOL_PROPERTY
VConf Rank
SciTegic.value.IntegerValue
23

@<SCITEGIC>MOL_PROPERTY
Conf_Id
SciTegic.value.IntegerValue
3

@<SCITEGIC>MOL_PROPERTY
Delta U+W
SciTegic.value.DoubleValue
0.531

@<SCITEGIC>MOL_PROPERTY
U+W
SciTegic.value.DoubleValue
-52.878

@<SCITEGIC>MOL_PROPERTY
Grad RMS
SciTegic.value.DoubleValue
0.000000

@<SCITEGIC>MOL_PROPERTY
U
SciTegic.value.DoubleValue
10.067

@<SCITEGIC>MOL_PROPERTY
W
SciTegic.value.DoubleValue
-62.945

@<SCITEGIC>MOL_PROPERTY
W(PB)
SciTegic.value.DoubleValue
-64.982

@<SCITEGIC>MOL_PROPERTY
W(SA)
SciTegic.value.DoubleValue
2.037

@<SCITEGIC>MOL_PROPERTY
Valence
SciTegic.value.DoubleValue
2.779

@<SCITEGIC>MOL_PROPERTY
Coulomb
SciTegic.value.DoubleValue
6.474

@<SCITEGIC>MOL_PROPERTY
VdW
SciTegic.value.DoubleValue
0.815

@<SCITEGIC>MOL_PROPERTY
VdW6
SciTegic.value.DoubleValue
-5.088

@<SCITEGIC>MOL_PROPERTY
VdW12
SciTegic.value.DoubleValue
5.902

@<SCITEGIC>MOL_PROPERTY
Bond
SciTegic.value.DoubleValue
0.078

@<SCITEGIC>MOL_PROPERTY
Angle
SciTegic.value.DoubleValue
2.651

@<SCITEGIC>MOL_PROPERTY
Pdih
SciTegic.value.DoubleValue
0.050

@<SCITEGIC>MOL_PROPERTY
Idih
SciTegic.value.DoubleValue
0.000

@<SCITEGIC>MOL_PROPERTY
Tether
SciTegic.value.DoubleValue
0.000

@<TRIPOS>MOLECULE
guest-s19_confgen4.mol2 : confsearch ligand conformer 24
          17          16           1
SMALL
USER_CHARGES
 
@<TRIPOS>ATOM
       1    C1      19.060231   20.012176   19.348053 C.2        1 MOL1         0.6173
       2    O1      18.738667   21.121927   18.970127 O.co2      1 MOL1        -0.6755
       3    O2      18.725427   18.995049   18.770293 O.co2      1 MOL1        -0.6755
       4    C2      19.902764   19.919877   20.571037 C.2        1 MOL1        -0.1504
       5    H1      20.165903   20.866271   21.037730 H          1 MOL1         0.0814
       6    C3      20.331278   18.753151   21.104621 C.2        1 MOL1        -0.1394
       7    H2      20.069170   17.800252   20.645490 H          1 MOL1         0.0817
       8    C4      21.186642   18.662297   22.351391 C.3        1 MOL1        -0.1849
       9    H3      21.653697   19.632003   22.571095 H          1 MOL1         0.0736
      10    H4      22.011480   17.960405   22.169736 H          1 MOL1         0.0736
      11    C5      20.382845   18.183262   23.580050 C.3        1 MOL1        -0.1866
      12    H5      19.913118   17.214512   23.360189 H          1 MOL1         0.0738
      13    H6      21.074299   18.013962   24.416965 H          1 MOL1         0.0738
      14    C6      19.304072   19.197530   24.016329 C.3        1 MOL1        -0.2879
      15    H7      18.555924   19.344432   23.226552 H          1 MOL1         0.0750
      16    H8      18.780667   18.842494   24.913471 H          1 MOL1         0.0750
      17    H9      19.752696   20.172123   24.248702 H          1 MOL1         0.0750
@<TRIPOS>BOND
    1     1     2    1
    2     1     3    2
    3     1     4    1
    4     4     5    1
    5     4     6    2
    6     6     7    1
    7     6     8    1
    8     8     9    1
    9     8    10    1
   10     8    11    1
   11    11    12    1
   12    11    13    1
   13    11    14    1
   14    14    15    1
   15    14    16    1
   16    14    17    1
@<TRIPOS>SUBSTRUCTURE
       1 MOL1            1 RESIDUE      1      MOL     
@<SCITEGIC>MOL_PROPERTY
VConf Rank
SciTegic.value.IntegerValue
24

@<SCITEGIC>MOL_PROPERTY
Conf_Id
SciTegic.value.IntegerValue
45

@<SCITEGIC>MOL_PROPERTY
Delta U+W
SciTegic.value.DoubleValue
0.562

@<SCITEGIC>MOL_PROPERTY
U+W
SciTegic.value.DoubleValue
-52.846

@<SCITEGIC>MOL_PROPERTY
Grad RMS
SciTegic.value.DoubleValue
0.000000

@<SCITEGIC>MOL_PROPERTY
U
SciTegic.value.DoubleValue
10.243

@<SCITEGIC>MOL_PROPERTY
W
SciTegic.value.DoubleValue
-63.089

@<SCITEGIC>MOL_PROPERTY
W(PB)
SciTegic.value.DoubleValue
-65.116

@<SCITEGIC>MOL_PROPERTY
W(SA)
SciTegic.value.DoubleValue
2.026

@<SCITEGIC>MOL_PROPERTY
Valence
SciTegic.value.DoubleValue
2.822

@<SCITEGIC>MOL_PROPERTY
Coulomb
SciTegic.value.DoubleValue
6.637

@<SCITEGIC>MOL_PROPERTY
VdW
SciTegic.value.DoubleValue
0.785

@<SCITEGIC>MOL_PROPERTY
VdW6
SciTegic.value.DoubleValue
-5.216

@<SCITEGIC>MOL_PROPERTY
VdW12
SciTegic.value.DoubleValue
6.001

@<SCITEGIC>MOL_PROPERTY
Bond
SciTegic.value.DoubleValue
0.080

@<SCITEGIC>MOL_PROPERTY
Angle
SciTegic.value.DoubleValue
2.678

@<SCITEGIC>MOL_PROPERTY
Pdih
SciTegic.value.DoubleValue
0.064

@<SCITEGIC>MOL_PROPERTY
Idih
SciTegic.value.DoubleValue
0.000

@<SCITEGIC>MOL_PROPERTY
Tether
SciTegic.value.DoubleValue
0.000

@<TRIPOS>MOLECULE
guest-s19_confgen4.mol2 : confsearch ligand conformer 25
          17          16           1
SMALL
USER_CHARGES
 
@<TRIPOS>ATOM
       1    C1      20.769088   17.682245   24.865686 C.2        1 MOL1         0.6173
       2    O1      20.298425   16.689422   25.385767 O.co2      1 MOL1        -0.6755
       3    O2      21.476493   18.469884   25.465351 O.co2      1 MOL1        -0.6755
       4    C2      20.453196   17.922563   23.431594 C.2        1 MOL1        -0.1504
       5    H1      19.816151   17.180860   22.955191 H          1 MOL1         0.0814
       6    C3      20.906640   18.984584   22.727616 C.2        1 MOL1        -0.1394
       7    H2      21.543560   19.734919   23.195702 H          1 MOL1         0.0817
       8    C4      20.578876   19.222755   21.269850 C.3        1 MOL1        -0.1849
       9    H3      20.573894   18.268694   20.725284 H          1 MOL1         0.0736
      10    H4      21.364118   19.839567   20.812329 H          1 MOL1         0.0736
      11    C5      19.213513   19.921719   21.107836 C.3        1 MOL1        -0.1866
      12    H5      18.426093   19.303823   21.561414 H          1 MOL1         0.0738
      13    H6      19.221657   20.876595   21.651633 H          1 MOL1         0.0738
      14    C6      18.876264   20.176623   19.624997 C.3        1 MOL1        -0.2879
      15    H7      19.632206   20.819259   19.154889 H          1 MOL1         0.0750
      16    H8      18.831338   19.233551   19.064610 H          1 MOL1         0.0750
      17    H9      17.902239   20.673974   19.529869 H          1 MOL1         0.0750
@<TRIPOS>BOND
    1     1     2    1
    2     1     3    2
    3     1     4    1
    4     4     5    1
    5     4     6    2
    6     6     7    1
    7     6     8    1
    8     8     9    1
    9     8    10    1
   10     8    11    1
   11    11    12    1
   12    11    13    1
   13    11    14    1
   14    14    15    1
   15    14    16    1
   16    14    17    1
@<TRIPOS>SUBSTRUCTURE
       1 MOL1            1 RESIDUE      1      MOL     
@<SCITEGIC>MOL_PROPERTY
VConf Rank
SciTegic.value.IntegerValue
25

@<SCITEGIC>MOL_PROPERTY
Conf_Id
SciTegic.value.IntegerValue
36

@<SCITEGIC>MOL_PROPERTY
Delta U+W
SciTegic.value.DoubleValue
0.000

@<SCITEGIC>MOL_PROPERTY
U+W
SciTegic.value.DoubleValue
-53.409

@<SCITEGIC>MOL_PROPERTY
Grad RMS
SciTegic.value.DoubleValue
0.000000

@<SCITEGIC>MOL_PROPERTY
U
SciTegic.value.DoubleValue
9.048

@<SCITEGIC>MOL_PROPERTY
W
SciTegic.value.DoubleValue
-62.457

@<SCITEGIC>MOL_PROPERTY
W(PB)
SciTegic.value.DoubleValue
-64.540

@<SCITEGIC>MOL_PROPERTY
W(SA)
SciTegic.value.DoubleValue
2.084

@<SCITEGIC>MOL_PROPERTY
Valence
SciTegic.value.DoubleValue
2.652

@<SCITEGIC>MOL_PROPERTY
Coulomb
SciTegic.value.DoubleValue
5.578

@<SCITEGIC>MOL_PROPERTY
VdW
SciTegic.value.DoubleValue
0.818

@<SCITEGIC>MOL_PROPERTY
VdW6
SciTegic.value.DoubleValue
-4.534

@<SCITEGIC>MOL_PROPERTY
VdW12
SciTegic.value.DoubleValue
5.352

@<SCITEGIC>MOL_PROPERTY
Bond
SciTegic.value.DoubleValue
0.063

@<SCITEGIC>MOL_PROPERTY
Angle
SciTegic.value.DoubleValue
2.579

@<SCITEGIC>MOL_PROPERTY
Pdih
SciTegic.value.DoubleValue
0.010

@<SCITEGIC>MOL_PROPERTY
Idih
SciTegic.value.DoubleValue
0.000

@<SCITEGIC>MOL_PROPERTY
Tether
SciTegic.value.DoubleValue
0.000

@<TRIPOS>MOLECULE
guest-s19_confgen4.mol2 : confsearch ligand conformer 26
          17          16           1
SMALL
USER_CHARGES
 
@<TRIPOS>ATOM
       1    C1      19.744522   16.966275   19.309651 C.2        1 MOL1         0.6173
       2    O1      20.785641   16.338765   19.257734 O.co2      1 MOL1        -0.6755
       3    O2      18.908377   16.931711   18.427964 O.co2      1 MOL1        -0.6755
       4    C2      19.458987   17.819394   20.494902 C.2        1 MOL1        -0.1504
       5    H1      18.511492   18.353141   20.478291 H          1 MOL1         0.0814
       6    C3      20.298051   17.952991   21.547143 C.2        1 MOL1        -0.1394
       7    H2      21.250842   17.424513   21.573100 H          1 MOL1         0.0817
       8    C4      20.000865   18.824232   22.747917 C.3        1 MOL1        -0.1849
       9    H3      20.557233   18.452372   23.618872 H          1 MOL1         0.0736
      10    H4      18.935166   18.757227   23.005991 H          1 MOL1         0.0736
      11    C5      20.380681   20.295402   22.482554 C.3        1 MOL1        -0.1866
      12    H5      21.447434   20.360082   22.226779 H          1 MOL1         0.0738
      13    H6      19.821776   20.670287   21.613850 H          1 MOL1         0.0738
      14    C6      20.089376   21.188539   23.705245 C.3        1 MOL1        -0.2879
      15    H7      20.660882   20.854369   24.581111 H          1 MOL1         0.0750
      16    H8      20.365809   22.230483   23.497715 H          1 MOL1         0.0750
      17    H9      19.022358   21.165951   23.962923 H          1 MOL1         0.0750
@<TRIPOS>BOND
    1     1     2    1
    2     1     3    2
    3     1     4    1
    4     4     5    1
    5     4     6    2
    6     6     7    1
    7     6     8    1
    8     8     9    1
    9     8    10    1
   10     8    11    1
   11    11    12    1
   12    11    13    1
   13    11    14    1
   14    14    15    1
   15    14    16    1
   16    14    17    1
@<TRIPOS>SUBSTRUCTURE
       1 MOL1            1 RESIDUE      1      MOL     
@<SCITEGIC>MOL_PROPERTY
VConf Rank
SciTegic.value.IntegerValue
26

@<SCITEGIC>MOL_PROPERTY
Conf_Id
SciTegic.value.IntegerValue
1

@<SCITEGIC>MOL_PROPERTY
Delta U+W
SciTegic.value.DoubleValue
0.030

@<SCITEGIC>MOL_PROPERTY
U+W
SciTegic.value.DoubleValue
-53.378

@<SCITEGIC>MOL_PROPERTY
Grad RMS
SciTegic.value.DoubleValue
0.000000

@<SCITEGIC>MOL_PROPERTY
U
SciTegic.value.DoubleValue
9.048

@<SCITEGIC>MOL_PROPERTY
W
SciTegic.value.DoubleValue
-62.426

@<SCITEGIC>MOL_PROPERTY
W(PB)
SciTegic.value.DoubleValue
-64.506

@<SCITEGIC>MOL_PROPERTY
W(SA)
SciTegic.value.DoubleValue
2.080

@<SCITEGIC>MOL_PROPERTY
Valence
SciTegic.value.DoubleValue
2.652

@<SCITEGIC>MOL_PROPERTY
Coulomb
SciTegic.value.DoubleValue
5.578

@<SCITEGIC>MOL_PROPERTY
VdW
SciTegic.value.DoubleValue
0.818

@<SCITEGIC>MOL_PROPERTY
VdW6
SciTegic.value.DoubleValue
-4.535

@<SCITEGIC>MOL_PROPERTY
VdW12
SciTegic.value.DoubleValue
5.352

@<SCITEGIC>MOL_PROPERTY
Bond
SciTegic.value.DoubleValue
0.063

@<SCITEGIC>MOL_PROPERTY
Angle
SciTegic.value.DoubleValue
2.579

@<SCITEGIC>MOL_PROPERTY
Pdih
SciTegic.value.DoubleValue
0.010

@<SCITEGIC>MOL_PROPERTY
Idih
SciTegic.value.DoubleValue
0.000

@<SCITEGIC>MOL_PROPERTY
Tether
SciTegic.value.DoubleValue
0.000

@<TRIPOS>MOLECULE
guest-s19_confgen4.mol2 : confsearch ligand conformer 27
          17          16           1
SMALL
USER_CHARGES
 
@<TRIPOS>ATOM
       1    C1      21.070010   21.984454   22.064791 C.2        1 MOL1         0.6173
       2    O1      20.591408   22.396741   21.024887 O.co2      1 MOL1        -0.6755
       3    O2      21.519737   22.720295   22.921584 O.co2      1 MOL1        -0.6755
       4    C2      21.121594   20.519544   22.320659 C.2        1 MOL1        -0.1504
       5    H1      21.562370   20.218369   23.268166 H          1 MOL1         0.0814
       6    C3      20.657794   19.587021   21.457944 C.2        1 MOL1        -0.1394
       7    H2      20.211217   19.877841   20.507370 H          1 MOL1         0.0817
       8    C4      20.710175   18.097759   21.726959 C.3        1 MOL1        -0.1849
       9    H3      21.670676   17.841445   22.194151 H          1 MOL1         0.0736
      10    H4      20.674388   17.545934   20.778011 H          1 MOL1         0.0736
      11    C5      19.559711   17.625211   22.642760 C.3        1 MOL1        -0.1866
      12    H5      19.708292   16.564551   22.887870 H          1 MOL1         0.0738
      13    H6      19.593651   18.174775   23.593683 H          1 MOL1         0.0738
      14    C6      18.172599   17.802417   21.989131 C.3        1 MOL1        -0.2879
      15    H7      18.111382   17.250632   21.042066 H          1 MOL1         0.0750
      16    H8      17.382732   17.426372   22.652159 H          1 MOL1         0.0750
      17    H9      17.963819   18.860437   21.783641 H          1 MOL1         0.0750
@<TRIPOS>BOND
    1     1     2    1
    2     1     3    2
    3     1     4    1
    4     4     5    1
    5     4     6    2
    6     6     7    1
    7     6     8    1
    8     8     9    1
    9     8    10    1
   10     8    11    1
   11    11    12    1
   12    11    13    1
   13    11    14    1
   14    14    15    1
   15    14    16    1
   16    14    17    1
@<TRIPOS>SUBSTRUCTURE
       1 MOL1            1 RESIDUE      1      MOL     
@<SCITEGIC>MOL_PROPERTY
VConf Rank
SciTegic.value.IntegerValue
27

@<SCITEGIC>MOL_PROPERTY
Conf_Id
SciTegic.value.IntegerValue
3

@<SCITEGIC>MOL_PROPERTY
Delta U+W
SciTegic.value.DoubleValue
0.531

@<SCITEGIC>MOL_PROPERTY
U+W
SciTegic.value.DoubleValue
-52.878

@<SCITEGIC>MOL_PROPERTY
Grad RMS
SciTegic.value.DoubleValue
0.000000

@<SCITEGIC>MOL_PROPERTY
U
SciTegic.value.DoubleValue
10.067

@<SCITEGIC>MOL_PROPERTY
W
SciTegic.value.DoubleValue
-62.945

@<SCITEGIC>MOL_PROPERTY
W(PB)
SciTegic.value.DoubleValue
-64.982

@<SCITEGIC>MOL_PROPERTY
W(SA)
SciTegic.value.DoubleValue
2.037

@<SCITEGIC>MOL_PROPERTY
Valence
SciTegic.value.DoubleValue
2.779

@<SCITEGIC>MOL_PROPERTY
Coulomb
SciTegic.value.DoubleValue
6.474

@<SCITEGIC>MOL_PROPERTY
VdW
SciTegic.value.DoubleValue
0.815

@<SCITEGIC>MOL_PROPERTY
VdW6
SciTegic.value.DoubleValue
-5.088

@<SCITEGIC>MOL_PROPERTY
VdW12
SciTegic.value.DoubleValue
5.902

@<SCITEGIC>MOL_PROPERTY
Bond
SciTegic.value.DoubleValue
0.078

@<SCITEGIC>MOL_PROPERTY
Angle
SciTegic.value.DoubleValue
2.651

@<SCITEGIC>MOL_PROPERTY
Pdih
SciTegic.value.DoubleValue
0.050

@<SCITEGIC>MOL_PROPERTY
Idih
SciTegic.value.DoubleValue
0.000

@<SCITEGIC>MOL_PROPERTY
Tether
SciTegic.value.DoubleValue
0.000

@<TRIPOS>MOLECULE
guest-s19_confgen4.mol2 : confsearch ligand conformer 28
          17          16           1
SMALL
USER_CHARGES
 
@<TRIPOS>ATOM
       1    C1      18.447313   19.681145   19.538855 C.2        1 MOL1         0.6173
       2    O1      17.822861   18.925098   18.820362 O.co2      1 MOL1        -0.6755
       3    O2      18.861839   20.760547   19.160030 O.co2      1 MOL1        -0.6755
       4    C2      18.700230   19.246537   20.939291 C.2        1 MOL1        -0.1504
       5    H1      18.302482   18.271826   21.212128 H          1 MOL1         0.0814
       6    C3      19.381450   19.983961   21.845786 C.2        1 MOL1        -0.1394
       7    H2      19.786498   20.959998   21.579694 H          1 MOL1         0.0817
       8    C4      19.639695   19.537580   23.270001 C.3        1 MOL1        -0.1849
       9    H3      18.961464   18.719192   23.547457 H          1 MOL1         0.0736
      10    H4      19.412066   20.367300   23.952467 H          1 MOL1         0.0736
      11    C5      21.103148   19.095674   23.489525 C.3        1 MOL1        -0.1866
      12    H5      21.782392   19.912856   23.209704 H          1 MOL1         0.0738
      13    H6      21.263812   18.906720   24.559891 H          1 MOL1         0.0738
      14    C6      21.464922   17.823009   22.694369 C.3        1 MOL1        -0.2879
      15    H7      21.378255   17.993274   21.613373 H          1 MOL1         0.0750
      16    H8      22.497820   17.516890   22.904798 H          1 MOL1         0.0750
      17    H9      20.802631   16.990117   22.964098 H          1 MOL1         0.0750
@<TRIPOS>BOND
    1     1     2    1
    2     1     3    2
    3     1     4    1
    4     4     5    1
    5     4     6    2
    6     6     7    1
    7     6     8    1
    8     8     9    1
    9     8    10    1
   10     8    11    1
   11    11    12    1
   12    11    13    1
   13    11    14    1
   14    14    15    1
   15    14    16    1
   16    14    17    1
@<TRIPOS>SUBSTRUCTURE
       1 MOL1            1 RESIDUE      1      MOL     
@<SCITEGIC>MOL_PROPERTY
VConf Rank
SciTegic.value.IntegerValue
28

@<SCITEGIC>MOL_PROPERTY
Conf_Id
SciTegic.value.IntegerValue
45

@<SCITEGIC>MOL_PROPERTY
Delta U+W
SciTegic.value.DoubleValue
0.562

@<SCITEGIC>MOL_PROPERTY
U+W
SciTegic.value.DoubleValue
-52.846

@<SCITEGIC>MOL_PROPERTY
Grad RMS
SciTegic.value.DoubleValue
0.000000

@<SCITEGIC>MOL_PROPERTY
U
SciTegic.value.DoubleValue
10.243

@<SCITEGIC>MOL_PROPERTY
W
SciTegic.value.DoubleValue
-63.089

@<SCITEGIC>MOL_PROPERTY
W(PB)
SciTegic.value.DoubleValue
-65.116

@<SCITEGIC>MOL_PROPERTY
W(SA)
SciTegic.value.DoubleValue
2.026

@<SCITEGIC>MOL_PROPERTY
Valence
SciTegic.value.DoubleValue
2.822

@<SCITEGIC>MOL_PROPERTY
Coulomb
SciTegic.value.DoubleValue
6.637

@<SCITEGIC>MOL_PROPERTY
VdW
SciTegic.value.DoubleValue
0.785

@<SCITEGIC>MOL_PROPERTY
VdW6
SciTegic.value.DoubleValue
-5.216

@<SCITEGIC>MOL_PROPERTY
VdW12
SciTegic.value.DoubleValue
6.001

@<SCITEGIC>MOL_PROPERTY
Bond
SciTegic.value.DoubleValue
0.080

@<SCITEGIC>MOL_PROPERTY
Angle
SciTegic.value.DoubleValue
2.678

@<SCITEGIC>MOL_PROPERTY
Pdih
SciTegic.value.DoubleValue
0.064

@<SCITEGIC>MOL_PROPERTY
Idih
SciTegic.value.DoubleValue
0.000

@<SCITEGIC>MOL_PROPERTY
Tether
SciTegic.value.DoubleValue
0.000

@<TRIPOS>MOLECULE
guest-s19_confgen4.mol2 : confsearch ligand conformer 29
          17          16           1
SMALL
USER_CHARGES
 
@<TRIPOS>ATOM
       1    C1      19.030148   18.492626   25.085235 C.2        1 MOL1         0.6173
       2    O1      18.109942   17.808796   25.489340 O.co2      1 MOL1        -0.6755
       3    O2      19.639569   19.268007   25.797825 O.co2      1 MOL1        -0.6755
       4    C2      19.410348   18.356833   23.653044 C.2        1 MOL1        -0.1504
       5    H1      18.825925   17.646991   23.072112 H          1 MOL1         0.0814
       6    C3      20.411158   19.054614   23.069464 C.2        1 MOL1        -0.1394
       7    H2      21.001479   19.770108   23.641621 H          1 MOL1         0.0817
       8    C4      20.790020   18.912159   21.611586 C.3        1 MOL1        -0.1849
       9    H3      20.712769   17.860232   21.304518 H          1 MOL1         0.0736
      10    H4      21.840768   19.201251   21.474685 H          1 MOL1         0.0736
      11    C5      19.892960   19.784806   20.710041 C.3        1 MOL1        -0.1866
      12    H5      18.841593   19.493964   20.842697 H          1 MOL1         0.0738
      13    H6      19.973498   20.836651   21.017779 H          1 MOL1         0.0738
      14    C6      20.278898   19.652473   19.223076 C.3        1 MOL1        -0.2879
      15    H7      21.317394   19.967736   19.057041 H          1 MOL1         0.0750
      16    H8      20.176973   18.613963   18.881689 H          1 MOL1         0.0750
      17    H9      19.630308   20.279830   18.597868 H          1 MOL1         0.0750
@<TRIPOS>BOND
    1     1     2    1
    2     1     3    2
    3     1     4    1
    4     4     5    1
    5     4     6    2
    6     6     7    1
    7     6     8    1
    8     8     9    1
    9     8    10    1
   10     8    11    1
   11    11    12    1
   12    11    13    1
   13    11    14    1
   14    14    15    1
   15    14    16    1
   16    14    17    1
@<TRIPOS>SUBSTRUCTURE
       1 MOL1            1 RESIDUE      1      MOL     
@<SCITEGIC>MOL_PROPERTY
VConf Rank
SciTegic.value.IntegerValue
29

@<SCITEGIC>MOL_PROPERTY
Conf_Id
SciTegic.value.IntegerValue
36

@<SCITEGIC>MOL_PROPERTY
Delta U+W
SciTegic.value.DoubleValue
0.000

@<SCITEGIC>MOL_PROPERTY
U+W
SciTegic.value.DoubleValue
-53.409

@<SCITEGIC>MOL_PROPERTY
Grad RMS
SciTegic.value.DoubleValue
0.000000

@<SCITEGIC>MOL_PROPERTY
U
SciTegic.value.DoubleValue
9.048

@<SCITEGIC>MOL_PROPERTY
W
SciTegic.value.DoubleValue
-62.457

@<SCITEGIC>MOL_PROPERTY
W(PB)
SciTegic.value.DoubleValue
-64.540

@<SCITEGIC>MOL_PROPERTY
W(SA)
SciTegic.value.DoubleValue
2.084

@<SCITEGIC>MOL_PROPERTY
Valence
SciTegic.value.DoubleValue
2.652

@<SCITEGIC>MOL_PROPERTY
Coulomb
SciTegic.value.DoubleValue
5.578

@<SCITEGIC>MOL_PROPERTY
VdW
SciTegic.value.DoubleValue
0.818

@<SCITEGIC>MOL_PROPERTY
VdW6
SciTegic.value.DoubleValue
-4.534

@<SCITEGIC>MOL_PROPERTY
VdW12
SciTegic.value.DoubleValue
5.352

@<SCITEGIC>MOL_PROPERTY
Bond
SciTegic.value.DoubleValue
0.063

@<SCITEGIC>MOL_PROPERTY
Angle
SciTegic.value.DoubleValue
2.579

@<SCITEGIC>MOL_PROPERTY
Pdih
SciTegic.value.DoubleValue
0.010

@<SCITEGIC>MOL_PROPERTY
Idih
SciTegic.value.DoubleValue
0.000

@<SCITEGIC>MOL_PROPERTY
Tether
SciTegic.value.DoubleValue
0.000

@<TRIPOS>MOLECULE
guest-s19_confgen4.mol2 : confsearch ligand conformer 30
          17          16           1
SMALL
USER_CHARGES
 
@<TRIPOS>ATOM
       1    C1      18.587023   17.053148   19.637917 C.2        1 MOL1         0.6173
       2    O1      17.391819   17.052183   19.865689 O.co2      1 MOL1        -0.6755
       3    O2      19.112426   16.274939   18.865875 O.co2      1 MOL1        -0.6755
       4    C2      19.464549   18.041724   20.321165 C.2        1 MOL1        -0.1504
       5    H1      20.522165   17.988749   20.073069 H          1 MOL1         0.0814
       6    C3      19.016936   18.963662   21.203637 C.2        1 MOL1        -0.1394
       7    H2      17.959652   19.024112   21.461070 H          1 MOL1         0.0817
       8    C4      19.916446   19.964331   21.895578 C.3        1 MOL1        -0.1849
       9    H3      19.329575   20.845227   22.188823 H          1 MOL1         0.0736
      10    H4      20.687773   20.320412   21.199110 H          1 MOL1         0.0736
      11    C5      20.584682   19.350757   23.142978 C.3        1 MOL1        -0.1866
      12    H5      19.811226   18.997331   23.838982 H          1 MOL1         0.0738
      13    H6      21.175635   18.471598   22.850718 H          1 MOL1         0.0738
      14    C6      21.496156   20.367411   23.859325 C.3        1 MOL1        -0.2879
      15    H7      20.923367   21.243508   24.190680 H          1 MOL1         0.0750
      16    H8      21.962235   19.913184   24.743394 H          1 MOL1         0.0750
      17    H9      22.297826   20.713456   23.193733 H          1 MOL1         0.0750
@<TRIPOS>BOND
    1     1     2    1
    2     1     3    2
    3     1     4    1
    4     4     5    1
    5     4     6    2
    6     6     7    1
    7     6     8    1
    8     8     9    1
    9     8    10    1
   10     8    11    1
   11    11    12    1
   12    11    13    1
   13    11    14    1
   14    14    15    1
   15    14    16    1
   16    14    17    1
@<TRIPOS>SUBSTRUCTURE
       1 MOL1            1 RESIDUE      1      MOL     
@<SCITEGIC>MOL_PROPERTY
VConf Rank
SciTegic.value.IntegerValue
30

@<SCITEGIC>MOL_PROPERTY
Conf_Id
SciTegic.value.IntegerValue
1

@<SCITEGIC>MOL_PROPERTY
Delta U+W
SciTegic.value.DoubleValue
0.030

@<SCITEGIC>MOL_PROPERTY
U+W
SciTegic.value.DoubleValue
-53.378

@<SCITEGIC>MOL_PROPERTY
Grad RMS
SciTegic.value.DoubleValue
0.000000

@<SCITEGIC>MOL_PROPERTY
U
SciTegic.value.DoubleValue
9.048

@<SCITEGIC>MOL_PROPERTY
W
SciTegic.value.DoubleValue
-62.426

@<SCITEGIC>MOL_PROPERTY
W(PB)
SciTegic.value.DoubleValue
-64.506

@<SCITEGIC>MOL_PROPERTY
W(SA)
SciTegic.value.DoubleValue
2.080

@<SCITEGIC>MOL_PROPERTY
Valence
SciTegic.value.DoubleValue
2.652

@<SCITEGIC>MOL_PROPERTY
Coulomb
SciTegic.value.DoubleValue
5.578

@<SCITEGIC>MOL_PROPERTY
VdW
SciTegic.value.DoubleValue
0.818

@<SCITEGIC>MOL_PROPERTY
VdW6
SciTegic.value.DoubleValue
-4.535

@<SCITEGIC>MOL_PROPERTY
VdW12
SciTegic.value.DoubleValue
5.352

@<SCITEGIC>MOL_PROPERTY
Bond
SciTegic.value.DoubleValue
0.063

@<SCITEGIC>MOL_PROPERTY
Angle
SciTegic.value.DoubleValue
2.579

@<SCITEGIC>MOL_PROPERTY
Pdih
SciTegic.value.DoubleValue
0.010

@<SCITEGIC>MOL_PROPERTY
Idih
SciTegic.value.DoubleValue
0.000

@<SCITEGIC>MOL_PROPERTY
Tether
SciTegic.value.DoubleValue
0.000

@<TRIPOS>MOLECULE
guest-s19_confgen4.mol2 : confsearch ligand conformer 31
          17          16           1
SMALL
USER_CHARGES
 
@<TRIPOS>ATOM
       1    C1      17.524513   18.906709   20.245619 C.2        1 MOL1         0.6173
       2    O1      17.123062   17.795802   20.537448 O.co2      1 MOL1        -0.6755
       3    O2      16.841021   19.721822   19.657197 O.co2      1 MOL1        -0.6755
       4    C2      18.910156   19.307381   20.611060 C.2        1 MOL1        -0.1504
       5    H1      19.205931   20.312716   20.320236 H          1 MOL1         0.0814
       6    C3      19.778759   18.504390   21.266591 C.2        1 MOL1        -0.1394
       7    H2      19.491700   17.496546   21.565663 H          1 MOL1         0.0817
       8    C4      21.186388   18.920539   21.638634 C.3        1 MOL1        -0.1849
       9    H3      21.633594   19.487817   20.811149 H          1 MOL1         0.0736
      10    H4      21.814918   18.030121   21.774276 H          1 MOL1         0.0736
      11    C5      21.225392   19.780345   22.921121 C.3        1 MOL1        -0.1866
      12    H5      22.251381   20.138953   23.082056 H          1 MOL1         0.0738
      13    H6      20.598303   20.672791   22.787974 H          1 MOL1         0.0738
      14    C6      20.761721   19.000795   24.170129 C.3        1 MOL1        -0.2879
      15    H7      21.383212   18.110151   24.330280 H          1 MOL1         0.0750
      16    H8      20.833901   19.630126   25.066589 H          1 MOL1         0.0750
      17    H9      19.717603   18.676795   24.069811 H          1 MOL1         0.0750
@<TRIPOS>BOND
    1     1     2    1
    2     1     3    2
    3     1     4    1
    4     4     5    1
    5     4     6    2
    6     6     7    1
    7     6     8    1
    8     8     9    1
    9     8    10    1
   10     8    11    1
   11    11    12    1
   12    11    13    1
   13    11    14    1
   14    14    15    1
   15    14    16    1
   16    14    17    1
@<TRIPOS>SUBSTRUCTURE
       1 MOL1            1 RESIDUE      1      MOL     
@<SCITEGIC>MOL_PROPERTY
VConf Rank
SciTegic.value.IntegerValue
31

@<SCITEGIC>MOL_PROPERTY
Conf_Id
SciTegic.value.IntegerValue
3

@<SCITEGIC>MOL_PROPERTY
Delta U+W
SciTegic.value.DoubleValue
0.531

@<SCITEGIC>MOL_PROPERTY
U+W
SciTegic.value.DoubleValue
-52.878

@<SCITEGIC>MOL_PROPERTY
Grad RMS
SciTegic.value.DoubleValue
0.000000

@<SCITEGIC>MOL_PROPERTY
U
SciTegic.value.DoubleValue
10.067

@<SCITEGIC>MOL_PROPERTY
W
SciTegic.value.DoubleValue
-62.945

@<SCITEGIC>MOL_PROPERTY
W(PB)
SciTegic.value.DoubleValue
-64.982

@<SCITEGIC>MOL_PROPERTY
W(SA)
SciTegic.value.DoubleValue
2.037

@<SCITEGIC>MOL_PROPERTY
Valence
SciTegic.value.DoubleValue
2.779

@<SCITEGIC>MOL_PROPERTY
Coulomb
SciTegic.value.DoubleValue
6.474

@<SCITEGIC>MOL_PROPERTY
VdW
SciTegic.value.DoubleValue
0.815

@<SCITEGIC>MOL_PROPERTY
VdW6
SciTegic.value.DoubleValue
-5.088

@<SCITEGIC>MOL_PROPERTY
VdW12
SciTegic.value.DoubleValue
5.902

@<SCITEGIC>MOL_PROPERTY
Bond
SciTegic.value.DoubleValue
0.078

@<SCITEGIC>MOL_PROPERTY
Angle
SciTegic.value.DoubleValue
2.651

@<SCITEGIC>MOL_PROPERTY
Pdih
SciTegic.value.DoubleValue
0.050

@<SCITEGIC>MOL_PROPERTY
Idih
SciTegic.value.DoubleValue
0.000

@<SCITEGIC>MOL_PROPERTY
Tether
SciTegic.value.DoubleValue
0.000

@<TRIPOS>MOLECULE
guest-s19_confgen4.mol2 : confsearch ligand conformer 32
          17          16           1
SMALL
USER_CHARGES
 
@<TRIPOS>ATOM
       1    C1      21.958413   20.468001   20.254637 C.2        1 MOL1         0.6173
       2    O1      21.792418   20.945554   19.149119 O.co2      1 MOL1        -0.6755
       3    O2      23.052531   20.142636   20.675932 O.co2      1 MOL1        -0.6755
       4    C2      20.756243   20.286261   21.112442 C.2        1 MOL1        -0.1504
       5    H1      19.810500   20.597553   20.674978 H          1 MOL1         0.0814
       6    C3      20.792703   19.766000   22.360474 C.2        1 MOL1        -0.1394
       7    H2      21.735535   19.448177   22.804968 H          1 MOL1         0.0817
       8    C4      19.566716   19.579676   23.230288 C.3        1 MOL1        -0.1849
       9    H3      18.731054   20.186115   22.855269 H          1 MOL1         0.0736
      10    H4      19.784236   19.951263   24.240545 H          1 MOL1         0.0736
      11    C5      19.133412   18.100233   23.323363 C.3        1 MOL1        -0.1866
      12    H5      19.969634   17.492465   23.695933 H          1 MOL1         0.0738
      13    H6      18.325578   18.009143   24.062487 H          1 MOL1         0.0738
      14    C6      18.643772   17.538572   21.971468 C.3        1 MOL1        -0.2879
      15    H7      19.446065   17.553456   21.222363 H          1 MOL1         0.0750
      16    H8      18.307976   16.499601   22.083925 H          1 MOL1         0.0750
      17    H9      17.802096   18.127014   21.583641 H          1 MOL1         0.0750
@<TRIPOS>BOND
    1     1     2    1
    2     1     3    2
    3     1     4    1
    4     4     5    1
    5     4     6    2
    6     6     7    1
    7     6     8    1
    8     8     9    1
    9     8    10    1
   10     8    11    1
   11    11    12    1
   12    11    13    1
   13    11    14    1
   14    14    15    1
   15    14    16    1
   16    14    17    1
@<TRIPOS>SUBSTRUCTURE
       1 MOL1            1 RESIDUE      1      MOL     
@<SCITEGIC>MOL_PROPERTY
VConf Rank
SciTegic.value.IntegerValue
32

@<SCITEGIC>MOL_PROPERTY
Conf_Id
SciTegic.value.IntegerValue
45

@<SCITEGIC>MOL_PROPERTY
Delta U+W
SciTegic.value.DoubleValue
0.562

@<SCITEGIC>MOL_PROPERTY
U+W
SciTegic.value.DoubleValue
-52.846

@<SCITEGIC>MOL_PROPERTY
Grad RMS
SciTegic.value.DoubleValue
0.000000

@<SCITEGIC>MOL_PROPERTY
U
SciTegic.value.DoubleValue
10.243

@<SCITEGIC>MOL_PROPERTY
W
SciTegic.value.DoubleValue
-63.089

@<SCITEGIC>MOL_PROPERTY
W(PB)
SciTegic.value.DoubleValue
-65.116

@<SCITEGIC>MOL_PROPERTY
W(SA)
SciTegic.value.DoubleValue
2.026

@<SCITEGIC>MOL_PROPERTY
Valence
SciTegic.value.DoubleValue
2.822

@<SCITEGIC>MOL_PROPERTY
Coulomb
SciTegic.value.DoubleValue
6.637

@<SCITEGIC>MOL_PROPERTY
VdW
SciTegic.value.DoubleValue
0.785

@<SCITEGIC>MOL_PROPERTY
VdW6
SciTegic.value.DoubleValue
-5.216

@<SCITEGIC>MOL_PROPERTY
VdW12
SciTegic.value.DoubleValue
6.001

@<SCITEGIC>MOL_PROPERTY
Bond
SciTegic.value.DoubleValue
0.080

@<SCITEGIC>MOL_PROPERTY
Angle
SciTegic.value.DoubleValue
2.678

@<SCITEGIC>MOL_PROPERTY
Pdih
SciTegic.value.DoubleValue
0.064

@<SCITEGIC>MOL_PROPERTY
Idih
SciTegic.value.DoubleValue
0.000

@<SCITEGIC>MOL_PROPERTY
Tether
SciTegic.value.DoubleValue
0.000

@<TRIPOS>MOLECULE
guest-s19_confgen4.mol2 : confsearch ligand conformer 33
          17          16           1
SMALL
USER_CHARGES
 
@<TRIPOS>ATOM
       1    C1      22.378877   18.523098   24.222789 C.2        1 MOL1         0.6173
       2    O1      23.397727   17.867256   24.125216 O.co2      1 MOL1        -0.6755
       3    O2      21.937877   18.903549   25.291045 O.co2      1 MOL1        -0.6755
       4    C2      21.657881   18.864245   22.966626 C.2        1 MOL1        -0.1504
       5    H1      22.105190   18.493759   22.047081 H          1 MOL1         0.0814
       6    C3      20.514241   19.585022   22.925945 C.2        1 MOL1        -0.1394
       7    H2      20.056233   19.959066   23.841419 H          1 MOL1         0.0817
       8    C4      19.786033   19.925773   21.644213 C.3        1 MOL1        -0.1849
       9    H3      20.510090   20.152771   20.849843 H          1 MOL1         0.0736
      10    H4      19.188337   20.835426   21.791451 H          1 MOL1         0.0736
      11    C5      18.866779   18.771094   21.196213 C.3        1 MOL1        -0.1866
      12    H5      19.463922   17.861189   21.044381 H          1 MOL1         0.0738
      13    H6      18.142213   18.547282   21.991500 H          1 MOL1         0.0738
      14    C6      18.113598   19.114313   19.895273 C.3        1 MOL1        -0.2879
      15    H7      17.483194   20.003215   20.028971 H          1 MOL1         0.0750
      16    H8      18.816180   19.312299   19.075142 H          1 MOL1         0.0750
      17    H9      17.465380   18.281679   19.592510 H          1 MOL1         0.0750
@<TRIPOS>BOND
    1     1     2    1
    2     1     3    2
    3     1     4    1
    4     4     5    1
    5     4     6    2
    6     6     7    1
    7     6     8    1
    8     8     9    1
    9     8    10    1
   10     8    11    1
   11    11    12    1
   12    11    13    1
   13    11    14    1
   14    14    15    1
   15    14    16    1
   16    14    17    1
@<TRIPOS>SUBSTRUCTURE
       1 MOL1            1 RESIDUE      1      MOL     
@<SCITEGIC>MOL_PROPERTY
VConf Rank
SciTegic.value.IntegerValue
33

@<SCITEGIC>MOL_PROPERTY
Conf_Id
SciTegic.value.IntegerValue
36

@<SCITEGIC>MOL_PROPERTY
Delta U+W
SciTegic.value.DoubleValue
0.000

@<SCITEGIC>MOL_PROPERTY
U+W
SciTegic.value.DoubleValue
-53.409

@<SCITEGIC>MOL_PROPERTY
Grad RMS
SciTegic.value.DoubleValue
0.000000

@<SCITEGIC>MOL_PROPERTY
U
SciTegic.value.DoubleValue
9.048

@<SCITEGIC>MOL_PROPERTY
W
SciTegic.value.DoubleValue
-62.457

@<SCITEGIC>MOL_PROPERTY
W(PB)
SciTegic.value.DoubleValue
-64.540

@<SCITEGIC>MOL_PROPERTY
W(SA)
SciTegic.value.DoubleValue
2.084

@<SCITEGIC>MOL_PROPERTY
Valence
SciTegic.value.DoubleValue
2.652

@<SCITEGIC>MOL_PROPERTY
Coulomb
SciTegic.value.DoubleValue
5.578

@<SCITEGIC>MOL_PROPERTY
VdW
SciTegic.value.DoubleValue
0.818

@<SCITEGIC>MOL_PROPERTY
VdW6
SciTegic.value.DoubleValue
-4.534

@<SCITEGIC>MOL_PROPERTY
VdW12
SciTegic.value.DoubleValue
5.352

@<SCITEGIC>MOL_PROPERTY
Bond
SciTegic.value.DoubleValue
0.063

@<SCITEGIC>MOL_PROPERTY
Angle
SciTegic.value.DoubleValue
2.579

@<SCITEGIC>MOL_PROPERTY
Pdih
SciTegic.value.DoubleValue
0.010

@<SCITEGIC>MOL_PROPERTY
Idih
SciTegic.value.DoubleValue
0.000

@<SCITEGIC>MOL_PROPERTY
Tether
SciTegic.value.DoubleValue
0.000

@<TRIPOS>MOLECULE
guest-s19_confgen4.mol2 : confsearch ligand conformer 34
          17          16           1
SMALL
USER_CHARGES
 
@<TRIPOS>ATOM
       1    C1      23.083108   17.710051   22.126522 C.2        1 MOL1         0.6173
       2    O1      22.927019   16.560343   22.492859 O.co2      1 MOL1        -0.6755
       3    O2      24.173284   18.245872   22.080496 O.co2      1 MOL1        -0.6755
       4    C2      21.903101   18.515353   21.710307 C.2        1 MOL1        -0.1504
       5    H1      22.111913   19.534802   21.394032 H          1 MOL1         0.0814
       6    C3      20.633653   18.048895   21.712122 C.2        1 MOL1        -0.1394
       7    H2      20.412906   17.029811   22.029159 H          1 MOL1         0.0817
       8    C4      19.438863   18.875155   21.289027 C.3        1 MOL1        -0.1849
       9    H3      18.632271   18.209954   20.952417 H          1 MOL1         0.0736
      10    H4      19.703610   19.505311   20.429017 H          1 MOL1         0.0736
      11    C5      18.929548   19.759780   22.445338 C.3        1 MOL1        -0.1866
      12    H5      18.663364   19.127110   23.303500 H          1 MOL1         0.0738
      13    H6      19.734200   20.428870   22.780619 H          1 MOL1         0.0738
      14    C6      17.705862   20.598400   22.024822 C.3        1 MOL1        -0.2879
      15    H7      16.874330   19.952073   21.714583 H          1 MOL1         0.0750
      16    H8      17.358069   21.220630   22.859687 H          1 MOL1         0.0750
      17    H9      17.954391   21.263323   21.187238 H          1 MOL1         0.0750
@<TRIPOS>BOND
    1     1     2    1
    2     1     3    2
    3     1     4    1
    4     4     5    1
    5     4     6    2
    6     6     7    1
    7     6     8    1
    8     8     9    1
    9     8    10    1
   10     8    11    1
   11    11    12    1
   12    11    13    1
   13    11    14    1
   14    14    15    1
   15    14    16    1
   16    14    17    1
@<TRIPOS>SUBSTRUCTURE
       1 MOL1            1 RESIDUE      1      MOL     
@<SCITEGIC>MOL_PROPERTY
VConf Rank
SciTegic.value.IntegerValue
34

@<SCITEGIC>MOL_PROPERTY
Conf_Id
SciTegic.value.IntegerValue
1

@<SCITEGIC>MOL_PROPERTY
Delta U+W
SciTegic.value.DoubleValue
0.030

@<SCITEGIC>MOL_PROPERTY
U+W
SciTegic.value.DoubleValue
-53.378

@<SCITEGIC>MOL_PROPERTY
Grad RMS
SciTegic.value.DoubleValue
0.000000

@<SCITEGIC>MOL_PROPERTY
U
SciTegic.value.DoubleValue
9.048

@<SCITEGIC>MOL_PROPERTY
W
SciTegic.value.DoubleValue
-62.426

@<SCITEGIC>MOL_PROPERTY
W(PB)
SciTegic.value.DoubleValue
-64.506

@<SCITEGIC>MOL_PROPERTY
W(SA)
SciTegic.value.DoubleValue
2.080

@<SCITEGIC>MOL_PROPERTY
Valence
SciTegic.value.DoubleValue
2.652

@<SCITEGIC>MOL_PROPERTY
Coulomb
SciTegic.value.DoubleValue
5.578

@<SCITEGIC>MOL_PROPERTY
VdW
SciTegic.value.DoubleValue
0.818

@<SCITEGIC>MOL_PROPERTY
VdW6
SciTegic.value.DoubleValue
-4.535

@<SCITEGIC>MOL_PROPERTY
VdW12
SciTegic.value.DoubleValue
5.352

@<SCITEGIC>MOL_PROPERTY
Bond
SciTegic.value.DoubleValue
0.063

@<SCITEGIC>MOL_PROPERTY
Angle
SciTegic.value.DoubleValue
2.579

@<SCITEGIC>MOL_PROPERTY
Pdih
SciTegic.value.DoubleValue
0.010

@<SCITEGIC>MOL_PROPERTY
Idih
SciTegic.value.DoubleValue
0.000

@<SCITEGIC>MOL_PROPERTY
Tether
SciTegic.value.DoubleValue
0.000

@<TRIPOS>MOLECULE
guest-s19_confgen4.mol2 : confsearch ligand conformer 35
          17          16           1
SMALL
USER_CHARGES
 
@<TRIPOS>ATOM
       1    C1      18.360954   18.091932   19.648838 C.2        1 MOL1         0.6173
       2    O1      17.331121   17.770046   20.211219 O.co2      1 MOL1        -0.6755
       3    O2      18.436160   18.241918   18.444820 O.co2      1 MOL1        -0.6755
       4    C2      19.596540   18.314084   20.447629 C.2        1 MOL1        -0.1504
       5    H1      20.481722   18.598730   19.883547 H          1 MOL1         0.0814
       6    C3      19.658060   18.184430   21.792394 C.2        1 MOL1        -0.1394
       7    H2      18.776398   17.902991   22.367773 H          1 MOL1         0.0817
       8    C4      20.918444   18.415981   22.599134 C.3        1 MOL1        -0.1849
       9    H3      21.780203   17.992569   22.065637 H          1 MOL1         0.0736
      10    H4      20.854389   17.876848   23.553873 H          1 MOL1         0.0736
      11    C5      21.176520   19.914730   22.868784 C.3        1 MOL1        -0.1866
      12    H5      22.151653   20.028196   23.362133 H          1 MOL1         0.0738
      13    H6      21.242349   20.456692   21.915174 H          1 MOL1         0.0738
      14    C6      20.085506   20.552645   23.755048 C.3        1 MOL1        -0.2879
      15    H7      20.010517   20.034248   24.719821 H          1 MOL1         0.0750
      16    H8      20.317553   21.606929   23.953911 H          1 MOL1         0.0750
      17    H9      19.103467   20.510829   23.266097 H          1 MOL1         0.0750
@<TRIPOS>BOND
    1     1     2    1
    2     1     3    2
    3     1     4    1
    4     4     5    1
    5     4     6    2
    6     6     7    1
    7     6     8    1
    8     8     9    1
    9     8    10    1
   10     8    11    1
   11    11    12    1
   12    11    13    1
   13    11    14    1
   14    14    15    1
   15    14    16    1
   16    14    17    1
@<TRIPOS>SUBSTRUCTURE
       1 MOL1            1 RESIDUE      1      MOL     
@<SCITEGIC>MOL_PROPERTY
VConf Rank
SciTegic.value.IntegerValue
35

@<SCITEGIC>MOL_PROPERTY
Conf_Id
SciTegic.value.IntegerValue
3

@<SCITEGIC>MOL_PROPERTY
Delta U+W
SciTegic.value.DoubleValue
0.531

@<SCITEGIC>MOL_PROPERTY
U+W
SciTegic.value.DoubleValue
-52.878

@<SCITEGIC>MOL_PROPERTY
Grad RMS
SciTegic.value.DoubleValue
0.000000

@<SCITEGIC>MOL_PROPERTY
U
SciTegic.value.DoubleValue
10.067

@<SCITEGIC>MOL_PROPERTY
W
SciTegic.value.DoubleValue
-62.945

@<SCITEGIC>MOL_PROPERTY
W(PB)
SciTegic.value.DoubleValue
-64.982

@<SCITEGIC>MOL_PROPERTY
W(SA)
SciTegic.value.DoubleValue
2.037

@<SCITEGIC>MOL_PROPERTY
Valence
SciTegic.value.DoubleValue
2.779

@<SCITEGIC>MOL_PROPERTY
Coulomb
SciTegic.value.DoubleValue
6.474

@<SCITEGIC>MOL_PROPERTY
VdW
SciTegic.value.DoubleValue
0.815

@<SCITEGIC>MOL_PROPERTY
VdW6
SciTegic.value.DoubleValue
-5.088

@<SCITEGIC>MOL_PROPERTY
VdW12
SciTegic.value.DoubleValue
5.902

@<SCITEGIC>MOL_PROPERTY
Bond
SciTegic.value.DoubleValue
0.078

@<SCITEGIC>MOL_PROPERTY
Angle
SciTegic.value.DoubleValue
2.651

@<SCITEGIC>MOL_PROPERTY
Pdih
SciTegic.value.DoubleValue
0.050

@<SCITEGIC>MOL_PROPERTY
Idih
SciTegic.value.DoubleValue
0.000

@<SCITEGIC>MOL_PROPERTY
Tether
SciTegic.value.DoubleValue
0.000

@<TRIPOS>MOLECULE
guest-s19_confgen4.mol2 : confsearch ligand conformer 36
          17          16           1
SMALL
USER_CHARGES
 
@<TRIPOS>ATOM
       1    C1      20.803546   17.287360   19.806960 C.2        1 MOL1         0.6173
       2    O1      20.257272   17.083536   18.740273 O.co2      1 MOL1        -0.6755
       3    O2      21.607725   16.515716   20.295129 O.co2      1 MOL1        -0.6755
       4    C2      20.459646   18.543663   20.526341 C.2        1 MOL1        -0.1504
       5    H1      19.734627   19.188044   20.034582 H          1 MOL1         0.0814
       6    C3      20.988067   18.897203   21.720227 C.2        1 MOL1        -0.1394
       7    H2      21.712354   18.255661   22.221575 H          1 MOL1         0.0817
       8    C4      20.633889   20.175566   22.451448 C.3        1 MOL1        -0.1849
       9    H3      20.156830   20.891799   21.768687 H          1 MOL1         0.0736
      10    H4      21.557397   20.655981   22.801226 H          1 MOL1         0.0736
      11    C5      19.711580   19.921095   23.663783 C.3        1 MOL1        -0.1866
      12    H5      20.186899   19.202683   24.345997 H          1 MOL1         0.0738
      13    H6      19.593040   20.857175   24.226722 H          1 MOL1         0.0738
      14    C6      18.317467   19.402573   23.250968 C.3        1 MOL1        -0.2879
      15    H7      18.390414   18.433414   22.740611 H          1 MOL1         0.0750
      16    H8      17.677807   19.270711   24.133189 H          1 MOL1         0.0750
      17    H9      17.820323   20.109541   22.574111 H          1 MOL1         0.0750
@<TRIPOS>BOND
    1     1     2    1
    2     1     3    2
    3     1     4    1
    4     4     5    1
    5     4     6    2
    6     6     7    1
    7     6     8    1
    8     8     9    1
    9     8    10    1
   10     8    11    1
   11    11    12    1
   12    11    13    1
   13    11    14    1
   14    14    15    1
   15    14    16    1
   16    14    17    1
@<TRIPOS>SUBSTRUCTURE
       1 MOL1            1 RESIDUE      1      MOL     
@<SCITEGIC>MOL_PROPERTY
VConf Rank
SciTegic.value.IntegerValue
36

@<SCITEGIC>MOL_PROPERTY
Conf_Id
SciTegic.value.IntegerValue
45

@<SCITEGIC>MOL_PROPERTY
Delta U+W
SciTegic.value.DoubleValue
0.562

@<SCITEGIC>MOL_PROPERTY
U+W
SciTegic.value.DoubleValue
-52.846

@<SCITEGIC>MOL_PROPERTY
Grad RMS
SciTegic.value.DoubleValue
0.000000

@<SCITEGIC>MOL_PROPERTY
U
SciTegic.value.DoubleValue
10.243

@<SCITEGIC>MOL_PROPERTY
W
SciTegic.value.DoubleValue
-63.089

@<SCITEGIC>MOL_PROPERTY
W(PB)
SciTegic.value.DoubleValue
-65.116

@<SCITEGIC>MOL_PROPERTY
W(SA)
SciTegic.value.DoubleValue
2.026

@<SCITEGIC>MOL_PROPERTY
Valence
SciTegic.value.DoubleValue
2.822

@<SCITEGIC>MOL_PROPERTY
Coulomb
SciTegic.value.DoubleValue
6.637

@<SCITEGIC>MOL_PROPERTY
VdW
SciTegic.value.DoubleValue
0.785

@<SCITEGIC>MOL_PROPERTY
VdW6
SciTegic.value.DoubleValue
-5.216

@<SCITEGIC>MOL_PROPERTY
VdW12
SciTegic.value.DoubleValue
6.001

@<SCITEGIC>MOL_PROPERTY
Bond
SciTegic.value.DoubleValue
0.080

@<SCITEGIC>MOL_PROPERTY
Angle
SciTegic.value.DoubleValue
2.678

@<SCITEGIC>MOL_PROPERTY
Pdih
SciTegic.value.DoubleValue
0.064

@<SCITEGIC>MOL_PROPERTY
Idih
SciTegic.value.DoubleValue
0.000

@<SCITEGIC>MOL_PROPERTY
Tether
SciTegic.value.DoubleValue
0.000

@<TRIPOS>MOLECULE
guest-s19_confgen4.mol2 : confsearch ligand conformer 37
          17          16           1
SMALL
USER_CHARGES
 
@<TRIPOS>ATOM
       1    C1      20.853465   17.672002   18.989846 C.2        1 MOL1         0.6173
       2    O1      20.486958   17.939405   17.862073 O.co2      1 MOL1        -0.6755
       3    O2      21.450114   16.648005   19.265225 O.co2      1 MOL1        -0.6755
       4    C2      20.548697   18.656315   20.063348 C.2        1 MOL1        -0.1504
       5    H1      20.013496   19.549785   19.750011 H          1 MOL1         0.0814
       6    C3      20.894837   18.488812   21.359964 C.2        1 MOL1        -0.1394
       7    H2      21.429135   17.596337   21.685213 H          1 MOL1         0.0817
       8    C4      20.579131   19.493841   22.446005 C.3        1 MOL1        -0.1849
       9    H3      20.697746   20.514998   22.058736 H          1 MOL1         0.0736
      10    H4      21.299662   19.385726   23.267914 H          1 MOL1         0.0736
      11    C5      19.147043   19.305358   22.986941 C.3        1 MOL1        -0.1866
      12    H5      18.424573   19.417400   22.166548 H          1 MOL1         0.0738
      13    H6      19.031494   18.283989   23.375556 H          1 MOL1         0.0738
      14    C6      18.820631   20.320074   24.101092 C.3        1 MOL1        -0.2879
      15    H7      19.509418   20.208128   24.948719 H          1 MOL1         0.0750
      16    H8      18.898720   21.350220   23.729424 H          1 MOL1         0.0750
      17    H9      17.798632   20.170642   24.473003 H          1 MOL1         0.0750
@<TRIPOS>BOND
    1     1     2    1
    2     1     3    2
    3     1     4    1
    4     4     5    1
    5     4     6    2
    6     6     7    1
    7     6     8    1
    8     8     9    1
    9     8    10    1
   10     8    11    1
   11    11    12    1
   12    11    13    1
   13    11    14    1
   14    14    15    1
   15    14    16    1
   16    14    17    1
@<TRIPOS>SUBSTRUCTURE
       1 MOL1            1 RESIDUE      1      MOL     
@<SCITEGIC>MOL_PROPERTY
VConf Rank
SciTegic.value.IntegerValue
37

@<SCITEGIC>MOL_PROPERTY
Conf_Id
SciTegic.value.IntegerValue
36

@<SCITEGIC>MOL_PROPERTY
Delta U+W
SciTegic.value.DoubleValue
0.000

@<SCITEGIC>MOL_PROPERTY
U+W
SciTegic.value.DoubleValue
-53.409

@<SCITEGIC>MOL_PROPERTY
Grad RMS
SciTegic.value.DoubleValue
0.000000

@<SCITEGIC>MOL_PROPERTY
U
SciTegic.value.DoubleValue
9.048

@<SCITEGIC>MOL_PROPERTY
W
SciTegic.value.DoubleValue
-62.457

@<SCITEGIC>MOL_PROPERTY
W(PB)
SciTegic.value.DoubleValue
-64.540

@<SCITEGIC>MOL_PROPERTY
W(SA)
SciTegic.value.DoubleValue
2.084

@<SCITEGIC>MOL_PROPERTY
Valence
SciTegic.value.DoubleValue
2.652

@<SCITEGIC>MOL_PROPERTY
Coulomb
SciTegic.value.DoubleValue
5.578

@<SCITEGIC>MOL_PROPERTY
VdW
SciTegic.value.DoubleValue
0.818

@<SCITEGIC>MOL_PROPERTY
VdW6
SciTegic.value.DoubleValue
-4.534

@<SCITEGIC>MOL_PROPERTY
VdW12
SciTegic.value.DoubleValue
5.352

@<SCITEGIC>MOL_PROPERTY
Bond
SciTegic.value.DoubleValue
0.063

@<SCITEGIC>MOL_PROPERTY
Angle
SciTegic.value.DoubleValue
2.579

@<SCITEGIC>MOL_PROPERTY
Pdih
SciTegic.value.DoubleValue
0.010

@<SCITEGIC>MOL_PROPERTY
Idih
SciTegic.value.DoubleValue
0.000

@<SCITEGIC>MOL_PROPERTY
Tether
SciTegic.value.DoubleValue
0.000

@<TRIPOS>MOLECULE
guest-s19_confgen4.mol2 : confsearch ligand conformer 38
          17          16           1
SMALL
USER_CHARGES
 
@<TRIPOS>ATOM
       1    C1      23.083483   18.138899   20.891136 C.2        1 MOL1         0.6173
       2    O1      23.886978   18.787655   21.534490 O.co2      1 MOL1        -0.6755
       3    O2      23.398793   17.461198   19.932487 O.co2      1 MOL1        -0.6755
       4    C2      21.646294   18.158793   21.276174 C.2        1 MOL1        -0.1504
       5    H1      20.981553   17.557503   20.660155 H          1 MOL1         0.0814
       6    C3      21.154755   18.867831   22.317683 C.2        1 MOL1        -0.1394
       7    H2      21.811509   19.475334   22.940088 H          1 MOL1         0.0817
       8    C4      19.691296   18.884071   22.701433 C.3        1 MOL1        -0.1849
       9    H3      19.593198   19.131706   23.767004 H          1 MOL1         0.0736
      10    H4      19.257999   17.882905   22.572097 H          1 MOL1         0.0736
      11    C5      18.900800   19.906165   21.859140 C.3        1 MOL1        -0.1866
      12    H5      19.334689   20.907013   21.991844 H          1 MOL1         0.0738
      13    H6      18.994543   19.657425   20.792884 H          1 MOL1         0.0738
      14    C6      17.409699   19.935440   22.250658 C.3        1 MOL1        -0.2879
      15    H7      17.285770   20.212990   23.305665 H          1 MOL1         0.0750
      16    H8      16.864165   20.667739   21.641346 H          1 MOL1         0.0750
      17    H9      16.943967   18.953066   22.097458 H          1 MOL1         0.0750
@<TRIPOS>BOND
    1     1     2    1
    2     1     3    2
    3     1     4    1
    4     4     5    1
    5     4     6    2
    6     6     7    1
    7     6     8    1
    8     8     9    1
    9     8    10    1
   10     8    11    1
   11    11    12    1
   12    11    13    1
   13    11    14    1
   14    14    15    1
   15    14    16    1
   16    14    17    1
@<TRIPOS>SUBSTRUCTURE
       1 MOL1            1 RESIDUE      1      MOL     
@<SCITEGIC>MOL_PROPERTY
VConf Rank
SciTegic.value.IntegerValue
38

@<SCITEGIC>MOL_PROPERTY
Conf_Id
SciTegic.value.IntegerValue
1

@<SCITEGIC>MOL_PROPERTY
Delta U+W
SciTegic.value.DoubleValue
0.030

@<SCITEGIC>MOL_PROPERTY
U+W
SciTegic.value.DoubleValue
-53.378

@<SCITEGIC>MOL_PROPERTY
Grad RMS
SciTegic.value.DoubleValue
0.000000

@<SCITEGIC>MOL_PROPERTY
U
SciTegic.value.DoubleValue
9.048

@<SCITEGIC>MOL_PROPERTY
W
SciTegic.value.DoubleValue
-62.426

@<SCITEGIC>MOL_PROPERTY
W(PB)
SciTegic.value.DoubleValue
-64.506

@<SCITEGIC>MOL_PROPERTY
W(SA)
SciTegic.value.DoubleValue
2.080

@<SCITEGIC>MOL_PROPERTY
Valence
SciTegic.value.DoubleValue
2.652

@<SCITEGIC>MOL_PROPERTY
Coulomb
SciTegic.value.DoubleValue
5.578

@<SCITEGIC>MOL_PROPERTY
VdW
SciTegic.value.DoubleValue
0.818

@<SCITEGIC>MOL_PROPERTY
VdW6
SciTegic.value.DoubleValue
-4.535

@<SCITEGIC>MOL_PROPERTY
VdW12
SciTegic.value.DoubleValue
5.352

@<SCITEGIC>MOL_PROPERTY
Bond
SciTegic.value.DoubleValue
0.063

@<SCITEGIC>MOL_PROPERTY
Angle
SciTegic.value.DoubleValue
2.579

@<SCITEGIC>MOL_PROPERTY
Pdih
SciTegic.value.DoubleValue
0.010

@<SCITEGIC>MOL_PROPERTY
Idih
SciTegic.value.DoubleValue
0.000

@<SCITEGIC>MOL_PROPERTY
Tether
SciTegic.value.DoubleValue
0.000

@<TRIPOS>MOLECULE
guest-s19_confgen4.mol2 : confsearch ligand conformer 39
          17          16           1
SMALL
USER_CHARGES
 
@<TRIPOS>ATOM
       1    C1      21.410456   16.374446   22.491413 C.2        1 MOL1         0.6173
       2    O1      20.629645   15.850038   23.263276 O.co2      1 MOL1        -0.6755
       3    O2      22.264476   15.750987   21.891613 O.co2      1 MOL1        -0.6755
       4    C2      21.339150   17.842160   22.257271 C.2        1 MOL1        -0.1504
       5    H1      22.065959   18.247001   21.556832 H          1 MOL1         0.0814
       6    C3      20.440699   18.657804   22.854343 C.2        1 MOL1        -0.1394
       7    H2      19.705879   18.262232   23.555171 H          1 MOL1         0.0817
       8    C4      20.371642   20.150324   22.608114 C.3        1 MOL1        -0.1849
       9    H3      21.388502   20.562234   22.554707 H          1 MOL1         0.0736
      10    H4      19.884654   20.646397   23.458436 H          1 MOL1         0.0736
      11    C5      19.616090   20.496808   21.306327 C.3        1 MOL1        -0.1866
      12    H5      19.688901   21.578120   21.125727 H          1 MOL1         0.0738
      13    H6      20.101839   20.002800   20.453431 H          1 MOL1         0.0738
      14    C6      18.127072   20.093709   21.361538 C.3        1 MOL1        -0.2879
      15    H7      17.617746   20.586215   22.200090 H          1 MOL1         0.0750
      16    H8      17.614082   20.384226   20.435606 H          1 MOL1         0.0750
      17    H9      18.014764   19.008300   21.481938 H          1 MOL1         0.0750
@<TRIPOS>BOND
    1     1     2    1
    2     1     3    2
    3     1     4    1
    4     4     5    1
    5     4     6    2
    6     6     7    1
    7     6     8    1
    8     8     9    1
    9     8    10    1
   10     8    11    1
   11    11    12    1
   12    11    13    1
   13    11    14    1
   14    14    15    1
   15    14    16    1
   16    14    17    1
@<TRIPOS>SUBSTRUCTURE
       1 MOL1            1 RESIDUE      1      MOL     
@<SCITEGIC>MOL_PROPERTY
VConf Rank
SciTegic.value.IntegerValue
39

@<SCITEGIC>MOL_PROPERTY
Conf_Id
SciTegic.value.IntegerValue
3

@<SCITEGIC>MOL_PROPERTY
Delta U+W
SciTegic.value.DoubleValue
0.531

@<SCITEGIC>MOL_PROPERTY
U+W
SciTegic.value.DoubleValue
-52.878

@<SCITEGIC>MOL_PROPERTY
Grad RMS
SciTegic.value.DoubleValue
0.000000

@<SCITEGIC>MOL_PROPERTY
U
SciTegic.value.DoubleValue
10.067

@<SCITEGIC>MOL_PROPERTY
W
SciTegic.value.DoubleValue
-62.945

@<SCITEGIC>MOL_PROPERTY
W(PB)
SciTegic.value.DoubleValue
-64.982

@<SCITEGIC>MOL_PROPERTY
W(SA)
SciTegic.value.DoubleValue
2.037

@<SCITEGIC>MOL_PROPERTY
Valence
SciTegic.value.DoubleValue
2.779

@<SCITEGIC>MOL_PROPERTY
Coulomb
SciTegic.value.DoubleValue
6.474

@<SCITEGIC>MOL_PROPERTY
VdW
SciTegic.value.DoubleValue
0.815

@<SCITEGIC>MOL_PROPERTY
VdW6
SciTegic.value.DoubleValue
-5.088

@<SCITEGIC>MOL_PROPERTY
VdW12
SciTegic.value.DoubleValue
5.902

@<SCITEGIC>MOL_PROPERTY
Bond
SciTegic.value.DoubleValue
0.078

@<SCITEGIC>MOL_PROPERTY
Angle
SciTegic.value.DoubleValue
2.651

@<SCITEGIC>MOL_PROPERTY
Pdih
SciTegic.value.DoubleValue
0.050

@<SCITEGIC>MOL_PROPERTY
Idih
SciTegic.value.DoubleValue
0.000

@<SCITEGIC>MOL_PROPERTY
Tether
SciTegic.value.DoubleValue
0.000

@<TRIPOS>MOLECULE
guest-s19_confgen4.mol2 : confsearch ligand conformer 40
          17          16           1
SMALL
USER_CHARGES
 
@<TRIPOS>ATOM
       1    C1      19.906711   22.112140   22.269959 C.2        1 MOL1         0.6173
       2    O1      19.049549   22.892046   21.902808 O.co2      1 MOL1        -0.6755
       3    O2      21.061000   22.443540   22.465503 O.co2      1 MOL1        -0.6755
       4    C2      19.501295   20.696824   22.485809 C.2        1 MOL1        -0.1504
       5    H1      18.455588   20.468756   22.292970 H          1 MOL1         0.0814
       6    C3      20.348896   19.723499   22.890528 C.2        1 MOL1        -0.1394
       7    H2      21.398986   19.942597   23.082428 H          1 MOL1         0.0817
       8    C4      19.933770   18.282924   23.106746 C.3        1 MOL1        -0.1849
       9    H3      18.841554   18.204484   23.194224 H          1 MOL1         0.0736
      10    H4      20.342603   17.931924   24.063649 H          1 MOL1         0.0736
      11    C5      20.432001   17.353670   21.978287 C.3        1 MOL1        -0.1866
      12    H5      21.524243   17.433515   21.888338 H          1 MOL1         0.0738
      13    H6      20.214897   16.311465   22.250083 H          1 MOL1         0.0738
      14    C6      19.773622   17.666071   20.617488 C.3        1 MOL1        -0.2879
      15    H7      20.022141   18.680945   20.280855 H          1 MOL1         0.0750
      16    H8      20.121230   16.962633   19.849887 H          1 MOL1         0.0750
      17    H9      18.680794   17.584688   20.682270 H          1 MOL1         0.0750
@<TRIPOS>BOND
    1     1     2    1
    2     1     3    2
    3     1     4    1
    4     4     5    1
    5     4     6    2
    6     6     7    1
    7     6     8    1
    8     8     9    1
    9     8    10    1
   10     8    11    1
   11    11    12    1
   12    11    13    1
   13    11    14    1
   14    14    15    1
   15    14    16    1
   16    14    17    1
@<TRIPOS>SUBSTRUCTURE
       1 MOL1            1 RESIDUE      1      MOL     
@<SCITEGIC>MOL_PROPERTY
VConf Rank
SciTegic.value.IntegerValue
40

@<SCITEGIC>MOL_PROPERTY
Conf_Id
SciTegic.value.IntegerValue
45

@<SCITEGIC>MOL_PROPERTY
Delta U+W
SciTegic.value.DoubleValue
0.562

@<SCITEGIC>MOL_PROPERTY
U+W
SciTegic.value.DoubleValue
-52.846

@<SCITEGIC>MOL_PROPERTY
Grad RMS
SciTegic.value.DoubleValue
0.000000

@<SCITEGIC>MOL_PROPERTY
U
SciTegic.value.DoubleValue
10.243

@<SCITEGIC>MOL_PROPERTY
W
SciTegic.value.DoubleValue
-63.089

@<SCITEGIC>MOL_PROPERTY
W(PB)
SciTegic.value.DoubleValue
-65.116

@<SCITEGIC>MOL_PROPERTY
W(SA)
SciTegic.value.DoubleValue
2.026

@<SCITEGIC>MOL_PROPERTY
Valence
SciTegic.value.DoubleValue
2.822

@<SCITEGIC>MOL_PROPERTY
Coulomb
SciTegic.value.DoubleValue
6.637

@<SCITEGIC>MOL_PROPERTY
VdW
SciTegic.value.DoubleValue
0.785

@<SCITEGIC>MOL_PROPERTY
VdW6
SciTegic.value.DoubleValue
-5.216

@<SCITEGIC>MOL_PROPERTY
VdW12
SciTegic.value.DoubleValue
6.001

@<SCITEGIC>MOL_PROPERTY
Bond
SciTegic.value.DoubleValue
0.080

@<SCITEGIC>MOL_PROPERTY
Angle
SciTegic.value.DoubleValue
2.678

@<SCITEGIC>MOL_PROPERTY
Pdih
SciTegic.value.DoubleValue
0.064

@<SCITEGIC>MOL_PROPERTY
Idih
SciTegic.value.DoubleValue
0.000

@<SCITEGIC>MOL_PROPERTY
Tether
SciTegic.value.DoubleValue
0.000

@<TRIPOS>MOLECULE
guest-s19_confgen4.mol2 : confsearch ligand conformer 41
          17          16           1
SMALL
USER_CHARGES
 
@<TRIPOS>ATOM
       1    C1      21.503741   20.390338   19.179180 C.2        1 MOL1         0.6173
       2    O1      22.665585   20.304770   18.832049 O.co2      1 MOL1        -0.6755
       3    O2      20.719573   21.172335   18.675240 O.co2      1 MOL1        -0.6755
       4    C2      21.043549   19.487769   20.269021 C.2        1 MOL1        -0.1504
       5    H1      21.793999   18.813670   20.675621 H          1 MOL1         0.0814
       6    C3      19.781498   19.475420   20.754983 C.2        1 MOL1        -0.1394
       7    H2      19.022331   20.148218   20.356509 H          1 MOL1         0.0817
       8    C4      19.322160   18.555740   21.865134 C.3        1 MOL1        -0.1849
       9    H3      19.789050   17.567827   21.751772 H          1 MOL1         0.0736
      10    H4      18.237698   18.399480   21.788251 H          1 MOL1         0.0736
      11    C5      19.662853   19.136330   23.252887 C.3        1 MOL1        -0.1866
      12    H5      20.748084   19.289352   23.332995 H          1 MOL1         0.0738
      13    H6      19.193111   20.123455   23.364669 H          1 MOL1         0.0738
      14    C6      19.189435   18.209156   24.390319 C.3        1 MOL1        -0.2879
      15    H7      18.101711   18.064714   24.352595 H          1 MOL1         0.0750
      16    H8      19.668915   17.224015   24.319387 H          1 MOL1         0.0750
      17    H9      19.440457   18.638446   25.369006 H          1 MOL1         0.0750
@<TRIPOS>BOND
    1     1     2    1
    2     1     3    2
    3     1     4    1
    4     4     5    1
    5     4     6    2
    6     6     7    1
    7     6     8    1
    8     8     9    1
    9     8    10    1
   10     8    11    1
   11    11    12    1
   12    11    13    1
   13    11    14    1
   14    14    15    1
   15    14    16    1
   16    14    17    1
@<TRIPOS>SUBSTRUCTURE
       1 MOL1            1 RESIDUE      1      MOL     
@<SCITEGIC>MOL_PROPERTY
VConf Rank
SciTegic.value.IntegerValue
41

@<SCITEGIC>MOL_PROPERTY
Conf_Id
SciTegic.value.IntegerValue
36

@<SCITEGIC>MOL_PROPERTY
Delta U+W
SciTegic.value.DoubleValue
0.000

@<SCITEGIC>MOL_PROPERTY
U+W
SciTegic.value.DoubleValue
-53.409

@<SCITEGIC>MOL_PROPERTY
Grad RMS
SciTegic.value.DoubleValue
0.000000

@<SCITEGIC>MOL_PROPERTY
U
SciTegic.value.DoubleValue
9.048

@<SCITEGIC>MOL_PROPERTY
W
SciTegic.value.DoubleValue
-62.457

@<SCITEGIC>MOL_PROPERTY
W(PB)
SciTegic.value.DoubleValue
-64.540

@<SCITEGIC>MOL_PROPERTY
W(SA)
SciTegic.value.DoubleValue
2.084

@<SCITEGIC>MOL_PROPERTY
Valence
SciTegic.value.DoubleValue
2.652

@<SCITEGIC>MOL_PROPERTY
Coulomb
SciTegic.value.DoubleValue
5.578

@<SCITEGIC>MOL_PROPERTY
VdW
SciTegic.value.DoubleValue
0.818

@<SCITEGIC>MOL_PROPERTY
VdW6
SciTegic.value.DoubleValue
-4.534

@<SCITEGIC>MOL_PROPERTY
VdW12
SciTegic.value.DoubleValue
5.352

@<SCITEGIC>MOL_PROPERTY
Bond
SciTegic.value.DoubleValue
0.063

@<SCITEGIC>MOL_PROPERTY
Angle
SciTegic.value.DoubleValue
2.579

@<SCITEGIC>MOL_PROPERTY
Pdih
SciTegic.value.DoubleValue
0.010

@<SCITEGIC>MOL_PROPERTY
Idih
SciTegic.value.DoubleValue
0.000

@<SCITEGIC>MOL_PROPERTY
Tether
SciTegic.value.DoubleValue
0.000

@<TRIPOS>MOLECULE
guest-s19_confgen4.mol2 : confsearch ligand conformer 42
          17          16           1
SMALL
USER_CHARGES
 
@<TRIPOS>ATOM
       1    C1      21.350569   16.257306   20.669202 C.2        1 MOL1         0.6173
       2    O1      22.030373   15.770474   21.553087 O.co2      1 MOL1        -0.6755
       3    O2      21.375465   15.857729   19.521411 O.co2      1 MOL1        -0.6755
       4    C2      20.439906   17.391572   20.982726 C.2        1 MOL1        -0.1504
       5    H1      19.860701   17.779868   20.148065 H          1 MOL1         0.0814
       6    C3      20.311556   17.937101   22.213583 C.2        1 MOL1        -0.1394
       7    H2      20.888673   17.557256   23.056452 H          1 MOL1         0.0817
       8    C4      19.384379   19.091862   22.523597 C.3        1 MOL1        -0.1849
       9    H3      19.114409   19.071242   23.588059 H          1 MOL1         0.0736
      10    H4      18.447034   18.982278   21.961295 H          1 MOL1         0.0736
      11    C5      20.040097   20.445909   22.183588 C.3        1 MOL1        -0.1866
      12    H5      20.976252   20.554120   22.748805 H          1 MOL1         0.0738
      13    H6      20.307133   20.469778   21.117904 H          1 MOL1         0.0738
      14    C6      19.104759   21.628738   22.505432 C.3        1 MOL1        -0.2879
      15    H7      18.847196   21.647012   23.572558 H          1 MOL1         0.0750
      16    H8      19.588072   22.582629   22.257177 H          1 MOL1         0.0750
      17    H9      18.172917   21.560859   21.928805 H          1 MOL1         0.0750
@<TRIPOS>BOND
    1     1     2    1
    2     1     3    2
    3     1     4    1
    4     4     5    1
    5     4     6    2
    6     6     7    1
    7     6     8    1
    8     8     9    1
    9     8    10    1
   10     8    11    1
   11    11    12    1
   12    11    13    1
   13    11    14    1
   14    14    15    1
   15    14    16    1
   16    14    17    1
@<TRIPOS>SUBSTRUCTURE
       1 MOL1            1 RESIDUE      1      MOL     
@<SCITEGIC>MOL_PROPERTY
VConf Rank
SciTegic.value.IntegerValue
42

@<SCITEGIC>MOL_PROPERTY
Conf_Id
SciTegic.value.IntegerValue
1

@<SCITEGIC>MOL_PROPERTY
Delta U+W
SciTegic.value.DoubleValue
0.030

@<SCITEGIC>MOL_PROPERTY
U+W
SciTegic.value.DoubleValue
-53.378

@<SCITEGIC>MOL_PROPERTY
Grad RMS
SciTegic.value.DoubleValue
0.000000

@<SCITEGIC>MOL_PROPERTY
U
SciTegic.value.DoubleValue
9.048

@<SCITEGIC>MOL_PROPERTY
W
SciTegic.value.DoubleValue
-62.426

@<SCITEGIC>MOL_PROPERTY
W(PB)
SciTegic.value.DoubleValue
-64.506

@<SCITEGIC>MOL_PROPERTY
W(SA)
SciTegic.value.DoubleValue
2.080

@<SCITEGIC>MOL_PROPERTY
Valence
SciTegic.value.DoubleValue
2.652

@<SCITEGIC>MOL_PROPERTY
Coulomb
SciTegic.value.DoubleValue
5.578

@<SCITEGIC>MOL_PROPERTY
VdW
SciTegic.value.DoubleValue
0.818

@<SCITEGIC>MOL_PROPERTY
VdW6
SciTegic.value.DoubleValue
-4.535

@<SCITEGIC>MOL_PROPERTY
VdW12
SciTegic.value.DoubleValue
5.352

@<SCITEGIC>MOL_PROPERTY
Bond
SciTegic.value.DoubleValue
0.063

@<SCITEGIC>MOL_PROPERTY
Angle
SciTegic.value.DoubleValue
2.579

@<SCITEGIC>MOL_PROPERTY
Pdih
SciTegic.value.DoubleValue
0.010

@<SCITEGIC>MOL_PROPERTY
Idih
SciTegic.value.DoubleValue
0.000

@<SCITEGIC>MOL_PROPERTY
Tether
SciTegic.value.DoubleValue
0.000

@<TRIPOS>MOLECULE
guest-s19_confgen4.mol2 : confsearch ligand conformer 43
          17          16           1
SMALL
USER_CHARGES
 
@<TRIPOS>ATOM
       1    C1      20.813941   21.470656   20.265217 C.2        1 MOL1         0.6173
       2    O1      21.804453   21.862848   20.853021 O.co2      1 MOL1        -0.6755
       3    O2      20.543927   21.808364   19.129058 O.co2      1 MOL1        -0.6755
       4    C2      19.874955   20.539134   20.946877 C.2        1 MOL1        -0.1504
       5    H1      19.009631   20.228132   20.366142 H          1 MOL1         0.0814
       6    C3      20.050365   20.080630   22.207033 C.2        1 MOL1        -0.1394
       7    H2      20.915535   20.383121   22.796589 H          1 MOL1         0.0817
       8    C4      19.092288   19.129512   22.892947 C.3        1 MOL1        -0.1849
       9    H3      18.058116   19.414708   22.656985 H          1 MOL1         0.0736
      10    H4      19.193654   19.219728   23.982846 H          1 MOL1         0.0736
      11    C5      19.320782   17.660861   22.472928 C.3        1 MOL1        -0.1866
      12    H5      18.535073   17.034003   22.916621 H          1 MOL1         0.0738
      13    H6      19.218763   17.567186   21.382862 H          1 MOL1         0.0738
      14    C6      20.700632   17.127499   22.913668 C.3        1 MOL1        -0.2879
      15    H7      20.820046   17.199730   24.002552 H          1 MOL1         0.0750
      16    H8      20.815756   16.073574   22.629246 H          1 MOL1         0.0750
      17    H9      21.513641   17.694111   22.441239 H          1 MOL1         0.0750
@<TRIPOS>BOND
    1     1     2    1
    2     1     3    2
    3     1     4    1
    4     4     5    1
    5     4     6    2
    6     6     7    1
    7     6     8    1
    8     8     9    1
    9     8    10    1
   10     8    11    1
   11    11    12    1
   12    11    13    1
   13    11    14    1
   14    14    15    1
   15    14    16    1
   16    14    17    1
@<TRIPOS>SUBSTRUCTURE
       1 MOL1            1 RESIDUE      1      MOL     
@<SCITEGIC>MOL_PROPERTY
VConf Rank
SciTegic.value.IntegerValue
43

@<SCITEGIC>MOL_PROPERTY
Conf_Id
SciTegic.value.IntegerValue
3

@<SCITEGIC>MOL_PROPERTY
Delta U+W
SciTegic.value.DoubleValue
0.531

@<SCITEGIC>MOL_PROPERTY
U+W
SciTegic.value.DoubleValue
-52.878

@<SCITEGIC>MOL_PROPERTY
Grad RMS
SciTegic.value.DoubleValue
0.000000

@<SCITEGIC>MOL_PROPERTY
U
SciTegic.value.DoubleValue
10.067

@<SCITEGIC>MOL_PROPERTY
W
SciTegic.value.DoubleValue
-62.945

@<SCITEGIC>MOL_PROPERTY
W(PB)
SciTegic.value.DoubleValue
-64.982

@<SCITEGIC>MOL_PROPERTY
W(SA)
SciTegic.value.DoubleValue
2.037

@<SCITEGIC>MOL_PROPERTY
Valence
SciTegic.value.DoubleValue
2.779

@<SCITEGIC>MOL_PROPERTY
Coulomb
SciTegic.value.DoubleValue
6.474

@<SCITEGIC>MOL_PROPERTY
VdW
SciTegic.value.DoubleValue
0.815

@<SCITEGIC>MOL_PROPERTY
VdW6
SciTegic.value.DoubleValue
-5.088

@<SCITEGIC>MOL_PROPERTY
VdW12
SciTegic.value.DoubleValue
5.902

@<SCITEGIC>MOL_PROPERTY
Bond
SciTegic.value.DoubleValue
0.078

@<SCITEGIC>MOL_PROPERTY
Angle
SciTegic.value.DoubleValue
2.651

@<SCITEGIC>MOL_PROPERTY
Pdih
SciTegic.value.DoubleValue
0.050

@<SCITEGIC>MOL_PROPERTY
Idih
SciTegic.value.DoubleValue
0.000

@<SCITEGIC>MOL_PROPERTY
Tether
SciTegic.value.DoubleValue
0.000

@<TRIPOS>MOLECULE
guest-s19_confgen4.mol2 : confsearch ligand conformer 44
          17          16           1
SMALL
USER_CHARGES
 
@<TRIPOS>ATOM
       1    C1      21.750132   17.932891   24.224421 C.2        1 MOL1         0.6173
       2    O1      21.594812   17.911446   25.429907 O.co2      1 MOL1        -0.6755
       3    O2      22.837366   17.794066   23.696124 O.co2      1 MOL1        -0.6755
       4    C2      20.542410   18.135986   23.379298 C.2        1 MOL1        -0.1504
       5    H1      19.603317   18.253069   23.915117 H          1 MOL1         0.0814
       6    C3      20.567756   18.183653   22.027755 C.2        1 MOL1        -0.1394
       7    H2      21.504875   18.070932   21.483125 H          1 MOL1         0.0817
       8    C4      19.336898   18.393312   21.170218 C.3        1 MOL1        -0.1849
       9    H3      18.424500   18.193176   21.748331 H          1 MOL1         0.0736
      10    H4      19.343904   17.664313   20.348926 H          1 MOL1         0.0736
      11    C5      19.272466   19.817143   20.575476 C.3        1 MOL1        -0.1866
      12    H5      20.185999   20.019141   19.999184 H          1 MOL1         0.0738
      13    H6      18.435361   19.871679   19.865912 H          1 MOL1         0.0738
      14    C6      19.087662   20.904236   21.655711 C.3        1 MOL1        -0.2879
      15    H7      19.939235   20.923429   22.348177 H          1 MOL1         0.0750
      16    H8      19.006888   21.897016   21.194484 H          1 MOL1         0.0750
      17    H9      18.175300   20.726236   22.239666 H          1 MOL1         0.0750
@<TRIPOS>BOND
    1     1     2    1
    2     1     3    2
    3     1     4    1
    4     4     5    1
    5     4     6    2
    6     6     7    1
    7     6     8    1
    8     8     9    1
    9     8    10    1
   10     8    11    1
   11    11    12    1
   12    11    13    1
   13    11    14    1
   14    14    15    1
   15    14    16    1
   16    14    17    1
@<TRIPOS>SUBSTRUCTURE
       1 MOL1            1 RESIDUE      1      MOL     
@<SCITEGIC>MOL_PROPERTY
VConf Rank
SciTegic.value.IntegerValue
44

@<SCITEGIC>MOL_PROPERTY
Conf_Id
SciTegic.value.IntegerValue
45

@<SCITEGIC>MOL_PROPERTY
Delta U+W
SciTegic.value.DoubleValue
0.562

@<SCITEGIC>MOL_PROPERTY
U+W
SciTegic.value.DoubleValue
-52.846

@<SCITEGIC>MOL_PROPERTY
Grad RMS
SciTegic.value.DoubleValue
0.000000

@<SCITEGIC>MOL_PROPERTY
U
SciTegic.value.DoubleValue
10.243

@<SCITEGIC>MOL_PROPERTY
W
SciTegic.value.DoubleValue
-63.089

@<SCITEGIC>MOL_PROPERTY
W(PB)
SciTegic.value.DoubleValue
-65.116

@<SCITEGIC>MOL_PROPERTY
W(SA)
SciTegic.value.DoubleValue
2.026

@<SCITEGIC>MOL_PROPERTY
Valence
SciTegic.value.DoubleValue
2.822

@<SCITEGIC>MOL_PROPERTY
Coulomb
SciTegic.value.DoubleValue
6.637

@<SCITEGIC>MOL_PROPERTY
VdW
SciTegic.value.DoubleValue
0.785

@<SCITEGIC>MOL_PROPERTY
VdW6
SciTegic.value.DoubleValue
-5.216

@<SCITEGIC>MOL_PROPERTY
VdW12
SciTegic.value.DoubleValue
6.001

@<SCITEGIC>MOL_PROPERTY
Bond
SciTegic.value.DoubleValue
0.080

@<SCITEGIC>MOL_PROPERTY
Angle
SciTegic.value.DoubleValue
2.678

@<SCITEGIC>MOL_PROPERTY
Pdih
SciTegic.value.DoubleValue
0.064

@<SCITEGIC>MOL_PROPERTY
Idih
SciTegic.value.DoubleValue
0.000

@<SCITEGIC>MOL_PROPERTY
Tether
SciTegic.value.DoubleValue
0.000

@<TRIPOS>MOLECULE
guest-s19_confgen4.mol2 : confsearch ligand conformer 45
          17          16           1
SMALL
USER_CHARGES
 
@<TRIPOS>ATOM
       1    C1      21.264291   16.121669   21.026962 C.2        1 MOL1         0.6173
       2    O1      20.849571   15.320576   20.212124 O.co2      1 MOL1        -0.6755
       3    O2      22.125595   15.849198   21.842014 O.co2      1 MOL1        -0.6755
       4    C2      20.678565   17.489387   21.006102 C.2        1 MOL1        -0.1504
       5    H1      19.913891   17.666767   20.253295 H          1 MOL1         0.0814
       6    C3      21.043276   18.478513   21.853274 C.2        1 MOL1        -0.1394
       7    H2      21.806663   18.310951   22.612837 H          1 MOL1         0.0817
       8    C4      20.441003   19.866246   21.826794 C.3        1 MOL1        -0.1849
       9    H3      20.267153   20.180469   20.788599 H          1 MOL1         0.0736
      10    H4      21.152909   20.584400   22.255551 H          1 MOL1         0.0736
      11    C5      19.116477   19.919083   22.615371 C.3        1 MOL1        -0.1866
      12    H5      18.401574   19.204067   22.184992 H          1 MOL1         0.0738
      13    H6      19.293310   19.606362   23.653882 H          1 MOL1         0.0738
      14    C6      18.500856   21.332707   22.601143 C.3        1 MOL1        -0.2879
      15    H7      19.183146   22.063071   23.055543 H          1 MOL1         0.0750
      16    H8      18.285425   21.657045   21.574581 H          1 MOL1         0.0750
      17    H9      17.560045   21.350525   23.166553 H          1 MOL1         0.0750
@<TRIPOS>BOND
    1     1     2    1
    2     1     3    2
    3     1     4    1
    4     4     5    1
    5     4     6    2
    6     6     7    1
    7     6     8    1
    8     8     9    1
    9     8    10    1
   10     8    11    1
   11    11    12    1
   12    11    13    1
   13    11    14    1
   14    14    15    1
   15    14    16    1
   16    14    17    1
@<TRIPOS>SUBSTRUCTURE
       1 MOL1            1 RESIDUE      1      MOL     
@<SCITEGIC>MOL_PROPERTY
VConf Rank
SciTegic.value.IntegerValue
45

@<SCITEGIC>MOL_PROPERTY
Conf_Id
SciTegic.value.IntegerValue
36

@<SCITEGIC>MOL_PROPERTY
Delta U+W
SciTegic.value.DoubleValue
0.000

@<SCITEGIC>MOL_PROPERTY
U+W
SciTegic.value.DoubleValue
-53.409

@<SCITEGIC>MOL_PROPERTY
Grad RMS
SciTegic.value.DoubleValue
0.000000

@<SCITEGIC>MOL_PROPERTY
U
SciTegic.value.DoubleValue
9.048

@<SCITEGIC>MOL_PROPERTY
W
SciTegic.value.DoubleValue
-62.457

@<SCITEGIC>MOL_PROPERTY
W(PB)
SciTegic.value.DoubleValue
-64.540

@<SCITEGIC>MOL_PROPERTY
W(SA)
SciTegic.value.DoubleValue
2.084

@<SCITEGIC>MOL_PROPERTY
Valence
SciTegic.value.DoubleValue
2.652

@<SCITEGIC>MOL_PROPERTY
Coulomb
SciTegic.value.DoubleValue
5.578

@<SCITEGIC>MOL_PROPERTY
VdW
SciTegic.value.DoubleValue
0.818

@<SCITEGIC>MOL_PROPERTY
VdW6
SciTegic.value.DoubleValue
-4.534

@<SCITEGIC>MOL_PROPERTY
VdW12
SciTegic.value.DoubleValue
5.352

@<SCITEGIC>MOL_PROPERTY
Bond
SciTegic.value.DoubleValue
0.063

@<SCITEGIC>MOL_PROPERTY
Angle
SciTegic.value.DoubleValue
2.579

@<SCITEGIC>MOL_PROPERTY
Pdih
SciTegic.value.DoubleValue
0.010

@<SCITEGIC>MOL_PROPERTY
Idih
SciTegic.value.DoubleValue
0.000

@<SCITEGIC>MOL_PROPERTY
Tether
SciTegic.value.DoubleValue
0.000

@<TRIPOS>MOLECULE
guest-s19_confgen4.mol2 : confsearch ligand conformer 46
          17          16           1
SMALL
USER_CHARGES
 
@<TRIPOS>ATOM
       1    C1      22.825641   20.956794   21.915301 C.2        1 MOL1         0.6173
       2    O1      23.498658   20.578725   22.855782 O.co2      1 MOL1        -0.6755
       3    O2      23.083159   21.961262   21.280925 O.co2      1 MOL1        -0.6755
       4    C2      21.630847   20.171143   21.503741 C.2        1 MOL1        -0.1504
       5    H1      21.073627   20.563656   20.656187 H          1 MOL1         0.0814
       6    C3      21.226514   19.036416   22.118555 C.2        1 MOL1        -0.1394
       7    H2      21.776143   18.635513   22.970000 H          1 MOL1         0.0817
       8    C4      20.009012   18.244345   21.694819 C.3        1 MOL1        -0.1849
       9    H3      20.123780   17.197840   22.007937 H          1 MOL1         0.0736
      10    H4      19.929199   18.235763   20.599208 H          1 MOL1         0.0736
      11    C5      18.718561   18.827428   22.306184 C.3        1 MOL1        -0.1866
      12    H5      18.799927   18.832957   23.402047 H          1 MOL1         0.0738
      13    H6      18.600073   19.873316   21.990529 H          1 MOL1         0.0738
      14    C6      17.473821   18.019982   21.886450 C.3        1 MOL1        -0.2879
      15    H7      17.552207   16.976280   22.218069 H          1 MOL1         0.0750
      16    H8      16.566402   18.449375   22.330683 H          1 MOL1         0.0750
      17    H9      17.351921   18.024939   20.795326 H          1 MOL1         0.0750
@<TRIPOS>BOND
    1     1     2    1
    2     1     3    2
    3     1     4    1
    4     4     5    1
    5     4     6    2
    6     6     7    1
    7     6     8    1
    8     8     9    1
    9     8    10    1
   10     8    11    1
   11    11    12    1
   12    11    13    1
   13    11    14    1
   14    14    15    1
   15    14    16    1
   16    14    17    1
@<TRIPOS>SUBSTRUCTURE
       1 MOL1            1 RESIDUE      1      MOL     
@<SCITEGIC>MOL_PROPERTY
VConf Rank
SciTegic.value.IntegerValue
46

@<SCITEGIC>MOL_PROPERTY
Conf_Id
SciTegic.value.IntegerValue
1

@<SCITEGIC>MOL_PROPERTY
Delta U+W
SciTegic.value.DoubleValue
0.030

@<SCITEGIC>MOL_PROPERTY
U+W
SciTegic.value.DoubleValue
-53.378

@<SCITEGIC>MOL_PROPERTY
Grad RMS
SciTegic.value.DoubleValue
0.000000

@<SCITEGIC>MOL_PROPERTY
U
SciTegic.value.DoubleValue
9.048

@<SCITEGIC>MOL_PROPERTY
W
SciTegic.value.DoubleValue
-62.426

@<SCITEGIC>MOL_PROPERTY
W(PB)
SciTegic.value.DoubleValue
-64.506

@<SCITEGIC>MOL_PROPERTY
W(SA)
SciTegic.value.DoubleValue
2.080

@<SCITEGIC>MOL_PROPERTY
Valence
SciTegic.value.DoubleValue
2.652

@<SCITEGIC>MOL_PROPERTY
Coulomb
SciTegic.value.DoubleValue
5.578

@<SCITEGIC>MOL_PROPERTY
VdW
SciTegic.value.DoubleValue
0.818

@<SCITEGIC>MOL_PROPERTY
VdW6
SciTegic.value.DoubleValue
-4.535

@<SCITEGIC>MOL_PROPERTY
VdW12
SciTegic.value.DoubleValue
5.352

@<SCITEGIC>MOL_PROPERTY
Bond
SciTegic.value.DoubleValue
0.063

@<SCITEGIC>MOL_PROPERTY
Angle
SciTegic.value.DoubleValue
2.579

@<SCITEGIC>MOL_PROPERTY
Pdih
SciTegic.value.DoubleValue
0.010

@<SCITEGIC>MOL_PROPERTY
Idih
SciTegic.value.DoubleValue
0.000

@<SCITEGIC>MOL_PROPERTY
Tether
SciTegic.value.DoubleValue
0.000

@<TRIPOS>MOLECULE
guest-s19_confgen4.mol2 : confsearch ligand conformer 47
          17          16           1
SMALL
USER_CHARGES
 
@<TRIPOS>ATOM
       1    C1      17.651337   17.246289   22.767591 C.2        1 MOL1         0.6173
       2    O1      16.730643   18.039635   22.709565 O.co2      1 MOL1        -0.6755
       3    O2      17.485106   16.042093   22.777030 O.co2      1 MOL1        -0.6755
       4    C2      19.050792   17.747465   22.834215 C.2        1 MOL1        -0.1504
       5    H1      19.825752   16.986152   22.885215 H          1 MOL1         0.0814
       6    C3      19.382773   19.058480   22.830544 C.2        1 MOL1        -0.1394
       7    H2      18.614551   19.829513   22.776318 H          1 MOL1         0.0817
       8    C4      20.809767   19.561063   22.894685 C.3        1 MOL1        -0.1849
       9    H3      21.382675   18.953067   23.607878 H          1 MOL1         0.0736
      10    H4      20.826387   20.587575   23.284928 H          1 MOL1         0.0736
      11    C5      21.509499   19.520501   21.518353 C.3        1 MOL1        -0.1866
      12    H5      22.566156   19.793870   21.644443 H          1 MOL1         0.0738
      13    H6      21.495547   18.494268   21.125824 H          1 MOL1         0.0738
      14    C6      20.859488   20.477033   20.495981 C.3        1 MOL1        -0.2879
      15    H7      20.873650   21.511829   20.862233 H          1 MOL1         0.0750
      16    H8      21.401127   20.447811   19.541685 H          1 MOL1         0.0750
      17    H9      19.816308   20.197156   20.299345 H          1 MOL1         0.0750
@<TRIPOS>BOND
    1     1     2    1
    2     1     3    2
    3     1     4    1
    4     4     5    1
    5     4     6    2
    6     6     7    1
    7     6     8    1
    8     8     9    1
    9     8    10    1
   10     8    11    1
   11    11    12    1
   12    11    13    1
   13    11    14    1
   14    14    15    1
   15    14    16    1
   16    14    17    1
@<TRIPOS>SUBSTRUCTURE
       1 MOL1            1 RESIDUE      1      MOL     
@<SCITEGIC>MOL_PROPERTY
VConf Rank
SciTegic.value.IntegerValue
47

@<SCITEGIC>MOL_PROPERTY
Conf_Id
SciTegic.value.IntegerValue
3

@<SCITEGIC>MOL_PROPERTY
Delta U+W
SciTegic.value.DoubleValue
0.531

@<SCITEGIC>MOL_PROPERTY
U+W
SciTegic.value.DoubleValue
-52.878

@<SCITEGIC>MOL_PROPERTY
Grad RMS
SciTegic.value.DoubleValue
0.000000

@<SCITEGIC>MOL_PROPERTY
U
SciTegic.value.DoubleValue
10.067

@<SCITEGIC>MOL_PROPERTY
W
SciTegic.value.DoubleValue
-62.945

@<SCITEGIC>MOL_PROPERTY
W(PB)
SciTegic.value.DoubleValue
-64.982

@<SCITEGIC>MOL_PROPERTY
W(SA)
SciTegic.value.DoubleValue
2.037

@<SCITEGIC>MOL_PROPERTY
Valence
SciTegic.value.DoubleValue
2.779

@<SCITEGIC>MOL_PROPERTY
Coulomb
SciTegic.value.DoubleValue
6.474

@<SCITEGIC>MOL_PROPERTY
VdW
SciTegic.value.DoubleValue
0.815

@<SCITEGIC>MOL_PROPERTY
VdW6
SciTegic.value.DoubleValue
-5.088

@<SCITEGIC>MOL_PROPERTY
VdW12
SciTegic.value.DoubleValue
5.902

@<SCITEGIC>MOL_PROPERTY
Bond
SciTegic.value.DoubleValue
0.078

@<SCITEGIC>MOL_PROPERTY
Angle
SciTegic.value.DoubleValue
2.651

@<SCITEGIC>MOL_PROPERTY
Pdih
SciTegic.value.DoubleValue
0.050

@<SCITEGIC>MOL_PROPERTY
Idih
SciTegic.value.DoubleValue
0.000

@<SCITEGIC>MOL_PROPERTY
Tether
SciTegic.value.DoubleValue
0.000

@<TRIPOS>MOLECULE
guest-s19_confgen4.mol2 : confsearch ligand conformer 48
          17          16           1
SMALL
USER_CHARGES
 
@<TRIPOS>ATOM
       1    C1      18.197640   16.678527   21.774939 C.2        1 MOL1         0.6173
       2    O1      18.411591   15.626213   21.205167 O.co2      1 MOL1        -0.6755
       3    O2      17.075891   17.077153   22.026387 O.co2      1 MOL1        -0.6755
       4    C2      19.375268   17.495334   22.175052 C.2        1 MOL1        -0.1504
       5    H1      20.347960   17.081031   21.920239 H          1 MOL1         0.0814
       6    C3      19.285696   18.685283   22.811906 C.2        1 MOL1        -0.1394
       7    H2      18.314997   19.109367   23.067669 H          1 MOL1         0.0817
       8    C4      20.486378   19.515834   23.215496 C.3        1 MOL1        -0.1849
       9    H3      21.399253   18.904824   23.207375 H          1 MOL1         0.0736
      10    H4      20.355435   19.855181   24.251695 H          1 MOL1         0.0736
      11    C5      20.679003   20.748603   22.305364 C.3        1 MOL1        -0.1866
      12    H5      19.765305   21.359000   22.310835 H          1 MOL1         0.0738
      13    H6      21.479207   21.377854   22.718783 H          1 MOL1         0.0738
      14    C6      21.039837   20.365030   20.854329 C.3        1 MOL1        -0.2879
      15    H7      20.232645   19.788019   20.384697 H          1 MOL1         0.0750
      16    H8      21.207319   21.264282   20.247566 H          1 MOL1         0.0750
      17    H9      21.955455   19.760186   20.824332 H          1 MOL1         0.0750
@<TRIPOS>BOND
    1     1     2    1
    2     1     3    2
    3     1     4    1
    4     4     5    1
    5     4     6    2
    6     6     7    1
    7     6     8    1
    8     8     9    1
    9     8    10    1
   10     8    11    1
   11    11    12    1
   12    11    13    1
   13    11    14    1
   14    14    15    1
   15    14    16    1
   16    14    17    1
@<TRIPOS>SUBSTRUCTURE
       1 MOL1            1 RESIDUE      1      MOL     
@<SCITEGIC>MOL_PROPERTY
VConf Rank
SciTegic.value.IntegerValue
48

@<SCITEGIC>MOL_PROPERTY
Conf_Id
SciTegic.value.IntegerValue
45

@<SCITEGIC>MOL_PROPERTY
Delta U+W
SciTegic.value.DoubleValue
0.562

@<SCITEGIC>MOL_PROPERTY
U+W
SciTegic.value.DoubleValue
-52.846

@<SCITEGIC>MOL_PROPERTY
Grad RMS
SciTegic.value.DoubleValue
0.000000

@<SCITEGIC>MOL_PROPERTY
U
SciTegic.value.DoubleValue
10.243

@<SCITEGIC>MOL_PROPERTY
W
SciTegic.value.DoubleValue
-63.089

@<SCITEGIC>MOL_PROPERTY
W(PB)
SciTegic.value.DoubleValue
-65.116

@<SCITEGIC>MOL_PROPERTY
W(SA)
SciTegic.value.DoubleValue
2.026

@<SCITEGIC>MOL_PROPERTY
Valence
SciTegic.value.DoubleValue
2.822

@<SCITEGIC>MOL_PROPERTY
Coulomb
SciTegic.value.DoubleValue
6.637

@<SCITEGIC>MOL_PROPERTY
VdW
SciTegic.value.DoubleValue
0.785

@<SCITEGIC>MOL_PROPERTY
VdW6
SciTegic.value.DoubleValue
-5.216

@<SCITEGIC>MOL_PROPERTY
VdW12
SciTegic.value.DoubleValue
6.001

@<SCITEGIC>MOL_PROPERTY
Bond
SciTegic.value.DoubleValue
0.080

@<SCITEGIC>MOL_PROPERTY
Angle
SciTegic.value.DoubleValue
2.678

@<SCITEGIC>MOL_PROPERTY
Pdih
SciTegic.value.DoubleValue
0.064

@<SCITEGIC>MOL_PROPERTY
Idih
SciTegic.value.DoubleValue
0.000

@<SCITEGIC>MOL_PROPERTY
Tether
SciTegic.value.DoubleValue
0.000

@<TRIPOS>MOLECULE
guest-s19_confgen4.mol2 : confsearch ligand conformer 49
          17          16           1
SMALL
USER_CHARGES
 
@<TRIPOS>ATOM
       1    C1      18.542285   18.354601   24.861490 C.2        1 MOL1         0.6173
       2    O1      18.171589   19.095373   25.751179 O.co2      1 MOL1        -0.6755
       3    O2      18.647458   17.150950   25.004863 O.co2      1 MOL1        -0.6755
       4    C2      18.874883   18.970099   23.548211 C.2        1 MOL1        -0.1504
       5    H1      18.759389   20.049847   23.487272 H          1 MOL1         0.0814
       6    C3      19.299872   18.268427   22.472979 C.2        1 MOL1        -0.1394
       7    H2      19.421345   17.186558   22.523745 H          1 MOL1         0.0817
       8    C4      19.638141   18.902428   21.141493 C.3        1 MOL1        -0.1849
       9    H3      18.930083   19.712806   20.920697 H          1 MOL1         0.0736
      10    H4      19.522653   18.159749   20.340570 H          1 MOL1         0.0736
      11    C5      21.078949   19.452863   21.131121 C.3        1 MOL1        -0.1866
      12    H5      21.194996   20.199216   21.929276 H          1 MOL1         0.0738
      13    H6      21.785381   18.640128   21.350172 H          1 MOL1         0.0738
      14    C6      21.434820   20.092466   19.773996 C.3        1 MOL1        -0.2879
      15    H7      21.357694   19.358325   18.961272 H          1 MOL1         0.0750
      16    H8      20.761625   20.929134   19.545455 H          1 MOL1         0.0750
      17    H9      22.462586   20.478067   19.785828 H          1 MOL1         0.0750
@<TRIPOS>BOND
    1     1     2    1
    2     1     3    2
    3     1     4    1
    4     4     5    1
    5     4     6    2
    6     6     7    1
    7     6     8    1
    8     8     9    1
    9     8    10    1
   10     8    11    1
   11    11    12    1
   12    11    13    1
   13    11    14    1
   14    14    15    1
   15    14    16    1
   16    14    17    1
@<TRIPOS>SUBSTRUCTURE
       1 MOL1            1 RESIDUE      1      MOL     
@<SCITEGIC>MOL_PROPERTY
VConf Rank
SciTegic.value.IntegerValue
49

@<SCITEGIC>MOL_PROPERTY
Conf_Id
SciTegic.value.IntegerValue
36

@<SCITEGIC>MOL_PROPERTY
Delta U+W
SciTegic.value.DoubleValue
0.000

@<SCITEGIC>MOL_PROPERTY
U+W
SciTegic.value.DoubleValue
-53.409

@<SCITEGIC>MOL_PROPERTY
Grad RMS
SciTegic.value.DoubleValue
0.000000

@<SCITEGIC>MOL_PROPERTY
U
SciTegic.value.DoubleValue
9.048

@<SCITEGIC>MOL_PROPERTY
W
SciTegic.value.DoubleValue
-62.457

@<SCITEGIC>MOL_PROPERTY
W(PB)
SciTegic.value.DoubleValue
-64.540

@<SCITEGIC>MOL_PROPERTY
W(SA)
SciTegic.value.DoubleValue
2.084

@<SCITEGIC>MOL_PROPERTY
Valence
SciTegic.value.DoubleValue
2.652

@<SCITEGIC>MOL_PROPERTY
Coulomb
SciTegic.value.DoubleValue
5.578

@<SCITEGIC>MOL_PROPERTY
VdW
SciTegic.value.DoubleValue
0.818

@<SCITEGIC>MOL_PROPERTY
VdW6
SciTegic.value.DoubleValue
-4.534

@<SCITEGIC>MOL_PROPERTY
VdW12
SciTegic.value.DoubleValue
5.352

@<SCITEGIC>MOL_PROPERTY
Bond
SciTegic.value.DoubleValue
0.063

@<SCITEGIC>MOL_PROPERTY
Angle
SciTegic.value.DoubleValue
2.579

@<SCITEGIC>MOL_PROPERTY
Pdih
SciTegic.value.DoubleValue
0.010

@<SCITEGIC>MOL_PROPERTY
Idih
SciTegic.value.DoubleValue
0.000

@<SCITEGIC>MOL_PROPERTY
Tether
SciTegic.value.DoubleValue
0.000

@<TRIPOS>MOLECULE
guest-s19_confgen4.mol2 : confsearch ligand conformer 50
          17          16           1
SMALL
USER_CHARGES
 
@<TRIPOS>ATOM
       1    C1      19.053444   22.249807   22.614360 C.2        1 MOL1         0.6173
       2    O1      19.262850   22.912063   21.615381 O.co2      1 MOL1        -0.6755
       3    O2      18.760883   22.745084   23.685253 O.co2      1 MOL1        -0.6755
       4    C2      19.152351   20.766624   22.546906 C.2        1 MOL1        -0.1504
       5    H1      18.953110   20.235006   23.474588 H          1 MOL1         0.0814
       6    C3      19.469392   20.082646   21.424077 C.2        1 MOL1        -0.1394
       7    H2      19.673067   20.605383   20.489713 H          1 MOL1         0.0817
       8    C4      19.569700   18.574129   21.364454 C.3        1 MOL1        -0.1849
       9    H3      19.395672   18.234359   20.334572 H          1 MOL1         0.0736
      10    H4      18.781279   18.120677   21.980555 H          1 MOL1         0.0736
      11    C5      20.951359   18.083459   21.843284 C.3        1 MOL1        -0.1866
      12    H5      21.738088   18.536636   21.224208 H          1 MOL1         0.0738
      13    H6      21.125351   18.419111   22.875090 H          1 MOL1         0.0738
      14    C6      21.064907   16.547161   21.776784 C.3        1 MOL1        -0.2879
      15    H7      20.926271   16.186970   20.748936 H          1 MOL1         0.0750
      16    H8      22.053750   16.217190   22.120934 H          1 MOL1         0.0750
      17    H9      20.308019   16.069427   22.412651 H          1 MOL1         0.0750
@<TRIPOS>BOND
    1     1     2    1
    2     1     3    2
    3     1     4    1
    4     4     5    1
    5     4     6    2
    6     6     7    1
    7     6     8    1
    8     8     9    1
    9     8    10    1
   10     8    11    1
   11    11    12    1
   12    11    13    1
   13    11    14    1
   14    14    15    1
   15    14    16    1
   16    14    17    1
@<TRIPOS>SUBSTRUCTURE
       1 MOL1            1 RESIDUE      1      MOL     
@<SCITEGIC>MOL_PROPERTY
VConf Rank
SciTegic.value.IntegerValue
50

@<SCITEGIC>MOL_PROPERTY
Conf_Id
SciTegic.value.IntegerValue
1

@<SCITEGIC>MOL_PROPERTY
Delta U+W
SciTegic.value.DoubleValue
0.030

@<SCITEGIC>MOL_PROPERTY
U+W
SciTegic.value.DoubleValue
-53.378

@<SCITEGIC>MOL_PROPERTY
Grad RMS
SciTegic.value.DoubleValue
0.000000

@<SCITEGIC>MOL_PROPERTY
U
SciTegic.value.DoubleValue
9.048

@<SCITEGIC>MOL_PROPERTY
W
SciTegic.value.DoubleValue
-62.426

@<SCITEGIC>MOL_PROPERTY
W(PB)
SciTegic.value.DoubleValue
-64.506

@<SCITEGIC>MOL_PROPERTY
W(SA)
SciTegic.value.DoubleValue
2.080

@<SCITEGIC>MOL_PROPERTY
Valence
SciTegic.value.DoubleValue
2.652

@<SCITEGIC>MOL_PROPERTY
Coulomb
SciTegic.value.DoubleValue
5.578

@<SCITEGIC>MOL_PROPERTY
VdW
SciTegic.value.DoubleValue
0.818

@<SCITEGIC>MOL_PROPERTY
VdW6
SciTegic.value.DoubleValue
-4.535

@<SCITEGIC>MOL_PROPERTY
VdW12
SciTegic.value.DoubleValue
5.352

@<SCITEGIC>MOL_PROPERTY
Bond
SciTegic.value.DoubleValue
0.063

@<SCITEGIC>MOL_PROPERTY
Angle
SciTegic.value.DoubleValue
2.579

@<SCITEGIC>MOL_PROPERTY
Pdih
SciTegic.value.DoubleValue
0.010

@<SCITEGIC>MOL_PROPERTY
Idih
SciTegic.value.DoubleValue
0.000

@<SCITEGIC>MOL_PROPERTY
Tether
SciTegic.value.DoubleValue
0.000

@<TRIPOS>MOLECULE
guest-s19_confgen4.mol2 : confsearch ligand conformer 51
          17          16           1
SMALL
USER_CHARGES
 
@<TRIPOS>ATOM
       1    C1      17.230174   17.924571   22.669159 C.2        1 MOL1         0.6173
       2    O1      17.540395   16.827928   23.095281 O.co2      1 MOL1        -0.6755
       3    O2      16.125123   18.405715   22.827819 O.co2      1 MOL1        -0.6755
       4    C2      18.228498   18.729702   21.914704 C.2        1 MOL1        -0.1504
       5    H1      17.886546   19.699619   21.561022 H          1 MOL1         0.0814
       6    C3      19.493108   18.320526   21.665057 C.2        1 MOL1        -0.1394
       7    H2      19.847184   17.352084   22.017686 H          1 MOL1         0.0817
       8    C4      20.504956   19.147224   20.899714 C.3        1 MOL1        -0.1849
       9    H3      20.012779   19.635513   20.047739 H          1 MOL1         0.0736
      10    H4      21.276047   18.491620   20.473220 H          1 MOL1         0.0736
      11    C5      21.173247   20.223539   21.783170 C.3        1 MOL1        -0.1866
      12    H5      21.814465   20.856730   21.154631 H          1 MOL1         0.0738
      13    H6      20.404196   20.881921   22.210396 H          1 MOL1         0.0738
      14    C6      22.023639   19.613098   22.917589 C.3        1 MOL1        -0.2879
      15    H7      22.807924   18.960309   22.512733 H          1 MOL1         0.0750
      16    H8      22.509811   20.403729   23.503633 H          1 MOL1         0.0750
      17    H9      21.403463   19.019969   23.602279 H          1 MOL1         0.0750
@<TRIPOS>BOND
    1     1     2    1
    2     1     3    2
    3     1     4    1
    4     4     5    1
    5     4     6    2
    6     6     7    1
    7     6     8    1
    8     8     9    1
    9     8    10    1
   10     8    11    1
   11    11    12    1
   12    11    13    1
   13    11    14    1
   14    14    15    1
   15    14    16    1
   16    14    17    1
@<TRIPOS>SUBSTRUCTURE
       1 MOL1            1 RESIDUE      1      MOL     
@<SCITEGIC>MOL_PROPERTY
VConf Rank
SciTegic.value.IntegerValue
51

@<SCITEGIC>MOL_PROPERTY
Conf_Id
SciTegic.value.IntegerValue
3

@<SCITEGIC>MOL_PROPERTY
Delta U+W
SciTegic.value.DoubleValue
0.531

@<SCITEGIC>MOL_PROPERTY
U+W
SciTegic.value.DoubleValue
-52.878

@<SCITEGIC>MOL_PROPERTY
Grad RMS
SciTegic.value.DoubleValue
0.000000

@<SCITEGIC>MOL_PROPERTY
U
SciTegic.value.DoubleValue
10.067

@<SCITEGIC>MOL_PROPERTY
W
SciTegic.value.DoubleValue
-62.945

@<SCITEGIC>MOL_PROPERTY
W(PB)
SciTegic.value.DoubleValue
-64.982

@<SCITEGIC>MOL_PROPERTY
W(SA)
SciTegic.value.DoubleValue
2.037

@<SCITEGIC>MOL_PROPERTY
Valence
SciTegic.value.DoubleValue
2.779

@<SCITEGIC>MOL_PROPERTY
Coulomb
SciTegic.value.DoubleValue
6.474

@<SCITEGIC>MOL_PROPERTY
VdW
SciTegic.value.DoubleValue
0.815

@<SCITEGIC>MOL_PROPERTY
VdW6
SciTegic.value.DoubleValue
-5.088

@<SCITEGIC>MOL_PROPERTY
VdW12
SciTegic.value.DoubleValue
5.902

@<SCITEGIC>MOL_PROPERTY
Bond
SciTegic.value.DoubleValue
0.078

@<SCITEGIC>MOL_PROPERTY
Angle
SciTegic.value.DoubleValue
2.651

@<SCITEGIC>MOL_PROPERTY
Pdih
SciTegic.value.DoubleValue
0.050

@<SCITEGIC>MOL_PROPERTY
Idih
SciTegic.value.DoubleValue
0.000

@<SCITEGIC>MOL_PROPERTY
Tether
SciTegic.value.DoubleValue
0.000

@<TRIPOS>MOLECULE
guest-s19_confgen4.mol2 : confsearch ligand conformer 52
          17          16           1
SMALL
USER_CHARGES
 
@<TRIPOS>ATOM
       1    C1      17.012106   19.576938   22.392440 C.2        1 MOL1         0.6173
       2    O1      16.428127   20.403888   23.065421 O.co2      1 MOL1        -0.6755
       3    O2      16.483243   18.555396   21.995954 O.co2      1 MOL1        -0.6755
       4    C2      18.433918   19.850061   22.049035 C.2        1 MOL1        -0.1504
       5    H1      18.844351   20.780297   22.434925 H          1 MOL1         0.0814
       6    C3      19.204054   19.018360   21.310964 C.2        1 MOL1        -0.1394
       7    H2      18.801848   18.082600   20.923534 H          1 MOL1         0.0817
       8    C4      20.652071   19.297874   20.965339 C.3        1 MOL1        -0.1849
       9    H3      20.887359   20.360171   21.116680 H          1 MOL1         0.0736
      10    H4      20.810219   19.099436   19.896872 H          1 MOL1         0.0736
      11    C5      21.629074   18.427955   21.786236 C.3        1 MOL1        -0.1866
      12    H5      21.392722   17.365189   21.637488 H          1 MOL1         0.0738
      13    H6      22.649005   18.578708   21.406484 H          1 MOL1         0.0738
      14    C6      21.599067   18.761723   23.293064 C.3        1 MOL1        -0.2879
      15    H7      20.609309   18.561437   23.723549 H          1 MOL1         0.0750
      16    H8      22.332176   18.153048   23.837979 H          1 MOL1         0.0750
      17    H9      21.840230   19.818639   23.465868 H          1 MOL1         0.0750
@<TRIPOS>BOND
    1     1     2    1
    2     1     3    2
    3     1     4    1
    4     4     5    1
    5     4     6    2
    6     6     7    1
    7     6     8    1
    8     8     9    1
    9     8    10    1
   10     8    11    1
   11    11    12    1
   12    11    13    1
   13    11    14    1
   14    14    15    1
   15    14    16    1
   16    14    17    1
@<TRIPOS>SUBSTRUCTURE
       1 MOL1            1 RESIDUE      1      MOL     
@<SCITEGIC>MOL_PROPERTY
VConf Rank
SciTegic.value.IntegerValue
52

@<SCITEGIC>MOL_PROPERTY
Conf_Id
SciTegic.value.IntegerValue
45

@<SCITEGIC>MOL_PROPERTY
Delta U+W
SciTegic.value.DoubleValue
0.562

@<SCITEGIC>MOL_PROPERTY
U+W
SciTegic.value.DoubleValue
-52.846

@<SCITEGIC>MOL_PROPERTY
Grad RMS
SciTegic.value.DoubleValue
0.000000

@<SCITEGIC>MOL_PROPERTY
U
SciTegic.value.DoubleValue
10.243

@<SCITEGIC>MOL_PROPERTY
W
SciTegic.value.DoubleValue
-63.089

@<SCITEGIC>MOL_PROPERTY
W(PB)
SciTegic.value.DoubleValue
-65.116

@<SCITEGIC>MOL_PROPERTY
W(SA)
SciTegic.value.DoubleValue
2.026

@<SCITEGIC>MOL_PROPERTY
Valence
SciTegic.value.DoubleValue
2.822

@<SCITEGIC>MOL_PROPERTY
Coulomb
SciTegic.value.DoubleValue
6.637

@<SCITEGIC>MOL_PROPERTY
VdW
SciTegic.value.DoubleValue
0.785

@<SCITEGIC>MOL_PROPERTY
VdW6
SciTegic.value.DoubleValue
-5.216

@<SCITEGIC>MOL_PROPERTY
VdW12
SciTegic.value.DoubleValue
6.001

@<SCITEGIC>MOL_PROPERTY
Bond
SciTegic.value.DoubleValue
0.080

@<SCITEGIC>MOL_PROPERTY
Angle
SciTegic.value.DoubleValue
2.678

@<SCITEGIC>MOL_PROPERTY
Pdih
SciTegic.value.DoubleValue
0.064

@<SCITEGIC>MOL_PROPERTY
Idih
SciTegic.value.DoubleValue
0.000

@<SCITEGIC>MOL_PROPERTY
Tether
SciTegic.value.DoubleValue
0.000

@<TRIPOS>MOLECULE
guest-s19_confgen4.mol2 : confsearch ligand conformer 53
          17          16           1
SMALL
USER_CHARGES
 
@<TRIPOS>ATOM
       1    C1      18.589213   19.365679   18.856479 C.2        1 MOL1         0.6173
       2    O1      17.652742   18.748581   18.387528 O.co2      1 MOL1        -0.6755
       3    O2      19.335799   20.048017   18.180152 O.co2      1 MOL1        -0.6755
       4    C2      18.811025   19.267740   20.324597 C.2        1 MOL1        -0.1504
       5    H1      18.108303   18.641982   20.870047 H          1 MOL1         0.0814
       6    C3      19.812339   19.898443   20.979326 C.2        1 MOL1        -0.1394
       7    H2      20.523425   20.525916   20.442291 H          1 MOL1         0.0817
       8    C4      20.032248   19.791809   22.472479 C.3        1 MOL1        -0.1849
       9    H3      19.065800   19.781806   22.994675 H          1 MOL1         0.0736
      10    H4      20.570986   20.679985   22.829259 H          1 MOL1         0.0736
      11    C5      20.832106   18.523374   22.833469 C.3        1 MOL1        -0.1866
      12    H5      20.292343   17.633491   22.480873 H          1 MOL1         0.0738
      13    H6      21.799092   18.536671   22.311617 H          1 MOL1         0.0738
      14    C6      21.068694   18.412150   24.353068 C.3        1 MOL1        -0.2879
      15    H7      21.635111   19.275234   24.726819 H          1 MOL1         0.0750
      16    H8      20.115891   18.365758   24.896622 H          1 MOL1         0.0750
      17    H9      21.638634   17.504399   24.590316 H          1 MOL1         0.0750
@<TRIPOS>BOND
    1     1     2    1
    2     1     3    2
    3     1     4    1
    4     4     5    1
    5     4     6    2
    6     6     7    1
    7     6     8    1
    8     8     9    1
    9     8    10    1
   10     8    11    1
   11    11    12    1
   12    11    13    1
   13    11    14    1
   14    14    15    1
   15    14    16    1
   16    14    17    1
@<TRIPOS>SUBSTRUCTURE
       1 MOL1            1 RESIDUE      1      MOL     
@<SCITEGIC>MOL_PROPERTY
VConf Rank
SciTegic.value.IntegerValue
53

@<SCITEGIC>MOL_PROPERTY
Conf_Id
SciTegic.value.IntegerValue
36

@<SCITEGIC>MOL_PROPERTY
Delta U+W
SciTegic.value.DoubleValue
0.000

@<SCITEGIC>MOL_PROPERTY
U+W
SciTegic.value.DoubleValue
-53.409

@<SCITEGIC>MOL_PROPERTY
Grad RMS
SciTegic.value.DoubleValue
0.000000

@<SCITEGIC>MOL_PROPERTY
U
SciTegic.value.DoubleValue
9.048

@<SCITEGIC>MOL_PROPERTY
W
SciTegic.value.DoubleValue
-62.457

@<SCITEGIC>MOL_PROPERTY
W(PB)
SciTegic.value.DoubleValue
-64.540

@<SCITEGIC>MOL_PROPERTY
W(SA)
SciTegic.value.DoubleValue
2.084

@<SCITEGIC>MOL_PROPERTY
Valence
SciTegic.value.DoubleValue
2.652

@<SCITEGIC>MOL_PROPERTY
Coulomb
SciTegic.value.DoubleValue
5.578

@<SCITEGIC>MOL_PROPERTY
VdW
SciTegic.value.DoubleValue
0.818

@<SCITEGIC>MOL_PROPERTY
VdW6
SciTegic.value.DoubleValue
-4.534

@<SCITEGIC>MOL_PROPERTY
VdW12
SciTegic.value.DoubleValue
5.352

@<SCITEGIC>MOL_PROPERTY
Bond
SciTegic.value.DoubleValue
0.063

@<SCITEGIC>MOL_PROPERTY
Angle
SciTegic.value.DoubleValue
2.579

@<SCITEGIC>MOL_PROPERTY
Pdih
SciTegic.value.DoubleValue
0.010

@<SCITEGIC>MOL_PROPERTY
Idih
SciTegic.value.DoubleValue
0.000

@<SCITEGIC>MOL_PROPERTY
Tether
SciTegic.value.DoubleValue
0.000

@<TRIPOS>MOLECULE
guest-s19_confgen4.mol2 : confsearch ligand conformer 54
          17          16           1
SMALL
USER_CHARGES
 
@<TRIPOS>ATOM
       1    C1      17.219077   19.451355   23.767606 C.2        1 MOL1         0.6173
       2    O1      17.466609   18.998939   24.869623 O.co2      1 MOL1        -0.6755
       3    O2      16.095461   19.752830   23.415034 O.co2      1 MOL1        -0.6755
       4    C2      18.323743   19.654947   22.791683 C.2        1 MOL1        -0.1504
       5    H1      18.034499   20.062449   21.825666 H          1 MOL1         0.0814
       6    C3      19.619194   19.362965   23.047886 C.2        1 MOL1        -0.1394
       7    H2      19.919732   18.952248   24.011609 H          1 MOL1         0.0817
       8    C4      20.736398   19.571320   22.049046 C.3        1 MOL1        -0.1849
       9    H3      21.688356   19.695691   22.582613 H          1 MOL1         0.0736
      10    H4      20.569387   20.500411   21.487170 H          1 MOL1         0.0736
      11    C5      20.844356   18.383681   21.070846 C.3        1 MOL1        -0.1866
      12    H5      21.013533   17.455960   21.635009 H          1 MOL1         0.0738
      13    H6      19.893959   18.260414   20.533156 H          1 MOL1         0.0738
      14    C6      21.986993   18.584155   20.055112 C.3        1 MOL1        -0.2879
      15    H7      22.954467   18.678587   20.565512 H          1 MOL1         0.0750
      16    H8      22.048224   17.729942   19.368307 H          1 MOL1         0.0750
      17    H9      21.825504   19.489839   19.455868 H          1 MOL1         0.0750
@<TRIPOS>BOND
    1     1     2    1
    2     1     3    2
    3     1     4    1
    4     4     5    1
    5     4     6    2
    6     6     7    1
    7     6     8    1
    8     8     9    1
    9     8    10    1
   10     8    11    1
   11    11    12    1
   12    11    13    1
   13    11    14    1
   14    14    15    1
   15    14    16    1
   16    14    17    1
@<TRIPOS>SUBSTRUCTURE
       1 MOL1            1 RESIDUE      1      MOL     
@<SCITEGIC>MOL_PROPERTY
VConf Rank
SciTegic.value.IntegerValue
54

@<SCITEGIC>MOL_PROPERTY
Conf_Id
SciTegic.value.IntegerValue
1

@<SCITEGIC>MOL_PROPERTY
Delta U+W
SciTegic.value.DoubleValue
0.030

@<SCITEGIC>MOL_PROPERTY
U+W
SciTegic.value.DoubleValue
-53.378

@<SCITEGIC>MOL_PROPERTY
Grad RMS
SciTegic.value.DoubleValue
0.000000

@<SCITEGIC>MOL_PROPERTY
U
SciTegic.value.DoubleValue
9.048

@<SCITEGIC>MOL_PROPERTY
W
SciTegic.value.DoubleValue
-62.426

@<SCITEGIC>MOL_PROPERTY
W(PB)
SciTegic.value.DoubleValue
-64.506

@<SCITEGIC>MOL_PROPERTY
W(SA)
SciTegic.value.DoubleValue
2.080

@<SCITEGIC>MOL_PROPERTY
Valence
SciTegic.value.DoubleValue
2.652

@<SCITEGIC>MOL_PROPERTY
Coulomb
SciTegic.value.DoubleValue
5.578

@<SCITEGIC>MOL_PROPERTY
VdW
SciTegic.value.DoubleValue
0.818

@<SCITEGIC>MOL_PROPERTY
VdW6
SciTegic.value.DoubleValue
-4.535

@<SCITEGIC>MOL_PROPERTY
VdW12
SciTegic.value.DoubleValue
5.352

@<SCITEGIC>MOL_PROPERTY
Bond
SciTegic.value.DoubleValue
0.063

@<SCITEGIC>MOL_PROPERTY
Angle
SciTegic.value.DoubleValue
2.579

@<SCITEGIC>MOL_PROPERTY
Pdih
SciTegic.value.DoubleValue
0.010

@<SCITEGIC>MOL_PROPERTY
Idih
SciTegic.value.DoubleValue
0.000

@<SCITEGIC>MOL_PROPERTY
Tether
SciTegic.value.DoubleValue
0.000

@<TRIPOS>MOLECULE
guest-s19_confgen4.mol2 : confsearch ligand conformer 55
          17          16           1
SMALL
USER_CHARGES
 
@<TRIPOS>ATOM
       1    C1      23.021953   19.634055   21.638679 C.2        1 MOL1         0.6173
       2    O1      23.208939   19.049280   20.588196 O.co2      1 MOL1        -0.6755
       3    O2      23.808292   20.442148   22.093067 O.co2      1 MOL1        -0.6755
       4    C2      21.785911   19.362752   22.421422 C.2        1 MOL1        -0.1504
       5    H1      21.681112   19.917836   23.350755 H          1 MOL1         0.0814
       6    C3      20.826039   18.491368   22.036297 C.2        1 MOL1        -0.1394
       7    H2      20.919284   17.932497   21.105401 H          1 MOL1         0.0817
       8    C4      19.568662   18.223280   22.836388 C.3        1 MOL1        -0.1849
       9    H3      19.815168   18.178550   23.905855 H          1 MOL1         0.0736
      10    H4      19.163063   17.236855   22.574187 H          1 MOL1         0.0736
      11    C5      18.487289   19.302784   22.610859 C.3        1 MOL1        -0.1866
      12    H5      17.645550   19.115734   23.291772 H          1 MOL1         0.0738
      13    H6      18.889837   20.290894   22.873580 H          1 MOL1         0.0738
      14    C6      17.966005   19.323300   21.158085 C.3        1 MOL1        -0.2879
      15    H7      17.546949   18.348224   20.877435 H          1 MOL1         0.0750
      16    H8      17.176924   20.077459   21.041883 H          1 MOL1         0.0750
      17    H9      18.770582   19.566783   20.451973 H          1 MOL1         0.0750
@<TRIPOS>BOND
    1     1     2    1
    2     1     3    2
    3     1     4    1
    4     4     5    1
    5     4     6    2
    6     6     7    1
    7     6     8    1
    8     8     9    1
    9     8    10    1
   10     8    11    1
   11    11    12    1
   12    11    13    1
   13    11    14    1
   14    14    15    1
   15    14    16    1
   16    14    17    1
@<TRIPOS>SUBSTRUCTURE
       1 MOL1            1 RESIDUE      1      MOL     
@<SCITEGIC>MOL_PROPERTY
VConf Rank
SciTegic.value.IntegerValue
55

@<SCITEGIC>MOL_PROPERTY
Conf_Id
SciTegic.value.IntegerValue
3

@<SCITEGIC>MOL_PROPERTY
Delta U+W
SciTegic.value.DoubleValue
0.531

@<SCITEGIC>MOL_PROPERTY
U+W
SciTegic.value.DoubleValue
-52.878

@<SCITEGIC>MOL_PROPERTY
Grad RMS
SciTegic.value.DoubleValue
0.000000

@<SCITEGIC>MOL_PROPERTY
U
SciTegic.value.DoubleValue
10.067

@<SCITEGIC>MOL_PROPERTY
W
SciTegic.value.DoubleValue
-62.945

@<SCITEGIC>MOL_PROPERTY
W(PB)
SciTegic.value.DoubleValue
-64.982

@<SCITEGIC>MOL_PROPERTY
W(SA)
SciTegic.value.DoubleValue
2.037

@<SCITEGIC>MOL_PROPERTY
Valence
SciTegic.value.DoubleValue
2.779

@<SCITEGIC>MOL_PROPERTY
Coulomb
SciTegic.value.DoubleValue
6.474

@<SCITEGIC>MOL_PROPERTY
VdW
SciTegic.value.DoubleValue
0.815

@<SCITEGIC>MOL_PROPERTY
VdW6
SciTegic.value.DoubleValue
-5.088

@<SCITEGIC>MOL_PROPERTY
VdW12
SciTegic.value.DoubleValue
5.902

@<SCITEGIC>MOL_PROPERTY
Bond
SciTegic.value.DoubleValue
0.078

@<SCITEGIC>MOL_PROPERTY
Angle
SciTegic.value.DoubleValue
2.651

@<SCITEGIC>MOL_PROPERTY
Pdih
SciTegic.value.DoubleValue
0.050

@<SCITEGIC>MOL_PROPERTY
Idih
SciTegic.value.DoubleValue
0.000

@<SCITEGIC>MOL_PROPERTY
Tether
SciTegic.value.DoubleValue
0.000

@<TRIPOS>MOLECULE
guest-s19_confgen4.mol2 : confsearch ligand conformer 56
          17          16           1
SMALL
USER_CHARGES
 
@<TRIPOS>ATOM
       1    C1      20.902085   21.507450   23.646387 C.2        1 MOL1         0.6173
       2    O1      21.934091   22.143091   23.553079 O.co2      1 MOL1        -0.6755
       3    O2      20.206302   21.520718   24.644463 O.co2      1 MOL1        -0.6755
       4    C2      20.491420   20.687656   22.474481 C.2        1 MOL1        -0.1504
       5    H1      21.158055   20.720987   21.615881 H          1 MOL1         0.0814
       6    C3      19.370940   19.930749   22.439802 C.2        1 MOL1        -0.1394
       7    H2      18.699422   19.888770   23.297018 H          1 MOL1         0.0817
       8    C4      18.956960   19.095050   21.246251 C.3        1 MOL1        -0.1849
       9    H3      19.492949   19.418406   20.343535 H          1 MOL1         0.0736
      10    H4      17.890512   19.262170   21.044336 H          1 MOL1         0.0736
      11    C5      19.192517   17.586279   21.477095 C.3        1 MOL1        -0.1866
      12    H5      18.658828   17.262539   22.381433 H          1 MOL1         0.0738
      13    H6      18.759380   17.023469   20.638742 H          1 MOL1         0.0738
      14    C6      20.689591   17.231026   21.601161 C.3        1 MOL1        -0.2879
      15    H7      21.143555   17.725973   22.469491 H          1 MOL1         0.0750
      16    H8      20.820465   16.148233   21.724847 H          1 MOL1         0.0750
      17    H9      21.241806   17.539153   20.703827 H          1 MOL1         0.0750
@<TRIPOS>BOND
    1     1     2    1
    2     1     3    2
    3     1     4    1
    4     4     5    1
    5     4     6    2
    6     6     7    1
    7     6     8    1
    8     8     9    1
    9     8    10    1
   10     8    11    1
   11    11    12    1
   12    11    13    1
   13    11    14    1
   14    14    15    1
   15    14    16    1
   16    14    17    1
@<TRIPOS>SUBSTRUCTURE
       1 MOL1            1 RESIDUE      1      MOL     
@<SCITEGIC>MOL_PROPERTY
VConf Rank
SciTegic.value.IntegerValue
56

@<SCITEGIC>MOL_PROPERTY
Conf_Id
SciTegic.value.IntegerValue
45

@<SCITEGIC>MOL_PROPERTY
Delta U+W
SciTegic.value.DoubleValue
0.562

@<SCITEGIC>MOL_PROPERTY
U+W
SciTegic.value.DoubleValue
-52.846

@<SCITEGIC>MOL_PROPERTY
Grad RMS
SciTegic.value.DoubleValue
0.000000

@<SCITEGIC>MOL_PROPERTY
U
SciTegic.value.DoubleValue
10.243

@<SCITEGIC>MOL_PROPERTY
W
SciTegic.value.DoubleValue
-63.089

@<SCITEGIC>MOL_PROPERTY
W(PB)
SciTegic.value.DoubleValue
-65.116

@<SCITEGIC>MOL_PROPERTY
W(SA)
SciTegic.value.DoubleValue
2.026

@<SCITEGIC>MOL_PROPERTY
Valence
SciTegic.value.DoubleValue
2.822

@<SCITEGIC>MOL_PROPERTY
Coulomb
SciTegic.value.DoubleValue
6.637

@<SCITEGIC>MOL_PROPERTY
VdW
SciTegic.value.DoubleValue
0.785

@<SCITEGIC>MOL_PROPERTY
VdW6
SciTegic.value.DoubleValue
-5.216

@<SCITEGIC>MOL_PROPERTY
VdW12
SciTegic.value.DoubleValue
6.001

@<SCITEGIC>MOL_PROPERTY
Bond
SciTegic.value.DoubleValue
0.080

@<SCITEGIC>MOL_PROPERTY
Angle
SciTegic.value.DoubleValue
2.678

@<SCITEGIC>MOL_PROPERTY
Pdih
SciTegic.value.DoubleValue
0.064

@<SCITEGIC>MOL_PROPERTY
Idih
SciTegic.value.DoubleValue
0.000

@<SCITEGIC>MOL_PROPERTY
Tether
SciTegic.value.DoubleValue
0.000

@<TRIPOS>MOLECULE
guest-s19_confgen4.mol2 : confsearch ligand conformer 57
          17          16           1
SMALL
USER_CHARGES
 
@<TRIPOS>ATOM
       1    C1      21.558115   19.891982   24.799577 C.2        1 MOL1         0.6173
       2    O1      21.098077   20.360471   25.822606 O.co2      1 MOL1        -0.6755
       3    O2      22.753247   19.832217   24.579393 O.co2      1 MOL1        -0.6755
       4    C2      20.597670   19.374027   23.787930 C.2        1 MOL1        -0.1504
       5    H1      19.544629   19.457534   24.046850 H          1 MOL1         0.0814
       6    C3      20.967924   18.828430   22.607117 C.2        1 MOL1        -0.1394
       7    H2      22.020125   18.742039   22.336591 H          1 MOL1         0.0817
       8    C4      19.984590   18.305971   21.582749 C.3        1 MOL1        -0.1849
       9    H3      19.147522   17.804458   22.087338 H          1 MOL1         0.0736
      10    H4      20.473215   17.546192   20.957954 H          1 MOL1         0.0736
      11    C5      19.447851   19.442291   20.688488 C.3        1 MOL1        -0.1866
      12    H5      18.954921   20.201332   21.311735 H          1 MOL1         0.0738
      13    H6      20.286699   19.941016   20.183339 H          1 MOL1         0.0738
      14    C6      18.451881   18.916487   19.635349 C.3        1 MOL1        -0.2879
      15    H7      18.928853   18.178103   18.977536 H          1 MOL1         0.0750
      16    H8      17.587272   18.439963   20.115779 H          1 MOL1         0.0750
      17    H9      18.081160   19.738523   19.009288 H          1 MOL1         0.0750
@<TRIPOS>BOND
    1     1     2    1
    2     1     3    2
    3     1     4    1
    4     4     5    1
    5     4     6    2
    6     6     7    1
    7     6     8    1
    8     8     9    1
    9     8    10    1
   10     8    11    1
   11    11    12    1
   12    11    13    1
   13    11    14    1
   14    14    15    1
   15    14    16    1
   16    14    17    1
@<TRIPOS>SUBSTRUCTURE
       1 MOL1            1 RESIDUE      1      MOL     
@<SCITEGIC>MOL_PROPERTY
VConf Rank
SciTegic.value.IntegerValue
57

@<SCITEGIC>MOL_PROPERTY
Conf_Id
SciTegic.value.IntegerValue
36

@<SCITEGIC>MOL_PROPERTY
Delta U+W
SciTegic.value.DoubleValue
0.000

@<SCITEGIC>MOL_PROPERTY
U+W
SciTegic.value.DoubleValue
-53.409

@<SCITEGIC>MOL_PROPERTY
Grad RMS
SciTegic.value.DoubleValue
0.000000

@<SCITEGIC>MOL_PROPERTY
U
SciTegic.value.DoubleValue
9.048

@<SCITEGIC>MOL_PROPERTY
W
SciTegic.value.DoubleValue
-62.457

@<SCITEGIC>MOL_PROPERTY
W(PB)
SciTegic.value.DoubleValue
-64.540

@<SCITEGIC>MOL_PROPERTY
W(SA)
SciTegic.value.DoubleValue
2.084

@<SCITEGIC>MOL_PROPERTY
Valence
SciTegic.value.DoubleValue
2.652

@<SCITEGIC>MOL_PROPERTY
Coulomb
SciTegic.value.DoubleValue
5.578

@<SCITEGIC>MOL_PROPERTY
VdW
SciTegic.value.DoubleValue
0.818

@<SCITEGIC>MOL_PROPERTY
VdW6
SciTegic.value.DoubleValue
-4.534

@<SCITEGIC>MOL_PROPERTY
VdW12
SciTegic.value.DoubleValue
5.352

@<SCITEGIC>MOL_PROPERTY
Bond
SciTegic.value.DoubleValue
0.063

@<SCITEGIC>MOL_PROPERTY
Angle
SciTegic.value.DoubleValue
2.579

@<SCITEGIC>MOL_PROPERTY
Pdih
SciTegic.value.DoubleValue
0.010

@<SCITEGIC>MOL_PROPERTY
Idih
SciTegic.value.DoubleValue
0.000

@<SCITEGIC>MOL_PROPERTY
Tether
SciTegic.value.DoubleValue
0.000

@<TRIPOS>MOLECULE
guest-s19_confgen4.mol2 : confsearch ligand conformer 58
          17          16           1
SMALL
USER_CHARGES
 
@<TRIPOS>ATOM
       1    C1      16.727996   19.820626   21.689817 C.2        1 MOL1         0.6173
       2    O1      16.597316   20.975779   22.048895 O.co2      1 MOL1        -0.6755
       3    O2      15.785264   19.074139   21.511713 O.co2      1 MOL1        -0.6755
       4    C2      18.091597   19.275268   21.450360 C.2        1 MOL1        -0.1504
       5    H1      18.138029   18.236587   21.131147 H          1 MOL1         0.0814
       6    C3      19.228208   19.990655   21.609802 C.2        1 MOL1        -0.1394
       7    H2      19.193326   21.031406   21.931355 H          1 MOL1         0.0817
       8    C4      20.611320   19.427835   21.365929 C.3        1 MOL1        -0.1849
       9    H3      21.303848   20.245493   21.124624 H          1 MOL1         0.0736
      10    H4      20.597200   18.762152   20.492159 H          1 MOL1         0.0736
      11    C5      21.130272   18.658622   22.598007 C.3        1 MOL1        -0.1866
      12    H5      21.145522   19.327069   23.470081 H          1 MOL1         0.0738
      13    H6      20.440591   17.837559   22.838333 H          1 MOL1         0.0738
      14    C6      22.543576   18.089575   22.360767 C.3        1 MOL1        -0.2879
      15    H7      23.260601   18.893680   22.149295 H          1 MOL1         0.0750
      16    H8      22.895582   17.546263   23.247353 H          1 MOL1         0.0750
      17    H9      22.549243   17.393026   21.512108 H          1 MOL1         0.0750
@<TRIPOS>BOND
    1     1     2    1
    2     1     3    2
    3     1     4    1
    4     4     5    1
    5     4     6    2
    6     6     7    1
    7     6     8    1
    8     8     9    1
    9     8    10    1
   10     8    11    1
   11    11    12    1
   12    11    13    1
   13    11    14    1
   14    14    15    1
   15    14    16    1
   16    14    17    1
@<TRIPOS>SUBSTRUCTURE
       1 MOL1            1 RESIDUE      1      MOL     
@<SCITEGIC>MOL_PROPERTY
VConf Rank
SciTegic.value.IntegerValue
58

@<SCITEGIC>MOL_PROPERTY
Conf_Id
SciTegic.value.IntegerValue
1

@<SCITEGIC>MOL_PROPERTY
Delta U+W
SciTegic.value.DoubleValue
0.030

@<SCITEGIC>MOL_PROPERTY
U+W
SciTegic.value.DoubleValue
-53.378

@<SCITEGIC>MOL_PROPERTY
Grad RMS
SciTegic.value.DoubleValue
0.000000

@<SCITEGIC>MOL_PROPERTY
U
SciTegic.value.DoubleValue
9.048

@<SCITEGIC>MOL_PROPERTY
W
SciTegic.value.DoubleValue
-62.426

@<SCITEGIC>MOL_PROPERTY
W(PB)
SciTegic.value.DoubleValue
-64.506

@<SCITEGIC>MOL_PROPERTY
W(SA)
SciTegic.value.DoubleValue
2.080

@<SCITEGIC>MOL_PROPERTY
Valence
SciTegic.value.DoubleValue
2.652

@<SCITEGIC>MOL_PROPERTY
Coulomb
SciTegic.value.DoubleValue
5.578

@<SCITEGIC>MOL_PROPERTY
VdW
SciTegic.value.DoubleValue
0.818

@<SCITEGIC>MOL_PROPERTY
VdW6
SciTegic.value.DoubleValue
-4.535

@<SCITEGIC>MOL_PROPERTY
VdW12
SciTegic.value.DoubleValue
5.352

@<SCITEGIC>MOL_PROPERTY
Bond
SciTegic.value.DoubleValue
0.063

@<SCITEGIC>MOL_PROPERTY
Angle
SciTegic.value.DoubleValue
2.579

@<SCITEGIC>MOL_PROPERTY
Pdih
SciTegic.value.DoubleValue
0.010

@<SCITEGIC>MOL_PROPERTY
Idih
SciTegic.value.DoubleValue
0.000

@<SCITEGIC>MOL_PROPERTY
Tether
SciTegic.value.DoubleValue
0.000

@<TRIPOS>MOLECULE
guest-s19_confgen4.mol2 : confsearch ligand conformer 59
          17          16           1
SMALL
USER_CHARGES
 
@<TRIPOS>ATOM
       1    C1      21.633256   16.836660   20.701821 C.2        1 MOL1         0.6173
       2    O1      22.757956   17.128044   21.063189 O.co2      1 MOL1        -0.6755
       3    O2      21.350607   15.749897   20.236132 O.co2      1 MOL1        -0.6755
       4    C2      20.539627   17.838495   20.821800 C.2        1 MOL1        -0.1504
       5    H1      19.559354   17.514404   20.480055 H          1 MOL1         0.0814
       6    C3      20.709634   19.083552   21.321715 C.2        1 MOL1        -0.1394
       7    H2      21.686741   19.417451   21.670097 H          1 MOL1         0.0817
       8    C4      19.590827   20.096591   21.444348 C.3        1 MOL1        -0.1849
       9    H3      18.954865   20.053052   20.549818 H          1 MOL1         0.0736
      10    H4      20.008675   21.111889   21.473786 H          1 MOL1         0.0736
      11    C5      18.719022   19.860490   22.697254 C.3        1 MOL1        -0.1866
      12    H5      17.866966   20.553869   22.677801 H          1 MOL1         0.0738
      13    H6      18.298468   18.845689   22.670018 H          1 MOL1         0.0738
      14    C6      19.504151   20.062776   24.010785 C.3        1 MOL1        -0.2879
      15    H7      19.923530   21.075823   24.065577 H          1 MOL1         0.0750
      16    H8      18.847391   19.920427   24.878719 H          1 MOL1         0.0750
      17    H9      20.330486   19.344690   24.092916 H          1 MOL1         0.0750
@<TRIPOS>BOND
    1     1     2    1
    2     1     3    2
    3     1     4    1
    4     4     5    1
    5     4     6    2
    6     6     7    1
    7     6     8    1
    8     8     9    1
    9     8    10    1
   10     8    11    1
   11    11    12    1
   12    11    13    1
   13    11    14    1
   14    14    15    1
   15    14    16    1
   16    14    17    1
@<TRIPOS>SUBSTRUCTURE
       1 MOL1            1 RESIDUE      1      MOL     
@<SCITEGIC>MOL_PROPERTY
VConf Rank
SciTegic.value.IntegerValue
59

@<SCITEGIC>MOL_PROPERTY
Conf_Id
SciTegic.value.IntegerValue
3

@<SCITEGIC>MOL_PROPERTY
Delta U+W
SciTegic.value.DoubleValue
0.531

@<SCITEGIC>MOL_PROPERTY
U+W
SciTegic.value.DoubleValue
-52.878

@<SCITEGIC>MOL_PROPERTY
Grad RMS
SciTegic.value.DoubleValue
0.000000

@<SCITEGIC>MOL_PROPERTY
U
SciTegic.value.DoubleValue
10.067

@<SCITEGIC>MOL_PROPERTY
W
SciTegic.value.DoubleValue
-62.945

@<SCITEGIC>MOL_PROPERTY
W(PB)
SciTegic.value.DoubleValue
-64.982

@<SCITEGIC>MOL_PROPERTY
W(SA)
SciTegic.value.DoubleValue
2.037

@<SCITEGIC>MOL_PROPERTY
Valence
SciTegic.value.DoubleValue
2.779

@<SCITEGIC>MOL_PROPERTY
Coulomb
SciTegic.value.DoubleValue
6.474

@<SCITEGIC>MOL_PROPERTY
VdW
SciTegic.value.DoubleValue
0.815

@<SCITEGIC>MOL_PROPERTY
VdW6
SciTegic.value.DoubleValue
-5.088

@<SCITEGIC>MOL_PROPERTY
VdW12
SciTegic.value.DoubleValue
5.902

@<SCITEGIC>MOL_PROPERTY
Bond
SciTegic.value.DoubleValue
0.078

@<SCITEGIC>MOL_PROPERTY
Angle
SciTegic.value.DoubleValue
2.651

@<SCITEGIC>MOL_PROPERTY
Pdih
SciTegic.value.DoubleValue
0.050

@<SCITEGIC>MOL_PROPERTY
Idih
SciTegic.value.DoubleValue
0.000

@<SCITEGIC>MOL_PROPERTY
Tether
SciTegic.value.DoubleValue
0.000

@<TRIPOS>MOLECULE
guest-s19_confgen4.mol2 : confsearch ligand conformer 60
          17          16           1
SMALL
USER_CHARGES
 
@<TRIPOS>ATOM
       1    C1      18.500319   20.798042   24.089708 C.2        1 MOL1         0.6173
       2    O1      18.715169   21.940536   24.445131 O.co2      1 MOL1        -0.6755
       3    O2      17.853357   20.010377   24.754142 O.co2      1 MOL1        -0.6755
       4    C2      19.060755   20.368796   22.779848 C.2        1 MOL1        -0.1504
       5    H1      19.628248   21.121581   22.237656 H          1 MOL1         0.0814
       6    C3      18.902365   19.129199   22.262262 C.2        1 MOL1        -0.1394
       7    H2      18.338368   18.367854   22.800574 H          1 MOL1         0.0817
       8    C4      19.476478   18.694359   20.929728 C.3        1 MOL1        -0.1849
       9    H3      19.753330   19.568345   20.324551 H          1 MOL1         0.0736
      10    H4      18.701196   18.163010   20.361734 H          1 MOL1         0.0736
      11    C5      20.701040   17.767640   21.093455 C.3        1 MOL1        -0.1866
      12    H5      20.425654   16.894388   21.700953 H          1 MOL1         0.0738
      13    H6      20.994363   17.383537   20.106731 H          1 MOL1         0.0738
      14    C6      21.908483   18.486253   21.732600 C.3        1 MOL1        -0.2879
      15    H7      21.673179   18.828948   22.748595 H          1 MOL1         0.0750
      16    H8      22.770498   17.809767   21.797118 H          1 MOL1         0.0750
      17    H9      22.206077   19.359090   21.137045 H          1 MOL1         0.0750
@<TRIPOS>BOND
    1     1     2    1
    2     1     3    2
    3     1     4    1
    4     4     5    1
    5     4     6    2
    6     6     7    1
    7     6     8    1
    8     8     9    1
    9     8    10    1
   10     8    11    1
   11    11    12    1
   12    11    13    1
   13    11    14    1
   14    14    15    1
   15    14    16    1
   16    14    17    1
@<TRIPOS>SUBSTRUCTURE
       1 MOL1            1 RESIDUE      1      MOL     
@<SCITEGIC>MOL_PROPERTY
VConf Rank
SciTegic.value.IntegerValue
60

@<SCITEGIC>MOL_PROPERTY
Conf_Id
SciTegic.value.IntegerValue
45

@<SCITEGIC>MOL_PROPERTY
Delta U+W
SciTegic.value.DoubleValue
0.562

@<SCITEGIC>MOL_PROPERTY
U+W
SciTegic.value.DoubleValue
-52.846

@<SCITEGIC>MOL_PROPERTY
Grad RMS
SciTegic.value.DoubleValue
0.000000

@<SCITEGIC>MOL_PROPERTY
U
SciTegic.value.DoubleValue
10.243

@<SCITEGIC>MOL_PROPERTY
W
SciTegic.value.DoubleValue
-63.089

@<SCITEGIC>MOL_PROPERTY
W(PB)
SciTegic.value.DoubleValue
-65.116

@<SCITEGIC>MOL_PROPERTY
W(SA)
SciTegic.value.DoubleValue
2.026

@<SCITEGIC>MOL_PROPERTY
Valence
SciTegic.value.DoubleValue
2.822

@<SCITEGIC>MOL_PROPERTY
Coulomb
SciTegic.value.DoubleValue
6.637

@<SCITEGIC>MOL_PROPERTY
VdW
SciTegic.value.DoubleValue
0.785

@<SCITEGIC>MOL_PROPERTY
VdW6
SciTegic.value.DoubleValue
-5.216

@<SCITEGIC>MOL_PROPERTY
VdW12
SciTegic.value.DoubleValue
6.001

@<SCITEGIC>MOL_PROPERTY
Bond
SciTegic.value.DoubleValue
0.080

@<SCITEGIC>MOL_PROPERTY
Angle
SciTegic.value.DoubleValue
2.678

@<SCITEGIC>MOL_PROPERTY
Pdih
SciTegic.value.DoubleValue
0.064

@<SCITEGIC>MOL_PROPERTY
Idih
SciTegic.value.DoubleValue
0.000

@<SCITEGIC>MOL_PROPERTY
Tether
SciTegic.value.DoubleValue
0.000

@<TRIPOS>MOLECULE
guest-s19_confgen4.mol2 : confsearch ligand conformer 61
          17          16           1
SMALL
USER_CHARGES
 
@<TRIPOS>ATOM
       1    C1      18.866889   16.564512   23.808416 C.2        1 MOL1         0.6173
       2    O1      19.220748   16.215171   24.917672 O.co2      1 MOL1        -0.6755
       3    O2      18.166587   15.875310   23.090801 O.co2      1 MOL1        -0.6755
       4    C2      19.321642   17.898068   23.329887 C.2        1 MOL1        -0.1504
       5    H1      19.944536   18.462789   24.019815 H          1 MOL1         0.0814
       6    C3      19.005616   18.412614   22.119740 C.2        1 MOL1        -0.1394
       7    H2      18.384165   17.854341   21.419809 H          1 MOL1         0.0817
       8    C4      19.474067   19.768897   21.639857 C.3        1 MOL1        -0.1849
       9    H3      19.459966   20.486887   22.471182 H          1 MOL1         0.0736
      10    H4      18.776068   20.152721   20.883641 H          1 MOL1         0.0736
      11    C5      20.893519   19.693612   21.041106 C.3        1 MOL1        -0.1866
      12    H5      21.593949   19.313700   21.797826 H          1 MOL1         0.0738
      13    H6      20.904600   18.976443   20.208572 H          1 MOL1         0.0738
      14    C6      21.374729   21.070488   20.540932 C.3        1 MOL1        -0.2879
      15    H7      20.708731   21.459503   19.759559 H          1 MOL1         0.0750
      16    H8      21.402458   21.798956   21.361908 H          1 MOL1         0.0750
      17    H9      22.385481   20.997025   20.118896 H          1 MOL1         0.0750
@<TRIPOS>BOND
    1     1     2    1
    2     1     3    2
    3     1     4    1
    4     4     5    1
    5     4     6    2
    6     6     7    1
    7     6     8    1
    8     8     9    1
    9     8    10    1
   10     8    11    1
   11    11    12    1
   12    11    13    1
   13    11    14    1
   14    14    15    1
   15    14    16    1
   16    14    17    1
@<TRIPOS>SUBSTRUCTURE
       1 MOL1            1 RESIDUE      1      MOL     
@<SCITEGIC>MOL_PROPERTY
VConf Rank
SciTegic.value.IntegerValue
61

@<SCITEGIC>MOL_PROPERTY
Conf_Id
SciTegic.value.IntegerValue
36

@<SCITEGIC>MOL_PROPERTY
Delta U+W
SciTegic.value.DoubleValue
0.000

@<SCITEGIC>MOL_PROPERTY
U+W
SciTegic.value.DoubleValue
-53.409

@<SCITEGIC>MOL_PROPERTY
Grad RMS
SciTegic.value.DoubleValue
0.000000

@<SCITEGIC>MOL_PROPERTY
U
SciTegic.value.DoubleValue
9.048

@<SCITEGIC>MOL_PROPERTY
W
SciTegic.value.DoubleValue
-62.457

@<SCITEGIC>MOL_PROPERTY
W(PB)
SciTegic.value.DoubleValue
-64.540

@<SCITEGIC>MOL_PROPERTY
W(SA)
SciTegic.value.DoubleValue
2.084

@<SCITEGIC>MOL_PROPERTY
Valence
SciTegic.value.DoubleValue
2.652

@<SCITEGIC>MOL_PROPERTY
Coulomb
SciTegic.value.DoubleValue
5.578

@<SCITEGIC>MOL_PROPERTY
VdW
SciTegic.value.DoubleValue
0.818

@<SCITEGIC>MOL_PROPERTY
VdW6
SciTegic.value.DoubleValue
-4.534

@<SCITEGIC>MOL_PROPERTY
VdW12
SciTegic.value.DoubleValue
5.352

@<SCITEGIC>MOL_PROPERTY
Bond
SciTegic.value.DoubleValue
0.063

@<SCITEGIC>MOL_PROPERTY
Angle
SciTegic.value.DoubleValue
2.579

@<SCITEGIC>MOL_PROPERTY
Pdih
SciTegic.value.DoubleValue
0.010

@<SCITEGIC>MOL_PROPERTY
Idih
SciTegic.value.DoubleValue
0.000

@<SCITEGIC>MOL_PROPERTY
Tether
SciTegic.value.DoubleValue
0.000

@<TRIPOS>MOLECULE
guest-s19_confgen4.mol2 : confsearch ligand conformer 62
          17          16           1
SMALL
USER_CHARGES
 
@<TRIPOS>ATOM
       1    C1      22.195780   16.659085   21.081499 C.2        1 MOL1         0.6173
       2    O1      23.236015   16.904016   21.663147 O.co2      1 MOL1        -0.6755
       3    O2      22.107549   15.809808   20.216255 O.co2      1 MOL1        -0.6755
       4    C2      20.963746   17.418164   21.427985 C.2        1 MOL1        -0.1504
       5    H1      20.068770   17.150068   20.871162 H          1 MOL1         0.0814
       6    C3      20.916223   18.389609   22.367731 C.2        1 MOL1        -0.1394
       7    H2      21.807467   18.667693   22.929982 H          1 MOL1         0.0817
       8    C4      19.659415   19.158136   22.712753 C.3        1 MOL1        -0.1849
       9    H3      19.732789   19.541292   23.739493 H          1 MOL1         0.0736
      10    H4      18.790555   18.486252   22.691280 H          1 MOL1         0.0736
      11    C5      19.433552   20.332429   21.738566 C.3        1 MOL1        -0.1866
      12    H5      20.302898   21.004132   21.763434 H          1 MOL1         0.0738
      13    H6      19.355813   19.950353   20.711174 H          1 MOL1         0.0738
      14    C6      18.159198   21.126562   22.089133 C.3        1 MOL1        -0.2879
      15    H7      18.224121   21.546995   23.101285 H          1 MOL1         0.0750
      16    H8      18.015362   21.957126   21.385851 H          1 MOL1         0.0750
      17    H9      17.270236   20.484014   22.041014 H          1 MOL1         0.0750
@<TRIPOS>BOND
    1     1     2    1
    2     1     3    2
    3     1     4    1
    4     4     5    1
    5     4     6    2
    6     6     7    1
    7     6     8    1
    8     8     9    1
    9     8    10    1
   10     8    11    1
   11    11    12    1
   12    11    13    1
   13    11    14    1
   14    14    15    1
   15    14    16    1
   16    14    17    1
@<TRIPOS>SUBSTRUCTURE
       1 MOL1            1 RESIDUE      1      MOL     
@<SCITEGIC>MOL_PROPERTY
VConf Rank
SciTegic.value.IntegerValue
62

@<SCITEGIC>MOL_PROPERTY
Conf_Id
SciTegic.value.IntegerValue
1

@<SCITEGIC>MOL_PROPERTY
Delta U+W
SciTegic.value.DoubleValue
0.030

@<SCITEGIC>MOL_PROPERTY
U+W
SciTegic.value.DoubleValue
-53.378

@<SCITEGIC>MOL_PROPERTY
Grad RMS
SciTegic.value.DoubleValue
0.000000

@<SCITEGIC>MOL_PROPERTY
U
SciTegic.value.DoubleValue
9.048

@<SCITEGIC>MOL_PROPERTY
W
SciTegic.value.DoubleValue
-62.426

@<SCITEGIC>MOL_PROPERTY
W(PB)
SciTegic.value.DoubleValue
-64.506

@<SCITEGIC>MOL_PROPERTY
W(SA)
SciTegic.value.DoubleValue
2.080

@<SCITEGIC>MOL_PROPERTY
Valence
SciTegic.value.DoubleValue
2.652

@<SCITEGIC>MOL_PROPERTY
Coulomb
SciTegic.value.DoubleValue
5.578

@<SCITEGIC>MOL_PROPERTY
VdW
SciTegic.value.DoubleValue
0.818

@<SCITEGIC>MOL_PROPERTY
VdW6
SciTegic.value.DoubleValue
-4.535

@<SCITEGIC>MOL_PROPERTY
VdW12
SciTegic.value.DoubleValue
5.352

@<SCITEGIC>MOL_PROPERTY
Bond
SciTegic.value.DoubleValue
0.063

@<SCITEGIC>MOL_PROPERTY
Angle
SciTegic.value.DoubleValue
2.579

@<SCITEGIC>MOL_PROPERTY
Pdih
SciTegic.value.DoubleValue
0.010

@<SCITEGIC>MOL_PROPERTY
Idih
SciTegic.value.DoubleValue
0.000

@<SCITEGIC>MOL_PROPERTY
Tether
SciTegic.value.DoubleValue
0.000

@<TRIPOS>MOLECULE
guest-s19_confgen4.mol2 : confsearch ligand conformer 63
          17          16           1
SMALL
USER_CHARGES
 
@<TRIPOS>ATOM
       1    C1      17.052382   19.908525   22.251143 C.2        1 MOL1         0.6173
       2    O1      16.552939   19.117434   21.473214 O.co2      1 MOL1        -0.6755
       3    O2      16.399676   20.543529   23.056472 O.co2      1 MOL1        -0.6755
       4    C2      18.523930   20.128320   22.233016 C.2        1 MOL1        -0.1504
       5    H1      18.905206   20.848780   22.952964 H          1 MOL1         0.0814
       6    C3      19.370847   19.490874   21.393147 C.2        1 MOL1        -0.1394
       7    H2      18.999968   18.764647   20.670209 H          1 MOL1         0.0817
       8    C4      20.868120   19.716902   21.383136 C.3        1 MOL1        -0.1849
       9    H3      21.079879   20.787219   21.510047 H          1 MOL1         0.0736
      10    H4      21.280943   19.437075   20.404582 H          1 MOL1         0.0736
      11    C5      21.589728   18.922882   22.494160 C.3        1 MOL1        -0.1866
      12    H5      22.651327   19.205756   22.506129 H          1 MOL1         0.0738
      13    H6      21.179612   19.201682   23.474723 H          1 MOL1         0.0738
      14    C6      21.476708   17.395908   22.298482 C.3        1 MOL1        -0.2879
      15    H7      21.892575   17.092406   21.328901 H          1 MOL1         0.0750
      16    H8      22.027750   16.864265   23.085003 H          1 MOL1         0.0750
      17    H9      20.429968   17.067595   22.340507 H          1 MOL1         0.0750
@<TRIPOS>BOND
    1     1     2    1
    2     1     3    2
    3     1     4    1
    4     4     5    1
    5     4     6    2
    6     6     7    1
    7     6     8    1
    8     8     9    1
    9     8    10    1
   10     8    11    1
   11    11    12    1
   12    11    13    1
   13    11    14    1
   14    14    15    1
   15    14    16    1
   16    14    17    1
@<TRIPOS>SUBSTRUCTURE
       1 MOL1            1 RESIDUE      1      MOL     
@<SCITEGIC>MOL_PROPERTY
VConf Rank
SciTegic.value.IntegerValue
63

@<SCITEGIC>MOL_PROPERTY
Conf_Id
SciTegic.value.IntegerValue
3

@<SCITEGIC>MOL_PROPERTY
Delta U+W
SciTegic.value.DoubleValue
0.531

@<SCITEGIC>MOL_PROPERTY
U+W
SciTegic.value.DoubleValue
-52.878

@<SCITEGIC>MOL_PROPERTY
Grad RMS
SciTegic.value.DoubleValue
0.000000

@<SCITEGIC>MOL_PROPERTY
U
SciTegic.value.DoubleValue
10.067

@<SCITEGIC>MOL_PROPERTY
W
SciTegic.value.DoubleValue
-62.945

@<SCITEGIC>MOL_PROPERTY
W(PB)
SciTegic.value.DoubleValue
-64.982

@<SCITEGIC>MOL_PROPERTY
W(SA)
SciTegic.value.DoubleValue
2.037

@<SCITEGIC>MOL_PROPERTY
Valence
SciTegic.value.DoubleValue
2.779

@<SCITEGIC>MOL_PROPERTY
Coulomb
SciTegic.value.DoubleValue
6.474

@<SCITEGIC>MOL_PROPERTY
VdW
SciTegic.value.DoubleValue
0.815

@<SCITEGIC>MOL_PROPERTY
VdW6
SciTegic.value.DoubleValue
-5.088

@<SCITEGIC>MOL_PROPERTY
VdW12
SciTegic.value.DoubleValue
5.902

@<SCITEGIC>MOL_PROPERTY
Bond
SciTegic.value.DoubleValue
0.078

@<SCITEGIC>MOL_PROPERTY
Angle
SciTegic.value.DoubleValue
2.651

@<SCITEGIC>MOL_PROPERTY
Pdih
SciTegic.value.DoubleValue
0.050

@<SCITEGIC>MOL_PROPERTY
Idih
SciTegic.value.DoubleValue
0.000

@<SCITEGIC>MOL_PROPERTY
Tether
SciTegic.value.DoubleValue
0.000

@<TRIPOS>MOLECULE
guest-s19_confgen4.mol2 : confsearch ligand conformer 64
          17          16           1
SMALL
USER_CHARGES
 
@<TRIPOS>ATOM
       1    C1      22.744834   19.362556   23.254762 C.2        1 MOL1         0.6173
       2    O1      23.461073   20.341192   23.338749 O.co2      1 MOL1        -0.6755
       3    O2      23.171353   18.224750   23.317426 O.co2      1 MOL1        -0.6755
       4    C2      21.286221   19.592069   23.070797 C.2        1 MOL1        -0.1504
       5    H1      20.972497   20.632266   23.023133 H          1 MOL1         0.0814
       6    C3      20.375102   18.598489   22.960133 C.2        1 MOL1        -0.1394
       7    H2      20.681321   17.553550   23.003135 H          1 MOL1         0.0817
       8    C4      18.891135   18.835311   22.770149 C.3        1 MOL1        -0.1849
       9    H3      18.626832   19.866930   23.039680 H          1 MOL1         0.0736
      10    H4      18.333665   18.187333   23.459613 H          1 MOL1         0.0736
      11    C5      18.431090   18.542427   21.325246 C.3        1 MOL1        -0.1866
      12    H5      18.697464   17.511473   21.053885 H          1 MOL1         0.0738
      13    H6      17.335225   18.606128   21.278112 H          1 MOL1         0.0738
      14    C6      19.036450   19.523615   20.298776 C.3        1 MOL1        -0.2879
      15    H7      20.130840   19.442461   20.270871 H          1 MOL1         0.0750
      16    H8      18.657652   19.310270   19.290876 H          1 MOL1         0.0750
      17    H9      18.776125   20.560901   20.546486 H          1 MOL1         0.0750
@<TRIPOS>BOND
    1     1     2    1
    2     1     3    2
    3     1     4    1
    4     4     5    1
    5     4     6    2
    6     6     7    1
    7     6     8    1
    8     8     9    1
    9     8    10    1
   10     8    11    1
   11    11    12    1
   12    11    13    1
   13    11    14    1
   14    14    15    1
   15    14    16    1
   16    14    17    1
@<TRIPOS>SUBSTRUCTURE
       1 MOL1            1 RESIDUE      1      MOL     
@<SCITEGIC>MOL_PROPERTY
VConf Rank
SciTegic.value.IntegerValue
64

@<SCITEGIC>MOL_PROPERTY
Conf_Id
SciTegic.value.IntegerValue
45

@<SCITEGIC>MOL_PROPERTY
Delta U+W
SciTegic.value.DoubleValue
0.562

@<SCITEGIC>MOL_PROPERTY
U+W
SciTegic.value.DoubleValue
-52.846

@<SCITEGIC>MOL_PROPERTY
Grad RMS
SciTegic.value.DoubleValue
0.000000

@<SCITEGIC>MOL_PROPERTY
U
SciTegic.value.DoubleValue
10.243

@<SCITEGIC>MOL_PROPERTY
W
SciTegic.value.DoubleValue
-63.089

@<SCITEGIC>MOL_PROPERTY
W(PB)
SciTegic.value.DoubleValue
-65.116

@<SCITEGIC>MOL_PROPERTY
W(SA)
SciTegic.value.DoubleValue
2.026

@<SCITEGIC>MOL_PROPERTY
Valence
SciTegic.value.DoubleValue
2.822

@<SCITEGIC>MOL_PROPERTY
Coulomb
SciTegic.value.DoubleValue
6.637

@<SCITEGIC>MOL_PROPERTY
VdW
SciTegic.value.DoubleValue
0.785

@<SCITEGIC>MOL_PROPERTY
VdW6
SciTegic.value.DoubleValue
-5.216

@<SCITEGIC>MOL_PROPERTY
VdW12
SciTegic.value.DoubleValue
6.001

@<SCITEGIC>MOL_PROPERTY
Bond
SciTegic.value.DoubleValue
0.080

@<SCITEGIC>MOL_PROPERTY
Angle
SciTegic.value.DoubleValue
2.678

@<SCITEGIC>MOL_PROPERTY
Pdih
SciTegic.value.DoubleValue
0.064

@<SCITEGIC>MOL_PROPERTY
Idih
SciTegic.value.DoubleValue
0.000

@<SCITEGIC>MOL_PROPERTY
Tether
SciTegic.value.DoubleValue
0.000

@<TRIPOS>MOLECULE
guest-s19_confgen4.mol2 : confsearch ligand conformer 65
          17          16           1
SMALL
USER_CHARGES
 
@<TRIPOS>ATOM
       1    C1      19.957258   20.590713   24.947802 C.2        1 MOL1         0.6173
       2    O1      20.876918   20.789634   25.717451 O.co2      1 MOL1        -0.6755
       3    O2      18.789600   20.705547   25.269956 O.co2      1 MOL1        -0.6755
       4    C2      20.299735   20.191706   23.555802 C.2        1 MOL1        -0.1504
       5    H1      21.361103   20.107325   23.333793 H          1 MOL1         0.0814
       6    C3      19.380609   19.938093   22.596650 C.2        1 MOL1        -0.1394
       7    H2      18.314566   20.017317   22.808900 H          1 MOL1         0.0817
       8    C4      19.737319   19.530669   21.183851 C.3        1 MOL1        -0.1849
       9    H3      20.624792   20.083212   20.846363 H          1 MOL1         0.0736
      10    H4      18.920075   19.806837   20.503975 H          1 MOL1         0.0736
      11    C5      20.000007   18.013964   21.085804 C.3        1 MOL1        -0.1866
      12    H5      20.820307   17.736655   21.762389 H          1 MOL1         0.0738
      13    H6      19.110293   17.463510   21.421925 H          1 MOL1         0.0738
      14    C6      20.355088   17.589026   19.646752 C.3        1 MOL1        -0.2879
      15    H7      19.537205   17.826307   18.953790 H          1 MOL1         0.0750
      16    H8      21.260415   18.102706   19.297535 H          1 MOL1         0.0750
      17    H9      20.538460   16.507814   19.596881 H          1 MOL1         0.0750
@<TRIPOS>BOND
    1     1     2    1
    2     1     3    2
    3     1     4    1
    4     4     5    1
    5     4     6    2
    6     6     7    1
    7     6     8    1
    8     8     9    1
    9     8    10    1
   10     8    11    1
   11    11    12    1
   12    11    13    1
   13    11    14    1
   14    14    15    1
   15    14    16    1
   16    14    17    1
@<TRIPOS>SUBSTRUCTURE
       1 MOL1            1 RESIDUE      1      MOL     
@<SCITEGIC>MOL_PROPERTY
VConf Rank
SciTegic.value.IntegerValue
65

@<SCITEGIC>MOL_PROPERTY
Conf_Id
SciTegic.value.IntegerValue
36

@<SCITEGIC>MOL_PROPERTY
Delta U+W
SciTegic.value.DoubleValue
0.000

@<SCITEGIC>MOL_PROPERTY
U+W
SciTegic.value.DoubleValue
-53.409

@<SCITEGIC>MOL_PROPERTY
Grad RMS
SciTegic.value.DoubleValue
0.000000

@<SCITEGIC>MOL_PROPERTY
U
SciTegic.value.DoubleValue
9.048

@<SCITEGIC>MOL_PROPERTY
W
SciTegic.value.DoubleValue
-62.457

@<SCITEGIC>MOL_PROPERTY
W(PB)
SciTegic.value.DoubleValue
-64.540

@<SCITEGIC>MOL_PROPERTY
W(SA)
SciTegic.value.DoubleValue
2.084

@<SCITEGIC>MOL_PROPERTY
Valence
SciTegic.value.DoubleValue
2.652

@<SCITEGIC>MOL_PROPERTY
Coulomb
SciTegic.value.DoubleValue
5.578

@<SCITEGIC>MOL_PROPERTY
VdW
SciTegic.value.DoubleValue
0.818

@<SCITEGIC>MOL_PROPERTY
VdW6
SciTegic.value.DoubleValue
-4.534

@<SCITEGIC>MOL_PROPERTY
VdW12
SciTegic.value.DoubleValue
5.352

@<SCITEGIC>MOL_PROPERTY
Bond
SciTegic.value.DoubleValue
0.063

@<SCITEGIC>MOL_PROPERTY
Angle
SciTegic.value.DoubleValue
2.579

@<SCITEGIC>MOL_PROPERTY
Pdih
SciTegic.value.DoubleValue
0.010

@<SCITEGIC>MOL_PROPERTY
Idih
SciTegic.value.DoubleValue
0.000

@<SCITEGIC>MOL_PROPERTY
Tether
SciTegic.value.DoubleValue
0.000

@<TRIPOS>MOLECULE
guest-s19_confgen4.mol2 : confsearch ligand conformer 66
          17          16           1
SMALL
USER_CHARGES
 
@<TRIPOS>ATOM
       1    C1      18.256452   21.748645   20.801306 C.2        1 MOL1         0.6173
       2    O1      18.948582   22.732093   20.986184 O.co2      1 MOL1        -0.6755
       3    O2      17.086407   21.816185   20.478600 O.co2      1 MOL1        -0.6755
       4    C2      18.845930   20.392849   20.970109 C.2        1 MOL1        -0.1504
       5    H1      18.173583   19.557189   20.789741 H          1 MOL1         0.0814
       6    C3      20.131190   20.168792   21.326468 C.2        1 MOL1        -0.1394
       7    H2      20.812840   20.998736   21.511726 H          1 MOL1         0.0817
       8    C4      20.722353   18.786617   21.497805 C.3        1 MOL1        -0.1849
       9    H3      21.809416   18.830226   21.346876 H          1 MOL1         0.0736
      10    H4      20.326750   18.110804   20.727362 H          1 MOL1         0.0736
      11    C5      20.418177   18.214914   22.897680 C.3        1 MOL1        -0.1866
      12    H5      20.816696   18.891464   23.666465 H          1 MOL1         0.0738
      13    H6      19.330786   18.166774   23.048752 H          1 MOL1         0.0738
      14    C6      21.025362   16.809820   23.083592 C.3        1 MOL1        -0.2879
      15    H7      22.116989   16.835112   22.968958 H          1 MOL1         0.0750
      16    H8      20.798750   16.419917   24.084467 H          1 MOL1         0.0750
      17    H9      20.619228   16.105594   22.345652 H          1 MOL1         0.0750
@<TRIPOS>BOND
    1     1     2    1
    2     1     3    2
    3     1     4    1
    4     4     5    1
    5     4     6    2
    6     6     7    1
    7     6     8    1
    8     8     9    1
    9     8    10    1
   10     8    11    1
   11    11    12    1
   12    11    13    1
   13    11    14    1
   14    14    15    1
   15    14    16    1
   16    14    17    1
@<TRIPOS>SUBSTRUCTURE
       1 MOL1            1 RESIDUE      1      MOL     
@<SCITEGIC>MOL_PROPERTY
VConf Rank
SciTegic.value.IntegerValue
66

@<SCITEGIC>MOL_PROPERTY
Conf_Id
SciTegic.value.IntegerValue
1

@<SCITEGIC>MOL_PROPERTY
Delta U+W
SciTegic.value.DoubleValue
0.030

@<SCITEGIC>MOL_PROPERTY
U+W
SciTegic.value.DoubleValue
-53.378

@<SCITEGIC>MOL_PROPERTY
Grad RMS
SciTegic.value.DoubleValue
0.000000

@<SCITEGIC>MOL_PROPERTY
U
SciTegic.value.DoubleValue
9.048

@<SCITEGIC>MOL_PROPERTY
W
SciTegic.value.DoubleValue
-62.426

@<SCITEGIC>MOL_PROPERTY
W(PB)
SciTegic.value.DoubleValue
-64.506

@<SCITEGIC>MOL_PROPERTY
W(SA)
SciTegic.value.DoubleValue
2.080

@<SCITEGIC>MOL_PROPERTY
Valence
SciTegic.value.DoubleValue
2.652

@<SCITEGIC>MOL_PROPERTY
Coulomb
SciTegic.value.DoubleValue
5.578

@<SCITEGIC>MOL_PROPERTY
VdW
SciTegic.value.DoubleValue
0.818

@<SCITEGIC>MOL_PROPERTY
VdW6
SciTegic.value.DoubleValue
-4.535

@<SCITEGIC>MOL_PROPERTY
VdW12
SciTegic.value.DoubleValue
5.352

@<SCITEGIC>MOL_PROPERTY
Bond
SciTegic.value.DoubleValue
0.063

@<SCITEGIC>MOL_PROPERTY
Angle
SciTegic.value.DoubleValue
2.579

@<SCITEGIC>MOL_PROPERTY
Pdih
SciTegic.value.DoubleValue
0.010

@<SCITEGIC>MOL_PROPERTY
Idih
SciTegic.value.DoubleValue
0.000

@<SCITEGIC>MOL_PROPERTY
Tether
SciTegic.value.DoubleValue
0.000

@<TRIPOS>MOLECULE
guest-s19_confgen4.mol2 : confsearch ligand conformer 67
          17          16           1
SMALL
USER_CHARGES
 
@<TRIPOS>ATOM
       1    C1      20.061041   16.116756   22.869281 C.2        1 MOL1         0.6173
       2    O1      21.208987   15.828888   22.586802 O.co2      1 MOL1        -0.6755
       3    O2      19.362337   15.421371   23.580661 O.co2      1 MOL1        -0.6755
       4    C2      19.462591   17.367741   22.329850 C.2        1 MOL1        -0.1504
       5    H1      18.433171   17.565012   22.619918 H          1 MOL1         0.0814
       6    C3      20.122846   18.234620   21.528870 C.2        1 MOL1        -0.1394
       7    H2      21.155556   18.048472   21.234835 H          1 MOL1         0.0817
       8    C4      19.508369   19.508021   20.986759 C.3        1 MOL1        -0.1849
       9    H3      18.470046   19.316115   20.684129 H          1 MOL1         0.0736
      10    H4      20.039425   19.820669   20.077625 H          1 MOL1         0.0736
      11    C5      19.530758   20.656960   22.018747 C.3        1 MOL1        -0.1866
      12    H5      18.981109   21.516575   21.611193 H          1 MOL1         0.0738
      13    H6      18.998993   20.347509   22.929183 H          1 MOL1         0.0738
      14    C6      20.964715   21.100089   22.379465 C.3        1 MOL1        -0.2879
      15    H7      21.511670   21.426037   21.485182 H          1 MOL1         0.0750
      16    H8      20.942853   21.938425   23.087718 H          1 MOL1         0.0750
      17    H9      21.527089   20.280540   22.845616 H          1 MOL1         0.0750
@<TRIPOS>BOND
    1     1     2    1
    2     1     3    2
    3     1     4    1
    4     4     5    1
    5     4     6    2
    6     6     7    1
    7     6     8    1
    8     8     9    1
    9     8    10    1
   10     8    11    1
   11    11    12    1
   12    11    13    1
   13    11    14    1
   14    14    15    1
   15    14    16    1
   16    14    17    1
@<TRIPOS>SUBSTRUCTURE
       1 MOL1            1 RESIDUE      1      MOL     
@<SCITEGIC>MOL_PROPERTY
VConf Rank
SciTegic.value.IntegerValue
67

@<SCITEGIC>MOL_PROPERTY
Conf_Id
SciTegic.value.IntegerValue
3

@<SCITEGIC>MOL_PROPERTY
Delta U+W
SciTegic.value.DoubleValue
0.531

@<SCITEGIC>MOL_PROPERTY
U+W
SciTegic.value.DoubleValue
-52.878

@<SCITEGIC>MOL_PROPERTY
Grad RMS
SciTegic.value.DoubleValue
0.000000

@<SCITEGIC>MOL_PROPERTY
U
SciTegic.value.DoubleValue
10.067

@<SCITEGIC>MOL_PROPERTY
W
SciTegic.value.DoubleValue
-62.945

@<SCITEGIC>MOL_PROPERTY
W(PB)
SciTegic.value.DoubleValue
-64.982

@<SCITEGIC>MOL_PROPERTY
W(SA)
SciTegic.value.DoubleValue
2.037

@<SCITEGIC>MOL_PROPERTY
Valence
SciTegic.value.DoubleValue
2.779

@<SCITEGIC>MOL_PROPERTY
Coulomb
SciTegic.value.DoubleValue
6.474

@<SCITEGIC>MOL_PROPERTY
VdW
SciTegic.value.DoubleValue
0.815

@<SCITEGIC>MOL_PROPERTY
VdW6
SciTegic.value.DoubleValue
-5.088

@<SCITEGIC>MOL_PROPERTY
VdW12
SciTegic.value.DoubleValue
5.902

@<SCITEGIC>MOL_PROPERTY
Bond
SciTegic.value.DoubleValue
0.078

@<SCITEGIC>MOL_PROPERTY
Angle
SciTegic.value.DoubleValue
2.651

@<SCITEGIC>MOL_PROPERTY
Pdih
SciTegic.value.DoubleValue
0.050

@<SCITEGIC>MOL_PROPERTY
Idih
SciTegic.value.DoubleValue
0.000

@<SCITEGIC>MOL_PROPERTY
Tether
SciTegic.value.DoubleValue
0.000

@<TRIPOS>MOLECULE
guest-s19_confgen4.mol2 : confsearch ligand conformer 68
          17          16           1
SMALL
USER_CHARGES
 
@<TRIPOS>ATOM
       1    C1      20.546656   19.452194   25.020955 C.2        1 MOL1         0.6173
       2    O1      19.801630   19.331352   25.973904 O.co2      1 MOL1        -0.6755
       3    O2      21.581702   20.090043   25.068670 O.co2      1 MOL1        -0.6755
       4    C2      20.155582   18.778812   23.753008 C.2        1 MOL1        -0.1504
       5    H1      19.219508   18.225838   23.779292 H          1 MOL1         0.0814
       6    C3      20.886307   18.830359   22.615920 C.2        1 MOL1        -0.1394
       7    H2      21.823531   19.385181   22.579847 H          1 MOL1         0.0817
       8    C4      20.484147   18.146038   21.325839 C.3        1 MOL1        -0.1849
       9    H3      19.721522   17.378797   21.516847 H          1 MOL1         0.0736
      10    H4      21.353917   17.616226   20.914974 H          1 MOL1         0.0736
      11    C5      19.961932   19.145273   20.270383 C.3        1 MOL1        -0.1866
      12    H5      20.723193   19.914652   20.080657 H          1 MOL1         0.0738
      13    H6      19.807874   18.615286   19.320342 H          1 MOL1         0.0738
      14    C6      18.637474   19.816625   20.692200 C.3        1 MOL1        -0.2879
      15    H7      18.767871   20.410477   21.606197 H          1 MOL1         0.0750
      16    H8      18.276955   20.488937   19.902967 H          1 MOL1         0.0750
      17    H9      17.859079   19.065632   20.879827 H          1 MOL1         0.0750
@<TRIPOS>BOND
    1     1     2    1
    2     1     3    2
    3     1     4    1
    4     4     5    1
    5     4     6    2
    6     6     7    1
    7     6     8    1
    8     8     9    1
    9     8    10    1
   10     8    11    1
   11    11    12    1
   12    11    13    1
   13    11    14    1
   14    14    15    1
   15    14    16    1
   16    14    17    1
@<TRIPOS>SUBSTRUCTURE
       1 MOL1            1 RESIDUE      1      MOL     
@<SCITEGIC>MOL_PROPERTY
VConf Rank
SciTegic.value.IntegerValue
68

@<SCITEGIC>MOL_PROPERTY
Conf_Id
SciTegic.value.IntegerValue
45

@<SCITEGIC>MOL_PROPERTY
Delta U+W
SciTegic.value.DoubleValue
0.562

@<SCITEGIC>MOL_PROPERTY
U+W
SciTegic.value.DoubleValue
-52.846

@<SCITEGIC>MOL_PROPERTY
Grad RMS
SciTegic.value.DoubleValue
0.000000

@<SCITEGIC>MOL_PROPERTY
U
SciTegic.value.DoubleValue
10.243

@<SCITEGIC>MOL_PROPERTY
W
SciTegic.value.DoubleValue
-63.089

@<SCITEGIC>MOL_PROPERTY
W(PB)
SciTegic.value.DoubleValue
-65.116

@<SCITEGIC>MOL_PROPERTY
W(SA)
SciTegic.value.DoubleValue
2.026

@<SCITEGIC>MOL_PROPERTY
Valence
SciTegic.value.DoubleValue
2.822

@<SCITEGIC>MOL_PROPERTY
Coulomb
SciTegic.value.DoubleValue
6.637

@<SCITEGIC>MOL_PROPERTY
VdW
SciTegic.value.DoubleValue
0.785

@<SCITEGIC>MOL_PROPERTY
VdW6
SciTegic.value.DoubleValue
-5.216

@<SCITEGIC>MOL_PROPERTY
VdW12
SciTegic.value.DoubleValue
6.001

@<SCITEGIC>MOL_PROPERTY
Bond
SciTegic.value.DoubleValue
0.080

@<SCITEGIC>MOL_PROPERTY
Angle
SciTegic.value.DoubleValue
2.678

@<SCITEGIC>MOL_PROPERTY
Pdih
SciTegic.value.DoubleValue
0.064

@<SCITEGIC>MOL_PROPERTY
Idih
SciTegic.value.DoubleValue
0.000

@<SCITEGIC>MOL_PROPERTY
Tether
SciTegic.value.DoubleValue
0.000

@<TRIPOS>MOLECULE
guest-s19_confgen4.mol2 : confsearch ligand conformer 69
          17          16           1
SMALL
USER_CHARGES
 
@<TRIPOS>ATOM
       1    C1      23.134993   20.216817   22.460165 C.2        1 MOL1         0.6173
       2    O1      23.761464   20.269885   23.500561 O.co2      1 MOL1        -0.6755
       3    O2      23.491392   20.784492   21.444725 O.co2      1 MOL1        -0.6755
       4    C2      21.881418   19.415161   22.452583 C.2        1 MOL1        -0.1504
       5    H1      21.620221   18.933789   23.392246 H          1 MOL1         0.0814
       6    C3      21.086126   19.269995   21.368368 C.2        1 MOL1        -0.1394
       7    H2      21.337129   19.749848   20.422582 H          1 MOL1         0.0817
       8    C4      19.811605   18.454622   21.369683 C.3        1 MOL1        -0.1849
       9    H3      19.946376   17.548011   21.975241 H          1 MOL1         0.0736
      10    H4      19.589376   18.117845   20.348124 H          1 MOL1         0.0736
      11    C5      18.622185   19.272026   21.913877 C.3        1 MOL1        -0.1866
      12    H5      18.841203   19.606217   22.937550 H          1 MOL1         0.0738
      13    H6      18.488118   20.177189   21.305375 H          1 MOL1         0.0738
      14    C6      17.317077   18.450929   21.909692 C.3        1 MOL1        -0.2879
      15    H7      17.057508   18.130700   20.892092 H          1 MOL1         0.0750
      16    H8      17.414601   17.555021   22.536807 H          1 MOL1         0.0750
      17    H9      16.482959   19.048490   22.299948 H          1 MOL1         0.0750
@<TRIPOS>BOND
    1     1     2    1
    2     1     3    2
    3     1     4    1
    4     4     5    1
    5     4     6    2
    6     6     7    1
    7     6     8    1
    8     8     9    1
    9     8    10    1
   10     8    11    1
   11    11    12    1
   12    11    13    1
   13    11    14    1
   14    14    15    1
   15    14    16    1
   16    14    17    1
@<TRIPOS>SUBSTRUCTURE
       1 MOL1            1 RESIDUE      1      MOL     
@<SCITEGIC>MOL_PROPERTY
VConf Rank
SciTegic.value.IntegerValue
69

@<SCITEGIC>MOL_PROPERTY
Conf_Id
SciTegic.value.IntegerValue
36

@<SCITEGIC>MOL_PROPERTY
Delta U+W
SciTegic.value.DoubleValue
0.000

@<SCITEGIC>MOL_PROPERTY
U+W
SciTegic.value.DoubleValue
-53.409

@<SCITEGIC>MOL_PROPERTY
Grad RMS
SciTegic.value.DoubleValue
0.000000

@<SCITEGIC>MOL_PROPERTY
U
SciTegic.value.DoubleValue
9.048

@<SCITEGIC>MOL_PROPERTY
W
SciTegic.value.DoubleValue
-62.457

@<SCITEGIC>MOL_PROPERTY
W(PB)
SciTegic.value.DoubleValue
-64.540

@<SCITEGIC>MOL_PROPERTY
W(SA)
SciTegic.value.DoubleValue
2.084

@<SCITEGIC>MOL_PROPERTY
Valence
SciTegic.value.DoubleValue
2.652

@<SCITEGIC>MOL_PROPERTY
Coulomb
SciTegic.value.DoubleValue
5.578

@<SCITEGIC>MOL_PROPERTY
VdW
SciTegic.value.DoubleValue
0.818

@<SCITEGIC>MOL_PROPERTY
VdW6
SciTegic.value.DoubleValue
-4.534

@<SCITEGIC>MOL_PROPERTY
VdW12
SciTegic.value.DoubleValue
5.352

@<SCITEGIC>MOL_PROPERTY
Bond
SciTegic.value.DoubleValue
0.063

@<SCITEGIC>MOL_PROPERTY
Angle
SciTegic.value.DoubleValue
2.579

@<SCITEGIC>MOL_PROPERTY
Pdih
SciTegic.value.DoubleValue
0.010

@<SCITEGIC>MOL_PROPERTY
Idih
SciTegic.value.DoubleValue
0.000

@<SCITEGIC>MOL_PROPERTY
Tether
SciTegic.value.DoubleValue
0.000

@<TRIPOS>MOLECULE
guest-s19_confgen4.mol2 : confsearch ligand conformer 70
          17          16           1
SMALL
USER_CHARGES
 
@<TRIPOS>ATOM
       1    C1      20.249908   21.860382   23.828065 C.2        1 MOL1         0.6173
       2    O1      19.154680   22.038061   24.327364 O.co2      1 MOL1        -0.6755
       3    O2      21.141347   22.685109   23.881598 O.co2      1 MOL1        -0.6755
       4    C2      20.535062   20.584964   23.116616 C.2        1 MOL1        -0.1504
       5    H1      21.532610   20.490176   22.693740 H          1 MOL1         0.0814
       6    C3      19.638496   19.581779   22.979232 C.2        1 MOL1        -0.1394
       7    H2      18.635559   19.667137   23.397089 H          1 MOL1         0.0817
       8    C4      19.935970   18.288497   22.252479 C.3        1 MOL1        -0.1849
       9    H3      19.279411   17.493940   22.631949 H          1 MOL1         0.0736
      10    H4      20.966091   17.968876   22.461042 H          1 MOL1         0.0736
      11    C5      19.736083   18.440296   20.730631 C.3        1 MOL1        -0.1866
      12    H5      18.704496   18.757919   20.524446 H          1 MOL1         0.0738
      13    H6      20.395310   19.232171   20.348644 H          1 MOL1         0.0738
      14    C6      20.028416   17.123590   19.983403 C.3        1 MOL1        -0.2879
      15    H7      19.360498   16.321640   20.324272 H          1 MOL1         0.0750
      16    H8      19.880948   17.251046   18.903062 H          1 MOL1         0.0750
      17    H9      21.064608   16.800150   20.148111 H          1 MOL1         0.0750
@<TRIPOS>BOND
    1     1     2    1
    2     1     3    2
    3     1     4    1
    4     4     5    1
    5     4     6    2
    6     6     7    1
    7     6     8    1
    8     8     9    1
    9     8    10    1
   10     8    11    1
   11    11    12    1
   12    11    13    1
   13    11    14    1
   14    14    15    1
   15    14    16    1
   16    14    17    1
@<TRIPOS>SUBSTRUCTURE
       1 MOL1            1 RESIDUE      1      MOL     
@<SCITEGIC>MOL_PROPERTY
VConf Rank
SciTegic.value.IntegerValue
70

@<SCITEGIC>MOL_PROPERTY
Conf_Id
SciTegic.value.IntegerValue
1

@<SCITEGIC>MOL_PROPERTY
Delta U+W
SciTegic.value.DoubleValue
0.030

@<SCITEGIC>MOL_PROPERTY
U+W
SciTegic.value.DoubleValue
-53.378

@<SCITEGIC>MOL_PROPERTY
Grad RMS
SciTegic.value.DoubleValue
0.000000

@<SCITEGIC>MOL_PROPERTY
U
SciTegic.value.DoubleValue
9.048

@<SCITEGIC>MOL_PROPERTY
W
SciTegic.value.DoubleValue
-62.426

@<SCITEGIC>MOL_PROPERTY
W(PB)
SciTegic.value.DoubleValue
-64.506

@<SCITEGIC>MOL_PROPERTY
W(SA)
SciTegic.value.DoubleValue
2.080

@<SCITEGIC>MOL_PROPERTY
Valence
SciTegic.value.DoubleValue
2.652

@<SCITEGIC>MOL_PROPERTY
Coulomb
SciTegic.value.DoubleValue
5.578

@<SCITEGIC>MOL_PROPERTY
VdW
SciTegic.value.DoubleValue
0.818

@<SCITEGIC>MOL_PROPERTY
VdW6
SciTegic.value.DoubleValue
-4.535

@<SCITEGIC>MOL_PROPERTY
VdW12
SciTegic.value.DoubleValue
5.352

@<SCITEGIC>MOL_PROPERTY
Bond
SciTegic.value.DoubleValue
0.063

@<SCITEGIC>MOL_PROPERTY
Angle
SciTegic.value.DoubleValue
2.579

@<SCITEGIC>MOL_PROPERTY
Pdih
SciTegic.value.DoubleValue
0.010

@<SCITEGIC>MOL_PROPERTY
Idih
SciTegic.value.DoubleValue
0.000

@<SCITEGIC>MOL_PROPERTY
Tether
SciTegic.value.DoubleValue
0.000

@<TRIPOS>MOLECULE
guest-s19_confgen4.mol2 : confsearch ligand conformer 71
          17          16           1
SMALL
USER_CHARGES
 
@<TRIPOS>ATOM
       1    C1      17.944594   20.501326   23.841781 C.2        1 MOL1         0.6173
       2    O1      17.240432   19.557708   24.148673 O.co2      1 MOL1        -0.6755
       3    O2      17.914811   21.565339   24.428977 O.co2      1 MOL1        -0.6755
       4    C2      18.889128   20.373069   22.699198 C.2        1 MOL1        -0.1504
       5    H1      19.488067   21.253291   22.477294 H          1 MOL1         0.0814
       6    C3      19.028306   19.249889   21.958872 C.2        1 MOL1        -0.1394
       7    H2      18.435696   18.361150   22.174637 H          1 MOL1         0.0817
       8    C4      19.994671   19.125480   20.799702 C.3        1 MOL1        -0.1849
       9    H3      19.987498   20.054018   20.212936 H          1 MOL1         0.0736
      10    H4      19.660461   18.330753   20.119256 H          1 MOL1         0.0736
      11    C5      21.437599   18.832697   21.266389 C.3        1 MOL1        -0.1866
      12    H5      22.108503   18.858094   20.396678 H          1 MOL1         0.0738
      13    H6      21.775285   19.626950   21.946504 H          1 MOL1         0.0738
      14    C6      21.567004   17.461549   21.963469 C.3        1 MOL1        -0.2879
      15    H7      21.246416   16.650335   21.296911 H          1 MOL1         0.0750
      16    H8      22.609147   17.271849   22.251322 H          1 MOL1         0.0750
      17    H9      20.953938   17.420301   22.873233 H          1 MOL1         0.0750
@<TRIPOS>BOND
    1     1     2    1
    2     1     3    2
    3     1     4    1
    4     4     5    1
    5     4     6    2
    6     6     7    1
    7     6     8    1
    8     8     9    1
    9     8    10    1
   10     8    11    1
   11    11    12    1
   12    11    13    1
   13    11    14    1
   14    14    15    1
   15    14    16    1
   16    14    17    1
@<TRIPOS>SUBSTRUCTURE
       1 MOL1            1 RESIDUE      1      MOL     
@<SCITEGIC>MOL_PROPERTY
VConf Rank
SciTegic.value.IntegerValue
71

@<SCITEGIC>MOL_PROPERTY
Conf_Id
SciTegic.value.IntegerValue
3

@<SCITEGIC>MOL_PROPERTY
Delta U+W
SciTegic.value.DoubleValue
0.531

@<SCITEGIC>MOL_PROPERTY
U+W
SciTegic.value.DoubleValue
-52.878

@<SCITEGIC>MOL_PROPERTY
Grad RMS
SciTegic.value.DoubleValue
0.000000

@<SCITEGIC>MOL_PROPERTY
U
SciTegic.value.DoubleValue
10.067

@<SCITEGIC>MOL_PROPERTY
W
SciTegic.value.DoubleValue
-62.945

@<SCITEGIC>MOL_PROPERTY
W(PB)
SciTegic.value.DoubleValue
-64.982

@<SCITEGIC>MOL_PROPERTY
W(SA)
SciTegic.value.DoubleValue
2.037

@<SCITEGIC>MOL_PROPERTY
Valence
SciTegic.value.DoubleValue
2.779

@<SCITEGIC>MOL_PROPERTY
Coulomb
SciTegic.value.DoubleValue
6.474

@<SCITEGIC>MOL_PROPERTY
VdW
SciTegic.value.DoubleValue
0.815

@<SCITEGIC>MOL_PROPERTY
VdW6
SciTegic.value.DoubleValue
-5.088

@<SCITEGIC>MOL_PROPERTY
VdW12
SciTegic.value.DoubleValue
5.902

@<SCITEGIC>MOL_PROPERTY
Bond
SciTegic.value.DoubleValue
0.078

@<SCITEGIC>MOL_PROPERTY
Angle
SciTegic.value.DoubleValue
2.651

@<SCITEGIC>MOL_PROPERTY
Pdih
SciTegic.value.DoubleValue
0.050

@<SCITEGIC>MOL_PROPERTY
Idih
SciTegic.value.DoubleValue
0.000

@<SCITEGIC>MOL_PROPERTY
Tether
SciTegic.value.DoubleValue
0.000

@<TRIPOS>MOLECULE
guest-s19_confgen4.mol2 : confsearch ligand conformer 72
          17          16           1
SMALL
USER_CHARGES
 
@<TRIPOS>ATOM
       1    C1      22.977080   18.855179   21.835682 C.2        1 MOL1         0.6173
       2    O1      23.791516   18.475802   22.654553 O.co2      1 MOL1        -0.6755
       3    O2      23.274851   19.545632   20.879097 O.co2      1 MOL1        -0.6755
       4    C2      21.561302   18.441400   22.031716 C.2        1 MOL1        -0.1504
       5    H1      21.364376   17.825330   22.906007 H          1 MOL1         0.0814
       6    C3      20.552053   18.791701   21.202083 C.2        1 MOL1        -0.1394
       7    H2      20.739979   19.411759   20.325881 H          1 MOL1         0.0817
       8    C4      19.111230   18.371165   21.405836 C.3        1 MOL1        -0.1849
       9    H3      19.050720   17.524475   22.103113 H          1 MOL1         0.0736
      10    H4      18.704853   18.010327   20.451550 H          1 MOL1         0.0736
      11    C5      18.229324   19.530332   21.919393 C.3        1 MOL1        -0.1866
      12    H5      18.291358   20.378724   21.223805 H          1 MOL1         0.0738
      13    H6      17.179513   19.206217   21.926136 H          1 MOL1         0.0738
      14    C6      18.622307   19.991661   23.339100 C.3        1 MOL1        -0.2879
      15    H7      19.647414   20.383872   23.358632 H          1 MOL1         0.0750
      16    H8      17.951003   20.787840   23.685967 H          1 MOL1         0.0750
      17    H9      18.560000   19.160304   24.053282 H          1 MOL1         0.0750
@<TRIPOS>BOND
    1     1     2    1
    2     1     3    2
    3     1     4    1
    4     4     5    1
    5     4     6    2
    6     6     7    1
    7     6     8    1
    8     8     9    1
    9     8    10    1
   10     8    11    1
   11    11    12    1
   12    11    13    1
   13    11    14    1
   14    14    15    1
   15    14    16    1
   16    14    17    1
@<TRIPOS>SUBSTRUCTURE
       1 MOL1            1 RESIDUE      1      MOL     
@<SCITEGIC>MOL_PROPERTY
VConf Rank
SciTegic.value.IntegerValue
72

@<SCITEGIC>MOL_PROPERTY
Conf_Id
SciTegic.value.IntegerValue
45

@<SCITEGIC>MOL_PROPERTY
Delta U+W
SciTegic.value.DoubleValue
0.562

@<SCITEGIC>MOL_PROPERTY
U+W
SciTegic.value.DoubleValue
-52.846

@<SCITEGIC>MOL_PROPERTY
Grad RMS
SciTegic.value.DoubleValue
0.000000

@<SCITEGIC>MOL_PROPERTY
U
SciTegic.value.DoubleValue
10.243

@<SCITEGIC>MOL_PROPERTY
W
SciTegic.value.DoubleValue
-63.089

@<SCITEGIC>MOL_PROPERTY
W(PB)
SciTegic.value.DoubleValue
-65.116

@<SCITEGIC>MOL_PROPERTY
W(SA)
SciTegic.value.DoubleValue
2.026

@<SCITEGIC>MOL_PROPERTY
Valence
SciTegic.value.DoubleValue
2.822

@<SCITEGIC>MOL_PROPERTY
Coulomb
SciTegic.value.DoubleValue
6.637

@<SCITEGIC>MOL_PROPERTY
VdW
SciTegic.value.DoubleValue
0.785

@<SCITEGIC>MOL_PROPERTY
VdW6
SciTegic.value.DoubleValue
-5.216

@<SCITEGIC>MOL_PROPERTY
VdW12
SciTegic.value.DoubleValue
6.001

@<SCITEGIC>MOL_PROPERTY
Bond
SciTegic.value.DoubleValue
0.080

@<SCITEGIC>MOL_PROPERTY
Angle
SciTegic.value.DoubleValue
2.678

@<SCITEGIC>MOL_PROPERTY
Pdih
SciTegic.value.DoubleValue
0.064

@<SCITEGIC>MOL_PROPERTY
Idih
SciTegic.value.DoubleValue
0.000

@<SCITEGIC>MOL_PROPERTY
Tether
SciTegic.value.DoubleValue
0.000

@<TRIPOS>MOLECULE
guest-s19_confgen4.mol2 : confsearch ligand conformer 73
          17          16           1
SMALL
USER_CHARGES
 
@<TRIPOS>ATOM
       1    C1      18.371084   19.775991   19.030192 C.2        1 MOL1         0.6173
       2    O1      18.763725   19.668917   17.884735 O.co2      1 MOL1        -0.6755
       3    O2      17.354126   20.374536   19.326730 O.co2      1 MOL1        -0.6755
       4    C2      19.186095   19.137391   20.098887 C.2        1 MOL1        -0.1504
       5    H1      20.082239   18.618562   19.766245 H          1 MOL1         0.0814
       6    C3      18.870158   19.177558   21.413290 C.2        1 MOL1        -0.1394
       7    H2      17.975909   19.696623   21.757766 H          1 MOL1         0.0817
       8    C4      19.705701   18.527252   22.494126 C.3        1 MOL1        -0.1849
       9    H3      20.099189   17.565714   22.137166 H          1 MOL1         0.0736
      10    H4      19.072697   18.302560   23.363152 H          1 MOL1         0.0736
      11    C5      20.872296   19.438584   22.927189 C.3        1 MOL1        -0.1866
      12    H5      21.509032   19.660944   22.059615 H          1 MOL1         0.0738
      13    H6      20.476129   20.398837   23.285706 H          1 MOL1         0.0738
      14    C6      21.723405   18.786807   24.035488 C.3        1 MOL1        -0.2879
      15    H7      21.117142   18.582753   24.927811 H          1 MOL1         0.0750
      16    H8      22.157153   17.838715   23.691367 H          1 MOL1         0.0750
      17    H9      22.547673   19.449291   24.330153 H          1 MOL1         0.0750
@<TRIPOS>BOND
    1     1     2    1
    2     1     3    2
    3     1     4    1
    4     4     5    1
    5     4     6    2
    6     6     7    1
    7     6     8    1
    8     8     9    1
    9     8    10    1
   10     8    11    1
   11    11    12    1
   12    11    13    1
   13    11    14    1
   14    14    15    1
   15    14    16    1
   16    14    17    1
@<TRIPOS>SUBSTRUCTURE
       1 MOL1            1 RESIDUE      1      MOL     
@<SCITEGIC>MOL_PROPERTY
VConf Rank
SciTegic.value.IntegerValue
73

@<SCITEGIC>MOL_PROPERTY
Conf_Id
SciTegic.value.IntegerValue
36

@<SCITEGIC>MOL_PROPERTY
Delta U+W
SciTegic.value.DoubleValue
0.000

@<SCITEGIC>MOL_PROPERTY
U+W
SciTegic.value.DoubleValue
-53.409

@<SCITEGIC>MOL_PROPERTY
Grad RMS
SciTegic.value.DoubleValue
0.000000

@<SCITEGIC>MOL_PROPERTY
U
SciTegic.value.DoubleValue
9.048

@<SCITEGIC>MOL_PROPERTY
W
SciTegic.value.DoubleValue
-62.457

@<SCITEGIC>MOL_PROPERTY
W(PB)
SciTegic.value.DoubleValue
-64.540

@<SCITEGIC>MOL_PROPERTY
W(SA)
SciTegic.value.DoubleValue
2.084

@<SCITEGIC>MOL_PROPERTY
Valence
SciTegic.value.DoubleValue
2.652

@<SCITEGIC>MOL_PROPERTY
Coulomb
SciTegic.value.DoubleValue
5.578

@<SCITEGIC>MOL_PROPERTY
VdW
SciTegic.value.DoubleValue
0.818

@<SCITEGIC>MOL_PROPERTY
VdW6
SciTegic.value.DoubleValue
-4.534

@<SCITEGIC>MOL_PROPERTY
VdW12
SciTegic.value.DoubleValue
5.352

@<SCITEGIC>MOL_PROPERTY
Bond
SciTegic.value.DoubleValue
0.063

@<SCITEGIC>MOL_PROPERTY
Angle
SciTegic.value.DoubleValue
2.579

@<SCITEGIC>MOL_PROPERTY
Pdih
SciTegic.value.DoubleValue
0.010

@<SCITEGIC>MOL_PROPERTY
Idih
SciTegic.value.DoubleValue
0.000

@<SCITEGIC>MOL_PROPERTY
Tether
SciTegic.value.DoubleValue
0.000

@<TRIPOS>MOLECULE
guest-s19_confgen4.mol2 : confsearch ligand conformer 74
          17          16           1
SMALL
USER_CHARGES
 
@<TRIPOS>ATOM
       1    C1      22.383422   21.423963   22.489555 C.2        1 MOL1         0.6173
       2    O1      23.391069   20.827973   22.820972 O.co2      1 MOL1        -0.6755
       3    O2      22.268683   22.630390   22.584820 O.co2      1 MOL1        -0.6755
       4    C2      21.227964   20.664759   21.939384 C.2        1 MOL1        -0.1504
       5    H1      20.359041   21.257499   21.662724 H          1 MOL1         0.0814
       6    C3      21.216063   19.321940   21.778822 C.2        1 MOL1        -0.1394
       7    H2      22.080407   18.718169   22.054764 H          1 MOL1         0.0817
       8    C4      20.036022   18.557274   21.220227 C.3        1 MOL1        -0.1849
       9    H3      20.384672   17.613808   20.778974 H          1 MOL1         0.0736
      10    H4      19.569114   19.129034   20.406658 H          1 MOL1         0.0736
      11    C5      18.990266   18.259967   22.314310 C.3        1 MOL1        -0.1866
      12    H5      19.459079   17.686206   23.125838 H          1 MOL1         0.0738
      13    H6      18.637340   19.203172   22.754046 H          1 MOL1         0.0738
      14    C6      17.788383   17.472574   21.754832 C.3        1 MOL1        -0.2879
      15    H7      18.109697   16.509509   21.336868 H          1 MOL1         0.0750
      16    H8      17.055780   17.270568   22.547055 H          1 MOL1         0.0750
      17    H9      17.282489   18.038927   20.961894 H          1 MOL1         0.0750
@<TRIPOS>BOND
    1     1     2    1
    2     1     3    2
    3     1     4    1
    4     4     5    1
    5     4     6    2
    6     6     7    1
    7     6     8    1
    8     8     9    1
    9     8    10    1
   10     8    11    1
   11    11    12    1
   12    11    13    1
   13    11    14    1
   14    14    15    1
   15    14    16    1
   16    14    17    1
@<TRIPOS>SUBSTRUCTURE
       1 MOL1            1 RESIDUE      1      MOL     
@<SCITEGIC>MOL_PROPERTY
VConf Rank
SciTegic.value.IntegerValue
74

@<SCITEGIC>MOL_PROPERTY
Conf_Id
SciTegic.value.IntegerValue
1

@<SCITEGIC>MOL_PROPERTY
Delta U+W
SciTegic.value.DoubleValue
0.030

@<SCITEGIC>MOL_PROPERTY
U+W
SciTegic.value.DoubleValue
-53.378

@<SCITEGIC>MOL_PROPERTY
Grad RMS
SciTegic.value.DoubleValue
0.000000

@<SCITEGIC>MOL_PROPERTY
U
SciTegic.value.DoubleValue
9.048

@<SCITEGIC>MOL_PROPERTY
W
SciTegic.value.DoubleValue
-62.426

@<SCITEGIC>MOL_PROPERTY
W(PB)
SciTegic.value.DoubleValue
-64.506

@<SCITEGIC>MOL_PROPERTY
W(SA)
SciTegic.value.DoubleValue
2.080

@<SCITEGIC>MOL_PROPERTY
Valence
SciTegic.value.DoubleValue
2.652

@<SCITEGIC>MOL_PROPERTY
Coulomb
SciTegic.value.DoubleValue
5.578

@<SCITEGIC>MOL_PROPERTY
VdW
SciTegic.value.DoubleValue
0.818

@<SCITEGIC>MOL_PROPERTY
VdW6
SciTegic.value.DoubleValue
-4.535

@<SCITEGIC>MOL_PROPERTY
VdW12
SciTegic.value.DoubleValue
5.352

@<SCITEGIC>MOL_PROPERTY
Bond
SciTegic.value.DoubleValue
0.063

@<SCITEGIC>MOL_PROPERTY
Angle
SciTegic.value.DoubleValue
2.579

@<SCITEGIC>MOL_PROPERTY
Pdih
SciTegic.value.DoubleValue
0.010

@<SCITEGIC>MOL_PROPERTY
Idih
SciTegic.value.DoubleValue
0.000

@<SCITEGIC>MOL_PROPERTY
Tether
SciTegic.value.DoubleValue
0.000

@<TRIPOS>MOLECULE
guest-s19_confgen4.mol2 : confsearch ligand conformer 75
          17          16           1
SMALL
USER_CHARGES
 
@<TRIPOS>ATOM
       1    C1      18.724874   17.133494   24.053369 C.2        1 MOL1         0.6173
       2    O1      18.562151   16.162676   23.338194 O.co2      1 MOL1        -0.6755
       3    O2      18.664428   17.077138   25.266209 O.co2      1 MOL1        -0.6755
       4    C2      19.008026   18.459366   23.440196 C.2        1 MOL1        -0.1504
       5    H1      19.142082   19.284962   24.135308 H          1 MOL1         0.0814
       6    C3      19.104480   18.668222   22.107506 C.2        1 MOL1        -0.1394
       7    H2      18.975289   17.847526   21.402265 H          1 MOL1         0.0817
       8    C4      19.396809   20.019974   21.490802 C.3        1 MOL1        -0.1849
       9    H3      18.840703   20.798803   22.029968 H          1 MOL1         0.0736
      10    H4      19.031547   20.044259   20.455289 H          1 MOL1         0.0736
      11    C5      20.902346   20.363938   21.515475 C.3        1 MOL1        -0.1866
      12    H5      21.041757   21.392402   21.154949 H          1 MOL1         0.0738
      13    H6      21.270481   20.341650   22.550564 H          1 MOL1         0.0738
      14    C6      21.742292   19.405743   20.644231 C.3        1 MOL1        -0.2879
      15    H7      21.399756   19.421104   19.601362 H          1 MOL1         0.0750
      16    H8      22.800020   19.698886   20.657919 H          1 MOL1         0.0750
      17    H9      21.674518   18.373654   21.012226 H          1 MOL1         0.0750
@<TRIPOS>BOND
    1     1     2    1
    2     1     3    2
    3     1     4    1
    4     4     5    1
    5     4     6    2
    6     6     7    1
    7     6     8    1
    8     8     9    1
    9     8    10    1
   10     8    11    1
   11    11    12    1
   12    11    13    1
   13    11    14    1
   14    14    15    1
   15    14    16    1
   16    14    17    1
@<TRIPOS>SUBSTRUCTURE
       1 MOL1            1 RESIDUE      1      MOL     
@<SCITEGIC>MOL_PROPERTY
VConf Rank
SciTegic.value.IntegerValue
75

@<SCITEGIC>MOL_PROPERTY
Conf_Id
SciTegic.value.IntegerValue
3

@<SCITEGIC>MOL_PROPERTY
Delta U+W
SciTegic.value.DoubleValue
0.531

@<SCITEGIC>MOL_PROPERTY
U+W
SciTegic.value.DoubleValue
-52.878

@<SCITEGIC>MOL_PROPERTY
Grad RMS
SciTegic.value.DoubleValue
0.000000

@<SCITEGIC>MOL_PROPERTY
U
SciTegic.value.DoubleValue
10.067

@<SCITEGIC>MOL_PROPERTY
W
SciTegic.value.DoubleValue
-62.945

@<SCITEGIC>MOL_PROPERTY
W(PB)
SciTegic.value.DoubleValue
-64.982

@<SCITEGIC>MOL_PROPERTY
W(SA)
SciTegic.value.DoubleValue
2.037

@<SCITEGIC>MOL_PROPERTY
Valence
SciTegic.value.DoubleValue
2.779

@<SCITEGIC>MOL_PROPERTY
Coulomb
SciTegic.value.DoubleValue
6.474

@<SCITEGIC>MOL_PROPERTY
VdW
SciTegic.value.DoubleValue
0.815

@<SCITEGIC>MOL_PROPERTY
VdW6
SciTegic.value.DoubleValue
-5.088

@<SCITEGIC>MOL_PROPERTY
VdW12
SciTegic.value.DoubleValue
5.902

@<SCITEGIC>MOL_PROPERTY
Bond
SciTegic.value.DoubleValue
0.078

@<SCITEGIC>MOL_PROPERTY
Angle
SciTegic.value.DoubleValue
2.651

@<SCITEGIC>MOL_PROPERTY
Pdih
SciTegic.value.DoubleValue
0.050

@<SCITEGIC>MOL_PROPERTY
Idih
SciTegic.value.DoubleValue
0.000

@<SCITEGIC>MOL_PROPERTY
Tether
SciTegic.value.DoubleValue
0.000

@<TRIPOS>MOLECULE
guest-s19_confgen4.mol2 : confsearch ligand conformer 76
          17          16           1
SMALL
USER_CHARGES
 
@<TRIPOS>ATOM
       1    C1      21.434597   16.692400   20.981383 C.2        1 MOL1         0.6173
       2    O1      22.618890   16.542386   20.751764 O.co2      1 MOL1        -0.6755
       3    O2      20.570563   16.005077   20.470032 O.co2      1 MOL1        -0.6755
       4    C2      21.050223   17.767842   21.935193 C.2        1 MOL1        -0.1504
       5    H1      21.871163   18.344110   22.355524 H          1 MOL1         0.0814
       6    C3      19.772711   18.047468   22.280676 C.2        1 MOL1        -0.1394
       7    H2      18.943981   17.477421   21.861428 H          1 MOL1         0.0817
       8    C4      19.384379   19.144799   23.249902 C.3        1 MOL1        -0.1849
       9    H3      20.251563   19.457288   23.847464 H          1 MOL1         0.0736
      10    H4      18.648841   18.749292   23.963041 H          1 MOL1         0.0736
      11    C5      18.778271   20.371708   22.534013 C.3        1 MOL1        -0.1866
      12    H5      17.912307   20.059558   21.933907 H          1 MOL1         0.0738
      13    H6      18.400174   21.075980   23.287832 H          1 MOL1         0.0738
      14    C6      19.800026   21.098996   21.634069 C.3        1 MOL1        -0.2879
      15    H7      20.153417   20.444418   20.826792 H          1 MOL1         0.0750
      16    H8      19.346205   21.985973   21.173435 H          1 MOL1         0.0750
      17    H9      20.671567   21.427006   22.215376 H          1 MOL1         0.0750
@<TRIPOS>BOND
    1     1     2    1
    2     1     3    2
    3     1     4    1
    4     4     5    1
    5     4     6    2
    6     6     7    1
    7     6     8    1
    8     8     9    1
    9     8    10    1
   10     8    11    1
   11    11    12    1
   12    11    13    1
   13    11    14    1
   14    14    15    1
   15    14    16    1
   16    14    17    1
@<TRIPOS>SUBSTRUCTURE
       1 MOL1            1 RESIDUE      1      MOL     
@<SCITEGIC>MOL_PROPERTY
VConf Rank
SciTegic.value.IntegerValue
76

@<SCITEGIC>MOL_PROPERTY
Conf_Id
SciTegic.value.IntegerValue
45

@<SCITEGIC>MOL_PROPERTY
Delta U+W
SciTegic.value.DoubleValue
0.562

@<SCITEGIC>MOL_PROPERTY
U+W
SciTegic.value.DoubleValue
-52.846

@<SCITEGIC>MOL_PROPERTY
Grad RMS
SciTegic.value.DoubleValue
0.000000

@<SCITEGIC>MOL_PROPERTY
U
SciTegic.value.DoubleValue
10.243

@<SCITEGIC>MOL_PROPERTY
W
SciTegic.value.DoubleValue
-63.089

@<SCITEGIC>MOL_PROPERTY
W(PB)
SciTegic.value.DoubleValue
-65.116

@<SCITEGIC>MOL_PROPERTY
W(SA)
SciTegic.value.DoubleValue
2.026

@<SCITEGIC>MOL_PROPERTY
Valence
SciTegic.value.DoubleValue
2.822

@<SCITEGIC>MOL_PROPERTY
Coulomb
SciTegic.value.DoubleValue
6.637

@<SCITEGIC>MOL_PROPERTY
VdW
SciTegic.value.DoubleValue
0.785

@<SCITEGIC>MOL_PROPERTY
VdW6
SciTegic.value.DoubleValue
-5.216

@<SCITEGIC>MOL_PROPERTY
VdW12
SciTegic.value.DoubleValue
6.001

@<SCITEGIC>MOL_PROPERTY
Bond
SciTegic.value.DoubleValue
0.080

@<SCITEGIC>MOL_PROPERTY
Angle
SciTegic.value.DoubleValue
2.678

@<SCITEGIC>MOL_PROPERTY
Pdih
SciTegic.value.DoubleValue
0.064

@<SCITEGIC>MOL_PROPERTY
Idih
SciTegic.value.DoubleValue
0.000

@<SCITEGIC>MOL_PROPERTY
Tether
SciTegic.value.DoubleValue
0.000

@<TRIPOS>MOLECULE
guest-s19_confgen4.mol2 : confsearch ligand conformer 77
          17          16           1
SMALL
USER_CHARGES
 
@<TRIPOS>ATOM
       1    C1      18.246157   21.990561   21.643931 C.2        1 MOL1         0.6173
       2    O1      18.567175   23.119027   21.962077 O.co2      1 MOL1        -0.6755
       3    O2      17.102301   21.682635   21.366135 O.co2      1 MOL1        -0.6755
       4    C2      19.316890   20.958288   21.598048 C.2        1 MOL1        -0.1504
       5    H1      20.316491   21.299481   21.857455 H          1 MOL1         0.0814
       6    C3      19.103690   19.665565   21.262638 C.2        1 MOL1        -0.1394
       7    H2      18.105761   19.312502   21.003298 H          1 MOL1         0.0817
       8    C4      20.197919   18.621473   21.220531 C.3        1 MOL1        -0.1849
       9    H3      21.121885   19.061650   20.821358 H          1 MOL1         0.0736
      10    H4      19.911769   17.816428   20.530308 H          1 MOL1         0.0736
      11    C5      20.465082   18.030759   22.620064 C.3        1 MOL1        -0.1866
      12    H5      20.755612   18.834428   23.310910 H          1 MOL1         0.0738
      13    H6      19.540052   17.589317   23.016318 H          1 MOL1         0.0738
      14    C6      21.572814   16.958768   22.584117 C.3        1 MOL1        -0.2879
      15    H7      21.293442   16.126940   21.924235 H          1 MOL1         0.0750
      16    H8      22.518015   17.382638   22.220296 H          1 MOL1         0.0750
      17    H9      21.748698   16.550578   23.587898 H          1 MOL1         0.0750
@<TRIPOS>BOND
    1     1     2    1
    2     1     3    2
    3     1     4    1
    4     4     5    1
    5     4     6    2
    6     6     7    1
    7     6     8    1
    8     8     9    1
    9     8    10    1
   10     8    11    1
   11    11    12    1
   12    11    13    1
   13    11    14    1
   14    14    15    1
   15    14    16    1
   16    14    17    1
@<TRIPOS>SUBSTRUCTURE
       1 MOL1            1 RESIDUE      1      MOL     
@<SCITEGIC>MOL_PROPERTY
VConf Rank
SciTegic.value.IntegerValue
77

@<SCITEGIC>MOL_PROPERTY
Conf_Id
SciTegic.value.IntegerValue
36

@<SCITEGIC>MOL_PROPERTY
Delta U+W
SciTegic.value.DoubleValue
0.000

@<SCITEGIC>MOL_PROPERTY
U+W
SciTegic.value.DoubleValue
-53.409

@<SCITEGIC>MOL_PROPERTY
Grad RMS
SciTegic.value.DoubleValue
0.000000

@<SCITEGIC>MOL_PROPERTY
U
SciTegic.value.DoubleValue
9.048

@<SCITEGIC>MOL_PROPERTY
W
SciTegic.value.DoubleValue
-62.457

@<SCITEGIC>MOL_PROPERTY
W(PB)
SciTegic.value.DoubleValue
-64.540

@<SCITEGIC>MOL_PROPERTY
W(SA)
SciTegic.value.DoubleValue
2.084

@<SCITEGIC>MOL_PROPERTY
Valence
SciTegic.value.DoubleValue
2.652

@<SCITEGIC>MOL_PROPERTY
Coulomb
SciTegic.value.DoubleValue
5.578

@<SCITEGIC>MOL_PROPERTY
VdW
SciTegic.value.DoubleValue
0.818

@<SCITEGIC>MOL_PROPERTY
VdW6
SciTegic.value.DoubleValue
-4.534

@<SCITEGIC>MOL_PROPERTY
VdW12
SciTegic.value.DoubleValue
5.352

@<SCITEGIC>MOL_PROPERTY
Bond
SciTegic.value.DoubleValue
0.063

@<SCITEGIC>MOL_PROPERTY
Angle
SciTegic.value.DoubleValue
2.579

@<SCITEGIC>MOL_PROPERTY
Pdih
SciTegic.value.DoubleValue
0.010

@<SCITEGIC>MOL_PROPERTY
Idih
SciTegic.value.DoubleValue
0.000

@<SCITEGIC>MOL_PROPERTY
Tether
SciTegic.value.DoubleValue
0.000

@<TRIPOS>MOLECULE
guest-s19_confgen4.mol2 : confsearch ligand conformer 78
          17          16           1
SMALL
USER_CHARGES
 
@<TRIPOS>ATOM
       1    C1      17.461548   19.076400   19.708687 C.2        1 MOL1         0.6173
       2    O1      17.774479   19.824192   18.801342 O.co2      1 MOL1        -0.6755
       3    O2      16.341022   18.621657   19.832523 O.co2      1 MOL1        -0.6755
       4    C2      18.478009   18.685785   20.722782 C.2        1 MOL1        -0.1504
       5    H1      18.133105   18.015297   21.506616 H          1 MOL1         0.0814
       6    C3      19.760108   19.116051   20.709397 C.2        1 MOL1        -0.1394
       7    H2      20.115679   19.789712   19.929958 H          1 MOL1         0.0817
       8    C4      20.787157   18.715448   21.745702 C.3        1 MOL1        -0.1849
       9    H3      21.794720   18.799265   21.316540 H          1 MOL1         0.0736
      10    H4      20.651414   17.660594   22.020772 H          1 MOL1         0.0736
      11    C5      20.687885   19.598976   23.006074 C.3        1 MOL1        -0.1866
      12    H5      20.826127   20.653267   22.728716 H          1 MOL1         0.0738
      13    H6      19.681562   19.513081   23.439083 H          1 MOL1         0.0738
      14    C6      21.737733   19.202962   24.063674 C.3        1 MOL1        -0.2879
      15    H7      22.755616   19.310250   23.666392 H          1 MOL1         0.0750
      16    H8      21.651726   19.841952   24.952169 H          1 MOL1         0.0750
      17    H9      21.601601   18.160845   24.381315 H          1 MOL1         0.0750
@<TRIPOS>BOND
    1     1     2    1
    2     1     3    2
    3     1     4    1
    4     4     5    1
    5     4     6    2
    6     6     7    1
    7     6     8    1
    8     8     9    1
    9     8    10    1
   10     8    11    1
   11    11    12    1
   12    11    13    1
   13    11    14    1
   14    14    15    1
   15    14    16    1
   16    14    17    1
@<TRIPOS>SUBSTRUCTURE
       1 MOL1            1 RESIDUE      1      MOL     
@<SCITEGIC>MOL_PROPERTY
VConf Rank
SciTegic.value.IntegerValue
78

@<SCITEGIC>MOL_PROPERTY
Conf_Id
SciTegic.value.IntegerValue
1

@<SCITEGIC>MOL_PROPERTY
Delta U+W
SciTegic.value.DoubleValue
0.030

@<SCITEGIC>MOL_PROPERTY
U+W
SciTegic.value.DoubleValue
-53.378

@<SCITEGIC>MOL_PROPERTY
Grad RMS
SciTegic.value.DoubleValue
0.000000

@<SCITEGIC>MOL_PROPERTY
U
SciTegic.value.DoubleValue
9.048

@<SCITEGIC>MOL_PROPERTY
W
SciTegic.value.DoubleValue
-62.426

@<SCITEGIC>MOL_PROPERTY
W(PB)
SciTegic.value.DoubleValue
-64.506

@<SCITEGIC>MOL_PROPERTY
W(SA)
SciTegic.value.DoubleValue
2.080

@<SCITEGIC>MOL_PROPERTY
Valence
SciTegic.value.DoubleValue
2.652

@<SCITEGIC>MOL_PROPERTY
Coulomb
SciTegic.value.DoubleValue
5.578

@<SCITEGIC>MOL_PROPERTY
VdW
SciTegic.value.DoubleValue
0.818

@<SCITEGIC>MOL_PROPERTY
VdW6
SciTegic.value.DoubleValue
-4.535

@<SCITEGIC>MOL_PROPERTY
VdW12
SciTegic.value.DoubleValue
5.352

@<SCITEGIC>MOL_PROPERTY
Bond
SciTegic.value.DoubleValue
0.063

@<SCITEGIC>MOL_PROPERTY
Angle
SciTegic.value.DoubleValue
2.579

@<SCITEGIC>MOL_PROPERTY
Pdih
SciTegic.value.DoubleValue
0.010

@<SCITEGIC>MOL_PROPERTY
Idih
SciTegic.value.DoubleValue
0.000

@<SCITEGIC>MOL_PROPERTY
Tether
SciTegic.value.DoubleValue
0.000

@<TRIPOS>MOLECULE
guest-s19_confgen4.mol2 : confsearch ligand conformer 79
          17          16           1
SMALL
USER_CHARGES
 
@<TRIPOS>ATOM
       1    C1      19.710962   20.750323   24.627748 C.2        1 MOL1         0.6173
       2    O1      20.684883   20.370298   25.250243 O.co2      1 MOL1        -0.6755
       3    O2      19.088029   21.751390   24.923772 O.co2      1 MOL1        -0.6755
       4    C2      19.240272   19.970792   23.450942 C.2        1 MOL1        -0.1504
       5    H1      18.364569   20.364501   22.940160 H          1 MOL1         0.0814
       6    C3      19.836483   18.840496   23.008280 C.2        1 MOL1        -0.1394
       7    H2      20.716410   18.439109   23.510491 H          1 MOL1         0.0817
       8    C4      19.353978   18.054475   21.807292 C.3        1 MOL1        -0.1849
       9    H3      18.256334   18.013363   21.810807 H          1 MOL1         0.0736
      10    H4      19.699524   17.014404   21.879012 H          1 MOL1         0.0736
      11    C5      19.833344   18.666983   20.472899 C.3        1 MOL1        -0.1866
      12    H5      19.369095   18.121304   19.639917 H          1 MOL1         0.0738
      13    H6      19.488021   19.707426   20.397682 H          1 MOL1         0.0738
      14    C6      21.368137   18.616020   20.316290 C.3        1 MOL1        -0.2879
      15    H7      21.734840   17.582990   20.375638 H          1 MOL1         0.0750
      16    H8      21.670763   19.027819   19.344824 H          1 MOL1         0.0750
      17    H9      21.865912   19.202107   21.099836 H          1 MOL1         0.0750
@<TRIPOS>BOND
    1     1     2    1
    2     1     3    2
    3     1     4    1
    4     4     5    1
    5     4     6    2
    6     6     7    1
    7     6     8    1
    8     8     9    1
    9     8    10    1
   10     8    11    1
   11    11    12    1
   12    11    13    1
   13    11    14    1
   14    14    15    1
   15    14    16    1
   16    14    17    1
@<TRIPOS>SUBSTRUCTURE
       1 MOL1            1 RESIDUE      1      MOL     
@<SCITEGIC>MOL_PROPERTY
VConf Rank
SciTegic.value.IntegerValue
79

@<SCITEGIC>MOL_PROPERTY
Conf_Id
SciTegic.value.IntegerValue
3

@<SCITEGIC>MOL_PROPERTY
Delta U+W
SciTegic.value.DoubleValue
0.531

@<SCITEGIC>MOL_PROPERTY
U+W
SciTegic.value.DoubleValue
-52.878

@<SCITEGIC>MOL_PROPERTY
Grad RMS
SciTegic.value.DoubleValue
0.000000

@<SCITEGIC>MOL_PROPERTY
U
SciTegic.value.DoubleValue
10.067

@<SCITEGIC>MOL_PROPERTY
W
SciTegic.value.DoubleValue
-62.945

@<SCITEGIC>MOL_PROPERTY
W(PB)
SciTegic.value.DoubleValue
-64.982

@<SCITEGIC>MOL_PROPERTY
W(SA)
SciTegic.value.DoubleValue
2.037

@<SCITEGIC>MOL_PROPERTY
Valence
SciTegic.value.DoubleValue
2.779

@<SCITEGIC>MOL_PROPERTY
Coulomb
SciTegic.value.DoubleValue
6.474

@<SCITEGIC>MOL_PROPERTY
VdW
SciTegic.value.DoubleValue
0.815

@<SCITEGIC>MOL_PROPERTY
VdW6
SciTegic.value.DoubleValue
-5.088

@<SCITEGIC>MOL_PROPERTY
VdW12
SciTegic.value.DoubleValue
5.902

@<SCITEGIC>MOL_PROPERTY
Bond
SciTegic.value.DoubleValue
0.078

@<SCITEGIC>MOL_PROPERTY
Angle
SciTegic.value.DoubleValue
2.651

@<SCITEGIC>MOL_PROPERTY
Pdih
SciTegic.value.DoubleValue
0.050

@<SCITEGIC>MOL_PROPERTY
Idih
SciTegic.value.DoubleValue
0.000

@<SCITEGIC>MOL_PROPERTY
Tether
SciTegic.value.DoubleValue
0.000

@<TRIPOS>MOLECULE
guest-s19_confgen4.mol2 : confsearch ligand conformer 80
          17          16           1
SMALL
USER_CHARGES
 
@<TRIPOS>ATOM
       1    C1      22.145885   19.610691   24.114435 C.2        1 MOL1         0.6173
       2    O1      22.074449   20.144581   25.204223 O.co2      1 MOL1        -0.6755
       3    O2      23.189917   19.503296   23.498876 O.co2      1 MOL1        -0.6755
       4    C2      20.888744   19.070014   23.530194 C.2        1 MOL1        -0.1504
       5    H1      19.992410   19.199324   24.132333 H          1 MOL1         0.0814
       6    C3      20.820364   18.454617   22.327616 C.2        1 MOL1        -0.1394
       7    H2      21.712958   18.324159   21.716245 H          1 MOL1         0.0817
       8    C4      19.538522   17.907668   21.734266 C.3        1 MOL1        -0.1849
       9    H3      18.768976   17.798841   22.510601 H          1 MOL1         0.0736
      10    H4      19.725674   16.897493   21.346283 H          1 MOL1         0.0736
      11    C5      18.998727   18.791979   20.588936 C.3        1 MOL1        -0.1866
      12    H5      19.768871   18.903535   19.813120 H          1 MOL1         0.0738
      13    H6      18.147193   18.284487   20.115079 H          1 MOL1         0.0738
      14    C6      18.546016   20.184776   21.076791 C.3        1 MOL1        -0.2879
      15    H7      19.387267   20.749143   21.499686 H          1 MOL1         0.0750
      16    H8      18.132977   20.769779   20.244905 H          1 MOL1         0.0750
      17    H9      17.769929   20.097337   21.848242 H          1 MOL1         0.0750
@<TRIPOS>BOND
    1     1     2    1
    2     1     3    2
    3     1     4    1
    4     4     5    1
    5     4     6    2
    6     6     7    1
    7     6     8    1
    8     8     9    1
    9     8    10    1
   10     8    11    1
   11    11    12    1
   12    11    13    1
   13    11    14    1
   14    14    15    1
   15    14    16    1
   16    14    17    1
@<TRIPOS>SUBSTRUCTURE
       1 MOL1            1 RESIDUE      1      MOL     
@<SCITEGIC>MOL_PROPERTY
VConf Rank
SciTegic.value.IntegerValue
80

@<SCITEGIC>MOL_PROPERTY
Conf_Id
SciTegic.value.IntegerValue
45

@<SCITEGIC>MOL_PROPERTY
Delta U+W
SciTegic.value.DoubleValue
0.562

@<SCITEGIC>MOL_PROPERTY
U+W
SciTegic.value.DoubleValue
-52.846

@<SCITEGIC>MOL_PROPERTY
Grad RMS
SciTegic.value.DoubleValue
0.000000

@<SCITEGIC>MOL_PROPERTY
U
SciTegic.value.DoubleValue
10.243

@<SCITEGIC>MOL_PROPERTY
W
SciTegic.value.DoubleValue
-63.089

@<SCITEGIC>MOL_PROPERTY
W(PB)
SciTegic.value.DoubleValue
-65.116

@<SCITEGIC>MOL_PROPERTY
W(SA)
SciTegic.value.DoubleValue
2.026

@<SCITEGIC>MOL_PROPERTY
Valence
SciTegic.value.DoubleValue
2.822

@<SCITEGIC>MOL_PROPERTY
Coulomb
SciTegic.value.DoubleValue
6.637

@<SCITEGIC>MOL_PROPERTY
VdW
SciTegic.value.DoubleValue
0.785

@<SCITEGIC>MOL_PROPERTY
VdW6
SciTegic.value.DoubleValue
-5.216

@<SCITEGIC>MOL_PROPERTY
VdW12
SciTegic.value.DoubleValue
6.001

@<SCITEGIC>MOL_PROPERTY
Bond
SciTegic.value.DoubleValue
0.080

@<SCITEGIC>MOL_PROPERTY
Angle
SciTegic.value.DoubleValue
2.678

@<SCITEGIC>MOL_PROPERTY
Pdih
SciTegic.value.DoubleValue
0.064

@<SCITEGIC>MOL_PROPERTY
Idih
SciTegic.value.DoubleValue
0.000

@<SCITEGIC>MOL_PROPERTY
Tether
SciTegic.value.DoubleValue
0.000

@<TRIPOS>MOLECULE
guest-s19_confgen4.mol2 : confsearch ligand conformer 81
          17          16           1
SMALL
USER_CHARGES
 
@<TRIPOS>ATOM
       1    C1      22.775988   17.514062   20.882886 C.2        1 MOL1         0.6173
       2    O1      22.897500   16.384553   20.450281 O.co2      1 MOL1        -0.6755
       3    O2      23.723425   18.194199   21.229542 O.co2      1 MOL1        -0.6755
       4    C2      21.398419   18.067798   20.982092 C.2        1 MOL1        -0.1504
       5    H1      20.597266   17.408474   20.655972 H          1 MOL1         0.0814
       6    C3      21.115580   19.306639   21.445083 C.2        1 MOL1        -0.1394
       7    H2      21.910389   19.974568   21.776626 H          1 MOL1         0.0817
       8    C4      19.711464   19.861398   21.544777 C.3        1 MOL1        -0.1849
       9    H3      19.118066   19.539558   20.678113 H          1 MOL1         0.0736
      10    H4      19.746154   20.958643   21.509603 H          1 MOL1         0.0736
      11    C5      19.019426   19.408367   22.846645 C.3        1 MOL1        -0.1866
      12    H5      18.980136   18.310730   22.881432 H          1 MOL1         0.0738
      13    H6      19.613708   19.733179   23.712031 H          1 MOL1         0.0738
      14    C6      17.590871   19.977421   22.960376 C.3        1 MOL1        -0.2879
      15    H7      17.603988   21.075264   22.960102 H          1 MOL1         0.0750
      16    H8      16.966376   19.641663   22.122099 H          1 MOL1         0.0750
      17    H9      17.114996   19.644520   23.891961 H          1 MOL1         0.0750
@<TRIPOS>BOND
    1     1     2    1
    2     1     3    2
    3     1     4    1
    4     4     5    1
    5     4     6    2
    6     6     7    1
    7     6     8    1
    8     8     9    1
    9     8    10    1
   10     8    11    1
   11    11    12    1
   12    11    13    1
   13    11    14    1
   14    14    15    1
   15    14    16    1
   16    14    17    1
@<TRIPOS>SUBSTRUCTURE
       1 MOL1            1 RESIDUE      1      MOL     
@<SCITEGIC>MOL_PROPERTY
VConf Rank
SciTegic.value.IntegerValue
81

@<SCITEGIC>MOL_PROPERTY
Conf_Id
SciTegic.value.IntegerValue
36

@<SCITEGIC>MOL_PROPERTY
Delta U+W
SciTegic.value.DoubleValue
0.000

@<SCITEGIC>MOL_PROPERTY
U+W
SciTegic.value.DoubleValue
-53.409

@<SCITEGIC>MOL_PROPERTY
Grad RMS
SciTegic.value.DoubleValue
0.000000

@<SCITEGIC>MOL_PROPERTY
U
SciTegic.value.DoubleValue
9.048

@<SCITEGIC>MOL_PROPERTY
W
SciTegic.value.DoubleValue
-62.457

@<SCITEGIC>MOL_PROPERTY
W(PB)
SciTegic.value.DoubleValue
-64.540

@<SCITEGIC>MOL_PROPERTY
W(SA)
SciTegic.value.DoubleValue
2.084

@<SCITEGIC>MOL_PROPERTY
Valence
SciTegic.value.DoubleValue
2.652

@<SCITEGIC>MOL_PROPERTY
Coulomb
SciTegic.value.DoubleValue
5.578

@<SCITEGIC>MOL_PROPERTY
VdW
SciTegic.value.DoubleValue
0.818

@<SCITEGIC>MOL_PROPERTY
VdW6
SciTegic.value.DoubleValue
-4.534

@<SCITEGIC>MOL_PROPERTY
VdW12
SciTegic.value.DoubleValue
5.352

@<SCITEGIC>MOL_PROPERTY
Bond
SciTegic.value.DoubleValue
0.063

@<SCITEGIC>MOL_PROPERTY
Angle
SciTegic.value.DoubleValue
2.579

@<SCITEGIC>MOL_PROPERTY
Pdih
SciTegic.value.DoubleValue
0.010

@<SCITEGIC>MOL_PROPERTY
Idih
SciTegic.value.DoubleValue
0.000

@<SCITEGIC>MOL_PROPERTY
Tether
SciTegic.value.DoubleValue
0.000

@<TRIPOS>MOLECULE
guest-s19_confgen4.mol2 : confsearch ligand conformer 82
          17          16           1
SMALL
USER_CHARGES
 
@<TRIPOS>ATOM
       1    C1      22.790278   20.987272   21.625399 C.2        1 MOL1         0.6173
       2    O1      22.479228   21.973569   20.984415 O.co2      1 MOL1        -0.6755
       3    O2      23.943928   20.705857   21.885407 O.co2      1 MOL1        -0.6755
       4    C2      21.729699   20.070890   22.124976 C.2        1 MOL1        -0.1504
       5    H1      22.075301   19.208688   22.690729 H          1 MOL1         0.0814
       6    C3      20.407875   20.259521   21.909834 C.2        1 MOL1        -0.1394
       7    H2      20.050783   21.118797   21.342468 H          1 MOL1         0.0817
       8    C4      19.335732   19.321644   22.419869 C.3        1 MOL1        -0.1849
       9    H3      18.388032   19.867328   22.522237 H          1 MOL1         0.0736
      10    H4      19.598708   18.961050   23.423673 H          1 MOL1         0.0736
      11    C5      19.140518   18.121908   21.470373 C.3        1 MOL1        -0.1866
      12    H5      18.875463   18.485014   20.467644 H          1 MOL1         0.0738
      13    H6      20.086852   17.572408   21.370062 H          1 MOL1         0.0738
      14    C6      18.042692   17.165832   21.978529 C.3        1 MOL1        -0.2879
      15    H7      17.077302   17.682706   22.057858 H          1 MOL1         0.0750
      16    H8      17.918276   16.319370   21.290668 H          1 MOL1         0.0750
      17    H9      18.298825   16.763876   22.967601 H          1 MOL1         0.0750
@<TRIPOS>BOND
    1     1     2    1
    2     1     3    2
    3     1     4    1
    4     4     5    1
    5     4     6    2
    6     6     7    1
    7     6     8    1
    8     8     9    1
    9     8    10    1
   10     8    11    1
   11    11    12    1
   12    11    13    1
   13    11    14    1
   14    14    15    1
   15    14    16    1
   16    14    17    1
@<TRIPOS>SUBSTRUCTURE
       1 MOL1            1 RESIDUE      1      MOL     
@<SCITEGIC>MOL_PROPERTY
VConf Rank
SciTegic.value.IntegerValue
82

@<SCITEGIC>MOL_PROPERTY
Conf_Id
SciTegic.value.IntegerValue
1

@<SCITEGIC>MOL_PROPERTY
Delta U+W
SciTegic.value.DoubleValue
0.030

@<SCITEGIC>MOL_PROPERTY
U+W
SciTegic.value.DoubleValue
-53.378

@<SCITEGIC>MOL_PROPERTY
Grad RMS
SciTegic.value.DoubleValue
0.000000

@<SCITEGIC>MOL_PROPERTY
U
SciTegic.value.DoubleValue
9.048

@<SCITEGIC>MOL_PROPERTY
W
SciTegic.value.DoubleValue
-62.426

@<SCITEGIC>MOL_PROPERTY
W(PB)
SciTegic.value.DoubleValue
-64.506

@<SCITEGIC>MOL_PROPERTY
W(SA)
SciTegic.value.DoubleValue
2.080

@<SCITEGIC>MOL_PROPERTY
Valence
SciTegic.value.DoubleValue
2.652

@<SCITEGIC>MOL_PROPERTY
Coulomb
SciTegic.value.DoubleValue
5.578

@<SCITEGIC>MOL_PROPERTY
VdW
SciTegic.value.DoubleValue
0.818

@<SCITEGIC>MOL_PROPERTY
VdW6
SciTegic.value.DoubleValue
-4.535

@<SCITEGIC>MOL_PROPERTY
VdW12
SciTegic.value.DoubleValue
5.352

@<SCITEGIC>MOL_PROPERTY
Bond
SciTegic.value.DoubleValue
0.063

@<SCITEGIC>MOL_PROPERTY
Angle
SciTegic.value.DoubleValue
2.579

@<SCITEGIC>MOL_PROPERTY
Pdih
SciTegic.value.DoubleValue
0.010

@<SCITEGIC>MOL_PROPERTY
Idih
SciTegic.value.DoubleValue
0.000

@<SCITEGIC>MOL_PROPERTY
Tether
SciTegic.value.DoubleValue
0.000

@<TRIPOS>MOLECULE
guest-s19_confgen4.mol2 : confsearch ligand conformer 83
          17          16           1
SMALL
USER_CHARGES
 
@<TRIPOS>ATOM
       1    C1      19.911027   18.378460   19.052718 C.2        1 MOL1         0.6173
       2    O1      18.892281   18.958111   18.726221 O.co2      1 MOL1        -0.6755
       3    O2      20.725228   17.970736   18.247330 O.co2      1 MOL1        -0.6755
       4    C2      20.193351   18.143252   20.494613 C.2        1 MOL1        -0.1504
       5    H1      21.119789   17.619086   20.717601 H          1 MOL1         0.0814
       6    C3      19.378069   18.542435   21.497087 C.2        1 MOL1        -0.1394
       7    H2      18.449117   19.071321   21.285130 H          1 MOL1         0.0817
       8    C4      19.673967   18.302888   22.962718 C.3        1 MOL1        -0.1849
       9    H3      20.090076   17.294911   23.094490 H          1 MOL1         0.0736
      10    H4      18.740133   18.326517   23.540377 H          1 MOL1         0.0736
      11    C5      20.664105   19.338648   23.539250 C.3        1 MOL1        -0.1866
      12    H5      20.921838   19.054746   24.568874 H          1 MOL1         0.0738
      13    H6      21.600063   19.316479   22.963994 H          1 MOL1         0.0738
      14    C6      20.088150   20.770775   23.539989 C.3        1 MOL1        -0.2879
      15    H7      19.157664   20.819524   24.120475 H          1 MOL1         0.0750
      16    H8      20.803206   21.474017   23.986142 H          1 MOL1         0.0750
      17    H9      19.873492   21.111893   22.518823 H          1 MOL1         0.0750
@<TRIPOS>BOND
    1     1     2    1
    2     1     3    2
    3     1     4    1
    4     4     5    1
    5     4     6    2
    6     6     7    1
    7     6     8    1
    8     8     9    1
    9     8    10    1
   10     8    11    1
   11    11    12    1
   12    11    13    1
   13    11    14    1
   14    14    15    1
   15    14    16    1
   16    14    17    1
@<TRIPOS>SUBSTRUCTURE
       1 MOL1            1 RESIDUE      1      MOL     
@<SCITEGIC>MOL_PROPERTY
VConf Rank
SciTegic.value.IntegerValue
83

@<SCITEGIC>MOL_PROPERTY
Conf_Id
SciTegic.value.IntegerValue
3

@<SCITEGIC>MOL_PROPERTY
Delta U+W
SciTegic.value.DoubleValue
0.531

@<SCITEGIC>MOL_PROPERTY
U+W
SciTegic.value.DoubleValue
-52.878

@<SCITEGIC>MOL_PROPERTY
Grad RMS
SciTegic.value.DoubleValue
0.000000

@<SCITEGIC>MOL_PROPERTY
U
SciTegic.value.DoubleValue
10.067

@<SCITEGIC>MOL_PROPERTY
W
SciTegic.value.DoubleValue
-62.945

@<SCITEGIC>MOL_PROPERTY
W(PB)
SciTegic.value.DoubleValue
-64.982

@<SCITEGIC>MOL_PROPERTY
W(SA)
SciTegic.value.DoubleValue
2.037

@<SCITEGIC>MOL_PROPERTY
Valence
SciTegic.value.DoubleValue
2.779

@<SCITEGIC>MOL_PROPERTY
Coulomb
SciTegic.value.DoubleValue
6.474

@<SCITEGIC>MOL_PROPERTY
VdW
SciTegic.value.DoubleValue
0.815

@<SCITEGIC>MOL_PROPERTY
VdW6
SciTegic.value.DoubleValue
-5.088

@<SCITEGIC>MOL_PROPERTY
VdW12
SciTegic.value.DoubleValue
5.902

@<SCITEGIC>MOL_PROPERTY
Bond
SciTegic.value.DoubleValue
0.078

@<SCITEGIC>MOL_PROPERTY
Angle
SciTegic.value.DoubleValue
2.651

@<SCITEGIC>MOL_PROPERTY
Pdih
SciTegic.value.DoubleValue
0.050

@<SCITEGIC>MOL_PROPERTY
Idih
SciTegic.value.DoubleValue
0.000

@<SCITEGIC>MOL_PROPERTY
Tether
SciTegic.value.DoubleValue
0.000

@<TRIPOS>MOLECULE
guest-s19_confgen4.mol2 : confsearch ligand conformer 84
          17          16           1
SMALL
USER_CHARGES
 
@<TRIPOS>ATOM
       1    C1      18.301086   19.170119   19.565681 C.2        1 MOL1         0.6173
       2    O1      18.359364   18.467243   18.575555 O.co2      1 MOL1        -0.6755
       3    O2      17.776776   20.268093   19.566136 O.co2      1 MOL1        -0.6755
       4    C2      18.901365   18.641296   20.820305 C.2        1 MOL1        -0.1504
       5    H1      19.353138   17.654534   20.750242 H          1 MOL1         0.0814
       6    C3      18.910699   19.314641   21.993379 C.2        1 MOL1        -0.1394
       7    H2      18.463533   20.305332   22.071436 H          1 MOL1         0.0817
       8    C4      19.525051   18.774763   23.268306 C.3        1 MOL1        -0.1849
       9    H3      19.671525   17.688406   23.196799 H          1 MOL1         0.0736
      10    H4      18.824779   18.934301   24.099075 H          1 MOL1         0.0736
      11    C5      20.867935   19.458219   23.607007 C.3        1 MOL1        -0.1866
      12    H5      20.722838   20.545246   23.676121 H          1 MOL1         0.0738
      13    H6      21.200943   19.122426   24.598747 H          1 MOL1         0.0738
      14    C6      21.970991   19.145177   22.573517 C.3        1 MOL1        -0.2879
      15    H7      21.701496   19.524530   21.579276 H          1 MOL1         0.0750
      16    H8      22.919091   19.614210   22.866740 H          1 MOL1         0.0750
      17    H9      22.138269   18.063184   22.493508 H          1 MOL1         0.0750
@<TRIPOS>BOND
    1     1     2    1
    2     1     3    2
    3     1     4    1
    4     4     5    1
    5     4     6    2
    6     6     7    1
    7     6     8    1
    8     8     9    1
    9     8    10    1
   10     8    11    1
   11    11    12    1
   12    11    13    1
   13    11    14    1
   14    14    15    1
   15    14    16    1
   16    14    17    1
@<TRIPOS>SUBSTRUCTURE
       1 MOL1            1 RESIDUE      1      MOL     
@<SCITEGIC>MOL_PROPERTY
VConf Rank
SciTegic.value.IntegerValue
84

@<SCITEGIC>MOL_PROPERTY
Conf_Id
SciTegic.value.IntegerValue
45

@<SCITEGIC>MOL_PROPERTY
Delta U+W
SciTegic.value.DoubleValue
0.562

@<SCITEGIC>MOL_PROPERTY
U+W
SciTegic.value.DoubleValue
-52.846

@<SCITEGIC>MOL_PROPERTY
Grad RMS
SciTegic.value.DoubleValue
0.000000

@<SCITEGIC>MOL_PROPERTY
U
SciTegic.value.DoubleValue
10.243

@<SCITEGIC>MOL_PROPERTY
W
SciTegic.value.DoubleValue
-63.089

@<SCITEGIC>MOL_PROPERTY
W(PB)
SciTegic.value.DoubleValue
-65.116

@<SCITEGIC>MOL_PROPERTY
W(SA)
SciTegic.value.DoubleValue
2.026

@<SCITEGIC>MOL_PROPERTY
Valence
SciTegic.value.DoubleValue
2.822

@<SCITEGIC>MOL_PROPERTY
Coulomb
SciTegic.value.DoubleValue
6.637

@<SCITEGIC>MOL_PROPERTY
VdW
SciTegic.value.DoubleValue
0.785

@<SCITEGIC>MOL_PROPERTY
VdW6
SciTegic.value.DoubleValue
-5.216

@<SCITEGIC>MOL_PROPERTY
VdW12
SciTegic.value.DoubleValue
6.001

@<SCITEGIC>MOL_PROPERTY
Bond
SciTegic.value.DoubleValue
0.080

@<SCITEGIC>MOL_PROPERTY
Angle
SciTegic.value.DoubleValue
2.678

@<SCITEGIC>MOL_PROPERTY
Pdih
SciTegic.value.DoubleValue
0.064

@<SCITEGIC>MOL_PROPERTY
Idih
SciTegic.value.DoubleValue
0.000

@<SCITEGIC>MOL_PROPERTY
Tether
SciTegic.value.DoubleValue
0.000

@<TRIPOS>MOLECULE
guest-s19_confgen4.mol2 : confsearch ligand conformer 85
          17          16           1
SMALL
USER_CHARGES
 
@<TRIPOS>ATOM
       1    C1      19.391078   15.804301   22.105364 C.2        1 MOL1         0.6173
       2    O1      20.117888   14.911558   22.495826 O.co2      1 MOL1        -0.6755
       3    O2      18.361915   15.596981   21.490354 O.co2      1 MOL1        -0.6755
       4    C2      19.798329   17.203546   22.406067 C.2        1 MOL1        -0.1504
       5    H1      20.728024   17.318922   22.958573 H          1 MOL1         0.0814
       6    C3      19.088066   18.292113   22.032392 C.2        1 MOL1        -0.1394
       7    H2      18.156465   18.188065   21.476455 H          1 MOL1         0.0817
       8    C4      19.510423   19.711977   22.340354 C.3        1 MOL1        -0.1849
       9    H3      19.950170   19.763322   23.345737 H          1 MOL1         0.0736
      10    H4      18.626769   20.364206   22.352149 H          1 MOL1         0.0736
      11    C5      20.523824   20.234586   21.301647 C.3        1 MOL1        -0.1866
      12    H5      21.410450   19.585469   21.291568 H          1 MOL1         0.0738
      13    H6      20.080987   20.184154   20.297197 H          1 MOL1         0.0738
      14    C6      20.952251   21.684782   21.603154 C.3        1 MOL1        -0.2879
      15    H7      20.087619   22.361249   21.587847 H          1 MOL1         0.0750
      16    H8      21.426783   21.756979   22.590597 H          1 MOL1         0.0750
      17    H9      21.672710   22.038827   20.854339 H          1 MOL1         0.0750
@<TRIPOS>BOND
    1     1     2    1
    2     1     3    2
    3     1     4    1
    4     4     5    1
    5     4     6    2
    6     6     7    1
    7     6     8    1
    8     8     9    1
    9     8    10    1
   10     8    11    1
   11    11    12    1
   12    11    13    1
   13    11    14    1
   14    14    15    1
   15    14    16    1
   16    14    17    1
@<TRIPOS>SUBSTRUCTURE
       1 MOL1            1 RESIDUE      1      MOL     
@<SCITEGIC>MOL_PROPERTY
VConf Rank
SciTegic.value.IntegerValue
85

@<SCITEGIC>MOL_PROPERTY
Conf_Id
SciTegic.value.IntegerValue
36

@<SCITEGIC>MOL_PROPERTY
Delta U+W
SciTegic.value.DoubleValue
0.000

@<SCITEGIC>MOL_PROPERTY
U+W
SciTegic.value.DoubleValue
-53.409

@<SCITEGIC>MOL_PROPERTY
Grad RMS
SciTegic.value.DoubleValue
0.000000

@<SCITEGIC>MOL_PROPERTY
U
SciTegic.value.DoubleValue
9.048

@<SCITEGIC>MOL_PROPERTY
W
SciTegic.value.DoubleValue
-62.457

@<SCITEGIC>MOL_PROPERTY
W(PB)
SciTegic.value.DoubleValue
-64.540

@<SCITEGIC>MOL_PROPERTY
W(SA)
SciTegic.value.DoubleValue
2.084

@<SCITEGIC>MOL_PROPERTY
Valence
SciTegic.value.DoubleValue
2.652

@<SCITEGIC>MOL_PROPERTY
Coulomb
SciTegic.value.DoubleValue
5.578

@<SCITEGIC>MOL_PROPERTY
VdW
SciTegic.value.DoubleValue
0.818

@<SCITEGIC>MOL_PROPERTY
VdW6
SciTegic.value.DoubleValue
-4.534

@<SCITEGIC>MOL_PROPERTY
VdW12
SciTegic.value.DoubleValue
5.352

@<SCITEGIC>MOL_PROPERTY
Bond
SciTegic.value.DoubleValue
0.063

@<SCITEGIC>MOL_PROPERTY
Angle
SciTegic.value.DoubleValue
2.579

@<SCITEGIC>MOL_PROPERTY
Pdih
SciTegic.value.DoubleValue
0.010

@<SCITEGIC>MOL_PROPERTY
Idih
SciTegic.value.DoubleValue
0.000

@<SCITEGIC>MOL_PROPERTY
Tether
SciTegic.value.DoubleValue
0.000

@<TRIPOS>MOLECULE
guest-s19_confgen4.mol2 : confsearch ligand conformer 86
          17          16           1
SMALL
USER_CHARGES
 
@<TRIPOS>ATOM
       1    C1      22.994939   19.698040   20.455443 C.2        1 MOL1         0.6173
       2    O1      23.214438   20.888068   20.582121 O.co2      1 MOL1        -0.6755
       3    O2      23.661576   18.976469   19.739457 O.co2      1 MOL1        -0.6755
       4    C2      21.867409   19.075333   21.200476 C.2        1 MOL1        -0.1504
       5    H1      21.726020   18.008544   21.042747 H          1 MOL1         0.0814
       6    C3      21.044511   19.756547   22.029857 C.2        1 MOL1        -0.1394
       7    H2      21.175816   20.826021   22.193440 H          1 MOL1         0.0817
       8    C4      19.898857   19.115956   22.782425 C.3        1 MOL1        -0.1849
       9    H3      19.672195   19.707055   23.679984 H          1 MOL1         0.0736
      10    H4      20.191431   18.116492   23.132109 H          1 MOL1         0.0736
      11    C5      18.637071   19.010558   21.901627 C.3        1 MOL1        -0.1866
      12    H5      18.345173   20.011629   21.554900 H          1 MOL1         0.0738
      13    H6      18.861039   18.415936   21.005065 H          1 MOL1         0.0738
      14    C6      17.461771   18.366978   22.664516 C.3        1 MOL1        -0.2879
      15    H7      17.196156   18.959737   23.549680 H          1 MOL1         0.0750
      16    H8      16.573900   18.300578   22.022326 H          1 MOL1         0.0750
      17    H9      17.717191   17.351793   22.995570 H          1 MOL1         0.0750
@<TRIPOS>BOND
    1     1     2    1
    2     1     3    2
    3     1     4    1
    4     4     5    1
    5     4     6    2
    6     6     7    1
    7     6     8    1
    8     8     9    1
    9     8    10    1
   10     8    11    1
   11    11    12    1
   12    11    13    1
   13    11    14    1
   14    14    15    1
   15    14    16    1
   16    14    17    1
@<TRIPOS>SUBSTRUCTURE
       1 MOL1            1 RESIDUE      1      MOL     
@<SCITEGIC>MOL_PROPERTY
VConf Rank
SciTegic.value.IntegerValue
86

@<SCITEGIC>MOL_PROPERTY
Conf_Id
SciTegic.value.IntegerValue
1

@<SCITEGIC>MOL_PROPERTY
Delta U+W
SciTegic.value.DoubleValue
0.030

@<SCITEGIC>MOL_PROPERTY
U+W
SciTegic.value.DoubleValue
-53.378

@<SCITEGIC>MOL_PROPERTY
Grad RMS
SciTegic.value.DoubleValue
0.000000

@<SCITEGIC>MOL_PROPERTY
U
SciTegic.value.DoubleValue
9.048

@<SCITEGIC>MOL_PROPERTY
W
SciTegic.value.DoubleValue
-62.426

@<SCITEGIC>MOL_PROPERTY
W(PB)
SciTegic.value.DoubleValue
-64.506

@<SCITEGIC>MOL_PROPERTY
W(SA)
SciTegic.value.DoubleValue
2.080

@<SCITEGIC>MOL_PROPERTY
Valence
SciTegic.value.DoubleValue
2.652

@<SCITEGIC>MOL_PROPERTY
Coulomb
SciTegic.value.DoubleValue
5.578

@<SCITEGIC>MOL_PROPERTY
VdW
SciTegic.value.DoubleValue
0.818

@<SCITEGIC>MOL_PROPERTY
VdW6
SciTegic.value.DoubleValue
-4.535

@<SCITEGIC>MOL_PROPERTY
VdW12
SciTegic.value.DoubleValue
5.352

@<SCITEGIC>MOL_PROPERTY
Bond
SciTegic.value.DoubleValue
0.063

@<SCITEGIC>MOL_PROPERTY
Angle
SciTegic.value.DoubleValue
2.579

@<SCITEGIC>MOL_PROPERTY
Pdih
SciTegic.value.DoubleValue
0.010

@<SCITEGIC>MOL_PROPERTY
Idih
SciTegic.value.DoubleValue
0.000

@<SCITEGIC>MOL_PROPERTY
Tether
SciTegic.value.DoubleValue
0.000

@<TRIPOS>MOLECULE
guest-s19_confgen4.mol2 : confsearch ligand conformer 87
          17          16           1
SMALL
USER_CHARGES
 
@<TRIPOS>ATOM
       1    C1      17.525049   17.365661   21.478928 C.2        1 MOL1         0.6173
       2    O1      17.807679   16.358594   22.100521 O.co2      1 MOL1        -0.6755
       3    O2      16.399882   17.604145   21.085311 O.co2      1 MOL1        -0.6755
       4    C2      18.586336   18.362355   21.171744 C.2        1 MOL1        -0.1504
       5    H1      18.266951   19.238864   20.612741 H          1 MOL1         0.0814
       6    C3      19.878333   18.227721   21.548047 C.2        1 MOL1        -0.1394
       7    H2      20.208488   17.355198   22.111340 H          1 MOL1         0.0817
       8    C4      20.952305   19.248338   21.235093 C.3        1 MOL1        -0.1849
       9    H3      20.817758   19.622382   20.211123 H          1 MOL1         0.0736
      10    H4      21.940299   18.769164   21.258639 H          1 MOL1         0.0736
      11    C5      20.933360   20.441011   22.216282 C.3        1 MOL1        -0.1866
      12    H5      21.658501   21.194646   21.879593 H          1 MOL1         0.0738
      13    H6      19.946294   20.923330   22.194028 H          1 MOL1         0.0738
      14    C6      21.275107   20.022745   23.662303 C.3        1 MOL1        -0.2879
      15    H7      22.264276   19.549093   23.710716 H          1 MOL1         0.0750
      16    H8      21.285557   20.897851   24.324864 H          1 MOL1         0.0750
      17    H9      20.535383   19.312700   24.054560 H          1 MOL1         0.0750
@<TRIPOS>BOND
    1     1     2    1
    2     1     3    2
    3     1     4    1
    4     4     5    1
    5     4     6    2
    6     6     7    1
    7     6     8    1
    8     8     9    1
    9     8    10    1
   10     8    11    1
   11    11    12    1
   12    11    13    1
   13    11    14    1
   14    14    15    1
   15    14    16    1
   16    14    17    1
@<TRIPOS>SUBSTRUCTURE
       1 MOL1            1 RESIDUE      1      MOL     
@<SCITEGIC>MOL_PROPERTY
VConf Rank
SciTegic.value.IntegerValue
87

@<SCITEGIC>MOL_PROPERTY
Conf_Id
SciTegic.value.IntegerValue
3

@<SCITEGIC>MOL_PROPERTY
Delta U+W
SciTegic.value.DoubleValue
0.531

@<SCITEGIC>MOL_PROPERTY
U+W
SciTegic.value.DoubleValue
-52.878

@<SCITEGIC>MOL_PROPERTY
Grad RMS
SciTegic.value.DoubleValue
0.000000

@<SCITEGIC>MOL_PROPERTY
U
SciTegic.value.DoubleValue
10.067

@<SCITEGIC>MOL_PROPERTY
W
SciTegic.value.DoubleValue
-62.945

@<SCITEGIC>MOL_PROPERTY
W(PB)
SciTegic.value.DoubleValue
-64.982

@<SCITEGIC>MOL_PROPERTY
W(SA)
SciTegic.value.DoubleValue
2.037

@<SCITEGIC>MOL_PROPERTY
Valence
SciTegic.value.DoubleValue
2.779

@<SCITEGIC>MOL_PROPERTY
Coulomb
SciTegic.value.DoubleValue
6.474

@<SCITEGIC>MOL_PROPERTY
VdW
SciTegic.value.DoubleValue
0.815

@<SCITEGIC>MOL_PROPERTY
VdW6
SciTegic.value.DoubleValue
-5.088

@<SCITEGIC>MOL_PROPERTY
VdW12
SciTegic.value.DoubleValue
5.902

@<SCITEGIC>MOL_PROPERTY
Bond
SciTegic.value.DoubleValue
0.078

@<SCITEGIC>MOL_PROPERTY
Angle
SciTegic.value.DoubleValue
2.651

@<SCITEGIC>MOL_PROPERTY
Pdih
SciTegic.value.DoubleValue
0.050

@<SCITEGIC>MOL_PROPERTY
Idih
SciTegic.value.DoubleValue
0.000

@<SCITEGIC>MOL_PROPERTY
Tether
SciTegic.value.DoubleValue
0.000

@<TRIPOS>MOLECULE
guest-s19_confgen4.mol2 : confsearch ligand conformer 88
          17          16           1
SMALL
USER_CHARGES
 
@<TRIPOS>ATOM
       1    C1      19.444702   17.030369   19.942669 C.2        1 MOL1         0.6173
       2    O1      19.993324   15.963941   19.743860 O.co2      1 MOL1        -0.6755
       3    O2      18.808819   17.615652   19.086197 O.co2      1 MOL1        -0.6755
       4    C2      19.568005   17.623985   21.301525 C.2        1 MOL1        -0.1504
       5    H1      20.149521   17.049340   22.018692 H          1 MOL1         0.0814
       6    C3      19.012353   18.803377   21.661900 C.2        1 MOL1        -0.1394
       7    H2      18.431263   19.387293   20.948531 H          1 MOL1         0.0817
       8    C4      19.141967   19.406456   23.045313 C.3        1 MOL1        -0.1849
       9    H3      19.461986   18.645558   23.770131 H          1 MOL1         0.0736
      10    H4      18.154351   19.750702   23.380155 H          1 MOL1         0.0736
      11    C5      20.124372   20.597725   23.075728 C.3        1 MOL1        -0.1866
      12    H5      19.806452   21.358195   22.349044 H          1 MOL1         0.0738
      13    H6      20.081601   21.072432   24.065689 H          1 MOL1         0.0738
      14    C6      21.579878   20.174882   22.783263 C.3        1 MOL1        -0.2879
      15    H7      21.674821   19.753519   21.774059 H          1 MOL1         0.0750
      16    H8      22.253978   21.038449   22.851870 H          1 MOL1         0.0750
      17    H9      21.921485   19.419844   23.503204 H          1 MOL1         0.0750
@<TRIPOS>BOND
    1     1     2    1
    2     1     3    2
    3     1     4    1
    4     4     5    1
    5     4     6    2
    6     6     7    1
    7     6     8    1
    8     8     9    1
    9     8    10    1
   10     8    11    1
   11    11    12    1
   12    11    13    1
   13    11    14    1
   14    14    15    1
   15    14    16    1
   16    14    17    1
@<TRIPOS>SUBSTRUCTURE
       1 MOL1            1 RESIDUE      1      MOL     
@<SCITEGIC>MOL_PROPERTY
VConf Rank
SciTegic.value.IntegerValue
88

@<SCITEGIC>MOL_PROPERTY
Conf_Id
SciTegic.value.IntegerValue
45

@<SCITEGIC>MOL_PROPERTY
Delta U+W
SciTegic.value.DoubleValue
0.562

@<SCITEGIC>MOL_PROPERTY
U+W
SciTegic.value.DoubleValue
-52.846

@<SCITEGIC>MOL_PROPERTY
Grad RMS
SciTegic.value.DoubleValue
0.000000

@<SCITEGIC>MOL_PROPERTY
U
SciTegic.value.DoubleValue
10.243

@<SCITEGIC>MOL_PROPERTY
W
SciTegic.value.DoubleValue
-63.089

@<SCITEGIC>MOL_PROPERTY
W(PB)
SciTegic.value.DoubleValue
-65.116

@<SCITEGIC>MOL_PROPERTY
W(SA)
SciTegic.value.DoubleValue
2.026

@<SCITEGIC>MOL_PROPERTY
Valence
SciTegic.value.DoubleValue
2.822

@<SCITEGIC>MOL_PROPERTY
Coulomb
SciTegic.value.DoubleValue
6.637

@<SCITEGIC>MOL_PROPERTY
VdW
SciTegic.value.DoubleValue
0.785

@<SCITEGIC>MOL_PROPERTY
VdW6
SciTegic.value.DoubleValue
-5.216

@<SCITEGIC>MOL_PROPERTY
VdW12
SciTegic.value.DoubleValue
6.001

@<SCITEGIC>MOL_PROPERTY
Bond
SciTegic.value.DoubleValue
0.080

@<SCITEGIC>MOL_PROPERTY
Angle
SciTegic.value.DoubleValue
2.678

@<SCITEGIC>MOL_PROPERTY
Pdih
SciTegic.value.DoubleValue
0.064

@<SCITEGIC>MOL_PROPERTY
Idih
SciTegic.value.DoubleValue
0.000

@<SCITEGIC>MOL_PROPERTY
Tether
SciTegic.value.DoubleValue
0.000

@<TRIPOS>MOLECULE
guest-s19_confgen4.mol2 : confsearch ligand conformer 89
          17          16           1
SMALL
USER_CHARGES
 
@<TRIPOS>ATOM
       1    C1      16.724320   18.374442   21.539062 C.2        1 MOL1         0.6173
       2    O1      16.206546   17.487243   20.889068 O.co2      1 MOL1        -0.6755
       3    O2      16.095513   19.307820   22.001449 O.co2      1 MOL1        -0.6755
       4    C2      18.192493   18.292656   21.766967 C.2        1 MOL1        -0.1504
       5    H1      18.693968   17.433733   21.326873 H          1 MOL1         0.0814
       6    C3      18.898452   19.208140   22.468819 C.2        1 MOL1        -0.1394
       7    H2      18.406436   20.073752   22.911999 H          1 MOL1         0.0817
       8    C4      20.391927   19.118664   22.694132 C.3        1 MOL1        -0.1849
       9    H3      20.684320   18.073285   22.862944 H          1 MOL1         0.0736
      10    H4      20.659963   19.669217   23.605963 H          1 MOL1         0.0736
      11    C5      21.176267   19.691563   21.495962 C.3        1 MOL1        -0.1866
      12    H5      20.912361   19.139009   20.583494 H          1 MOL1         0.0738
      13    H6      20.883620   20.737753   21.330397 H          1 MOL1         0.0738
      14    C6      22.699510   19.612674   21.721864 C.3        1 MOL1        -0.2879
      15    H7      22.994982   20.184192   22.611524 H          1 MOL1         0.0750
      16    H8      23.022897   18.572509   21.859389 H          1 MOL1         0.0750
      17    H9      23.240177   20.024385   20.859712 H          1 MOL1         0.0750
@<TRIPOS>BOND
    1     1     2    1
    2     1     3    2
    3     1     4    1
    4     4     5    1
    5     4     6    2
    6     6     7    1
    7     6     8    1
    8     8     9    1
    9     8    10    1
   10     8    11    1
   11    11    12    1
   12    11    13    1
   13    11    14    1
   14    14    15    1
   15    14    16    1
   16    14    17    1
@<TRIPOS>SUBSTRUCTURE
       1 MOL1            1 RESIDUE      1      MOL     
@<SCITEGIC>MOL_PROPERTY
VConf Rank
SciTegic.value.IntegerValue
89

@<SCITEGIC>MOL_PROPERTY
Conf_Id
SciTegic.value.IntegerValue
36

@<SCITEGIC>MOL_PROPERTY
Delta U+W
SciTegic.value.DoubleValue
0.000

@<SCITEGIC>MOL_PROPERTY
U+W
SciTegic.value.DoubleValue
-53.409

@<SCITEGIC>MOL_PROPERTY
Grad RMS
SciTegic.value.DoubleValue
0.000000

@<SCITEGIC>MOL_PROPERTY
U
SciTegic.value.DoubleValue
9.048

@<SCITEGIC>MOL_PROPERTY
W
SciTegic.value.DoubleValue
-62.457

@<SCITEGIC>MOL_PROPERTY
W(PB)
SciTegic.value.DoubleValue
-64.540

@<SCITEGIC>MOL_PROPERTY
W(SA)
SciTegic.value.DoubleValue
2.084

@<SCITEGIC>MOL_PROPERTY
Valence
SciTegic.value.DoubleValue
2.652

@<SCITEGIC>MOL_PROPERTY
Coulomb
SciTegic.value.DoubleValue
5.578

@<SCITEGIC>MOL_PROPERTY
VdW
SciTegic.value.DoubleValue
0.818

@<SCITEGIC>MOL_PROPERTY
VdW6
SciTegic.value.DoubleValue
-4.534

@<SCITEGIC>MOL_PROPERTY
VdW12
SciTegic.value.DoubleValue
5.352

@<SCITEGIC>MOL_PROPERTY
Bond
SciTegic.value.DoubleValue
0.063

@<SCITEGIC>MOL_PROPERTY
Angle
SciTegic.value.DoubleValue
2.579

@<SCITEGIC>MOL_PROPERTY
Pdih
SciTegic.value.DoubleValue
0.010

@<SCITEGIC>MOL_PROPERTY
Idih
SciTegic.value.DoubleValue
0.000

@<SCITEGIC>MOL_PROPERTY
Tether
SciTegic.value.DoubleValue
0.000

@<TRIPOS>MOLECULE
guest-s19_confgen4.mol2 : confsearch ligand conformer 90
          17          16           1
SMALL
USER_CHARGES
 
@<TRIPOS>ATOM
       1    C1      18.576206   16.162718   21.064023 C.2        1 MOL1         0.6173
       2    O1      17.807107   15.874060   21.961551 O.co2      1 MOL1        -0.6755
       3    O2      18.875189   15.387953   20.176299 O.co2      1 MOL1        -0.6755
       4    C2      19.189443   17.518036   21.029164 C.2        1 MOL1        -0.1504
       5    H1      19.867253   17.711105   20.200788 H          1 MOL1         0.0814
       6    C3      18.948409   18.478319   21.950491 C.2        1 MOL1        -0.1394
       7    H2      18.272750   18.294828   22.785709 H          1 MOL1         0.0817
       8    C4      19.577703   19.853632   21.908740 C.3        1 MOL1        -0.1849
       9    H3      18.937767   20.567354   22.444902 H          1 MOL1         0.0736
      10    H4      19.638693   20.207363   20.870491 H          1 MOL1         0.0736
      11    C5      20.985031   19.847056   22.539932 C.3        1 MOL1        -0.1866
      12    H5      20.921130   19.494986   23.578936 H          1 MOL1         0.0738
      13    H6      21.627822   19.136405   22.002015 H          1 MOL1         0.0738
      14    C6      21.629654   21.247437   22.509623 C.3        1 MOL1        -0.2879
      15    H7      21.022328   21.971808   23.068079 H          1 MOL1         0.0750
      16    H8      22.629344   21.222896   22.962557 H          1 MOL1         0.0750
      17    H9      21.733663   21.609777   21.478445 H          1 MOL1         0.0750
@<TRIPOS>BOND
    1     1     2    1
    2     1     3    2
    3     1     4    1
    4     4     5    1
    5     4     6    2
    6     6     7    1
    7     6     8    1
    8     8     9    1
    9     8    10    1
   10     8    11    1
   11    11    12    1
   12    11    13    1
   13    11    14    1
   14    14    15    1
   15    14    16    1
   16    14    17    1
@<TRIPOS>SUBSTRUCTURE
       1 MOL1            1 RESIDUE      1      MOL     
@<SCITEGIC>MOL_PROPERTY
VConf Rank
SciTegic.value.IntegerValue
90

@<SCITEGIC>MOL_PROPERTY
Conf_Id
SciTegic.value.IntegerValue
1

@<SCITEGIC>MOL_PROPERTY
Delta U+W
SciTegic.value.DoubleValue
0.030

@<SCITEGIC>MOL_PROPERTY
U+W
SciTegic.value.DoubleValue
-53.378

@<SCITEGIC>MOL_PROPERTY
Grad RMS
SciTegic.value.DoubleValue
0.000000

@<SCITEGIC>MOL_PROPERTY
U
SciTegic.value.DoubleValue
9.048

@<SCITEGIC>MOL_PROPERTY
W
SciTegic.value.DoubleValue
-62.426

@<SCITEGIC>MOL_PROPERTY
W(PB)
SciTegic.value.DoubleValue
-64.506

@<SCITEGIC>MOL_PROPERTY
W(SA)
SciTegic.value.DoubleValue
2.080

@<SCITEGIC>MOL_PROPERTY
Valence
SciTegic.value.DoubleValue
2.652

@<SCITEGIC>MOL_PROPERTY
Coulomb
SciTegic.value.DoubleValue
5.578

@<SCITEGIC>MOL_PROPERTY
VdW
SciTegic.value.DoubleValue
0.818

@<SCITEGIC>MOL_PROPERTY
VdW6
SciTegic.value.DoubleValue
-4.535

@<SCITEGIC>MOL_PROPERTY
VdW12
SciTegic.value.DoubleValue
5.352

@<SCITEGIC>MOL_PROPERTY
Bond
SciTegic.value.DoubleValue
0.063

@<SCITEGIC>MOL_PROPERTY
Angle
SciTegic.value.DoubleValue
2.579

@<SCITEGIC>MOL_PROPERTY
Pdih
SciTegic.value.DoubleValue
0.010

@<SCITEGIC>MOL_PROPERTY
Idih
SciTegic.value.DoubleValue
0.000

@<SCITEGIC>MOL_PROPERTY
Tether
SciTegic.value.DoubleValue
0.000

@<TRIPOS>MOLECULE
guest-s19_confgen4.mol2 : confsearch ligand conformer 91
          17          16           1
SMALL
USER_CHARGES
 
@<TRIPOS>ATOM
       1    C1      21.054428   19.702221   24.886814 C.2        1 MOL1         0.6173
       2    O1      20.741940   20.874008   24.985334 O.co2      1 MOL1        -0.6755
       3    O2      21.366357   19.019841   25.843301 O.co2      1 MOL1        -0.6755
       4    C2      21.066278   19.054445   23.547285 C.2        1 MOL1        -0.1504
       5    H1      21.355624   18.006247   23.529411 H          1 MOL1         0.0814
       6    C3      20.741408   19.691277   22.399291 C.2        1 MOL1        -0.1394
       7    H2      20.446806   20.740448   22.406132 H          1 MOL1         0.0817
       8    C4      20.752022   19.024283   21.039872 C.3        1 MOL1        -0.1849
       9    H3      21.628981   18.367890   20.958518 H          1 MOL1         0.0736
      10    H4      20.863250   19.782686   20.253267 H          1 MOL1         0.0736
      11    C5      19.474129   18.196109   20.781654 C.3        1 MOL1        -0.1866
      12    H5      19.583371   17.653650   19.832466 H          1 MOL1         0.0738
      13    H6      19.360772   17.435489   21.566534 H          1 MOL1         0.0738
      14    C6      18.204461   19.071744   20.719040 C.3        1 MOL1        -0.2879
      15    H7      18.290273   19.832142   19.931908 H          1 MOL1         0.0750
      16    H8      17.321829   18.456574   20.501246 H          1 MOL1         0.0750
      17    H9      18.029627   19.584743   21.673758 H          1 MOL1         0.0750
@<TRIPOS>BOND
    1     1     2    1
    2     1     3    2
    3     1     4    1
    4     4     5    1
    5     4     6    2
    6     6     7    1
    7     6     8    1
    8     8     9    1
    9     8    10    1
   10     8    11    1
   11    11    12    1
   12    11    13    1
   13    11    14    1
   14    14    15    1
   15    14    16    1
   16    14    17    1
@<TRIPOS>SUBSTRUCTURE
       1 MOL1            1 RESIDUE      1      MOL     
@<SCITEGIC>MOL_PROPERTY
VConf Rank
SciTegic.value.IntegerValue
91

@<SCITEGIC>MOL_PROPERTY
Conf_Id
SciTegic.value.IntegerValue
3

@<SCITEGIC>MOL_PROPERTY
Delta U+W
SciTegic.value.DoubleValue
0.531

@<SCITEGIC>MOL_PROPERTY
U+W
SciTegic.value.DoubleValue
-52.878

@<SCITEGIC>MOL_PROPERTY
Grad RMS
SciTegic.value.DoubleValue
0.000000

@<SCITEGIC>MOL_PROPERTY
U
SciTegic.value.DoubleValue
10.067

@<SCITEGIC>MOL_PROPERTY
W
SciTegic.value.DoubleValue
-62.945

@<SCITEGIC>MOL_PROPERTY
W(PB)
SciTegic.value.DoubleValue
-64.982

@<SCITEGIC>MOL_PROPERTY
W(SA)
SciTegic.value.DoubleValue
2.037

@<SCITEGIC>MOL_PROPERTY
Valence
SciTegic.value.DoubleValue
2.779

@<SCITEGIC>MOL_PROPERTY
Coulomb
SciTegic.value.DoubleValue
6.474

@<SCITEGIC>MOL_PROPERTY
VdW
SciTegic.value.DoubleValue
0.815

@<SCITEGIC>MOL_PROPERTY
VdW6
SciTegic.value.DoubleValue
-5.088

@<SCITEGIC>MOL_PROPERTY
VdW12
SciTegic.value.DoubleValue
5.902

@<SCITEGIC>MOL_PROPERTY
Bond
SciTegic.value.DoubleValue
0.078

@<SCITEGIC>MOL_PROPERTY
Angle
SciTegic.value.DoubleValue
2.651

@<SCITEGIC>MOL_PROPERTY
Pdih
SciTegic.value.DoubleValue
0.050

@<SCITEGIC>MOL_PROPERTY
Idih
SciTegic.value.DoubleValue
0.000

@<SCITEGIC>MOL_PROPERTY
Tether
SciTegic.value.DoubleValue
0.000

@<TRIPOS>MOLECULE
guest-s19_confgen4.mol2 : confsearch ligand conformer 92
          17          16           1
SMALL
USER_CHARGES
 
@<TRIPOS>ATOM
       1    C1      18.934725   21.710373   23.179005 C.2        1 MOL1         0.6173
       2    O1      17.800459   22.025240   23.482450 O.co2      1 MOL1        -0.6755
       3    O2      19.803476   22.526344   22.934236 O.co2      1 MOL1        -0.6755
       4    C2      19.250735   20.257798   23.113924 C.2        1 MOL1        -0.1504
       5    H1      18.429262   19.583349   23.344158 H          1 MOL1         0.0814
       6    C3      20.467617   19.765196   22.788154 C.2        1 MOL1        -0.1394
       7    H2      21.295201   20.433839   22.552487 H          1 MOL1         0.0817
       8    C4      20.785522   18.285792   22.720060 C.3        1 MOL1        -0.1849
       9    H3      20.022775   17.701720   23.252804 H          1 MOL1         0.0736
      10    H4      21.733271   18.098494   23.242268 H          1 MOL1         0.0736
      11    C5      20.905966   17.778452   21.266352 C.3        1 MOL1        -0.1866
      12    H5      21.666916   18.363950   20.731931 H          1 MOL1         0.0738
      13    H6      21.260923   16.738705   21.277814 H          1 MOL1         0.0738
      14    C6      19.566778   17.844225   20.501447 C.3        1 MOL1        -0.2879
      15    H7      19.211444   18.879108   20.413083 H          1 MOL1         0.0750
      16    H8      19.681211   17.440248   19.487261 H          1 MOL1         0.0750
      17    H9      18.792598   17.258888   21.014397 H          1 MOL1         0.0750
@<TRIPOS>BOND
    1     1     2    1
    2     1     3    2
    3     1     4    1
    4     4     5    1
    5     4     6    2
    6     6     7    1
    7     6     8    1
    8     8     9    1
    9     8    10    1
   10     8    11    1
   11    11    12    1
   12    11    13    1
   13    11    14    1
   14    14    15    1
   15    14    16    1
   16    14    17    1
@<TRIPOS>SUBSTRUCTURE
       1 MOL1            1 RESIDUE      1      MOL     
@<SCITEGIC>MOL_PROPERTY
VConf Rank
SciTegic.value.IntegerValue
92

@<SCITEGIC>MOL_PROPERTY
Conf_Id
SciTegic.value.IntegerValue
45

@<SCITEGIC>MOL_PROPERTY
Delta U+W
SciTegic.value.DoubleValue
0.562

@<SCITEGIC>MOL_PROPERTY
U+W
SciTegic.value.DoubleValue
-52.846

@<SCITEGIC>MOL_PROPERTY
Grad RMS
SciTegic.value.DoubleValue
0.000000

@<SCITEGIC>MOL_PROPERTY
U
SciTegic.value.DoubleValue
10.243

@<SCITEGIC>MOL_PROPERTY
W
SciTegic.value.DoubleValue
-63.089

@<SCITEGIC>MOL_PROPERTY
W(PB)
SciTegic.value.DoubleValue
-65.116

@<SCITEGIC>MOL_PROPERTY
W(SA)
SciTegic.value.DoubleValue
2.026

@<SCITEGIC>MOL_PROPERTY
Valence
SciTegic.value.DoubleValue
2.822

@<SCITEGIC>MOL_PROPERTY
Coulomb
SciTegic.value.DoubleValue
6.637

@<SCITEGIC>MOL_PROPERTY
VdW
SciTegic.value.DoubleValue
0.785

@<SCITEGIC>MOL_PROPERTY
VdW6
SciTegic.value.DoubleValue
-5.216

@<SCITEGIC>MOL_PROPERTY
VdW12
SciTegic.value.DoubleValue
6.001

@<SCITEGIC>MOL_PROPERTY
Bond
SciTegic.value.DoubleValue
0.080

@<SCITEGIC>MOL_PROPERTY
Angle
SciTegic.value.DoubleValue
2.678

@<SCITEGIC>MOL_PROPERTY
Pdih
SciTegic.value.DoubleValue
0.064

@<SCITEGIC>MOL_PROPERTY
Idih
SciTegic.value.DoubleValue
0.000

@<SCITEGIC>MOL_PROPERTY
Tether
SciTegic.value.DoubleValue
0.000

@<TRIPOS>MOLECULE
guest-s19_confgen4.mol2 : confsearch ligand conformer 93
          17          16           1
SMALL
USER_CHARGES
 
@<TRIPOS>ATOM
       1    C1      18.208932   16.255631   21.858583 C.2        1 MOL1         0.6173
       2    O1      17.660502   15.673160   22.773819 O.co2      1 MOL1        -0.6755
       3    O2      18.387230   15.750153   20.766294 O.co2      1 MOL1        -0.6755
       4    C2      18.672453   17.647278   22.108840 C.2        1 MOL1        -0.1504
       5    H1      18.482175   18.038882   23.105509 H          1 MOL1         0.0814
       6    C3      19.297337   18.411326   21.184267 C.2        1 MOL1        -0.1394
       7    H2      19.495105   18.028077   20.183377 H          1 MOL1         0.0817
       8    C4      19.767547   19.825113   21.447603 C.3        1 MOL1        -0.1849
       9    H3      19.035869   20.353785   22.073672 H          1 MOL1         0.0736
      10    H4      19.823825   20.376625   20.499419 H          1 MOL1         0.0736
      11    C5      21.147940   19.839203   22.135594 C.3        1 MOL1        -0.1866
      12    H5      21.092312   19.291347   23.086551 H          1 MOL1         0.0738
      13    H6      21.878442   19.311666   21.506595 H          1 MOL1         0.0738
      14    C6      21.638668   21.277024   22.399000 C.3        1 MOL1        -0.2879
      15    H7      21.733791   21.838022   21.460030 H          1 MOL1         0.0750
      16    H8      20.940419   21.817000   23.051925 H          1 MOL1         0.0750
      17    H9      22.621203   21.266745   22.888541 H          1 MOL1         0.0750
@<TRIPOS>BOND
    1     1     2    1
    2     1     3    2
    3     1     4    1
    4     4     5    1
    5     4     6    2
    6     6     7    1
    7     6     8    1
    8     8     9    1
    9     8    10    1
   10     8    11    1
   11    11    12    1
   12    11    13    1
   13    11    14    1
   14    14    15    1
   15    14    16    1
   16    14    17    1
@<TRIPOS>SUBSTRUCTURE
       1 MOL1            1 RESIDUE      1      MOL     
@<SCITEGIC>MOL_PROPERTY
VConf Rank
SciTegic.value.IntegerValue
93

@<SCITEGIC>MOL_PROPERTY
Conf_Id
SciTegic.value.IntegerValue
36

@<SCITEGIC>MOL_PROPERTY
Delta U+W
SciTegic.value.DoubleValue
0.000

@<SCITEGIC>MOL_PROPERTY
U+W
SciTegic.value.DoubleValue
-53.409

@<SCITEGIC>MOL_PROPERTY
Grad RMS
SciTegic.value.DoubleValue
0.000000

@<SCITEGIC>MOL_PROPERTY
U
SciTegic.value.DoubleValue
9.048

@<SCITEGIC>MOL_PROPERTY
W
SciTegic.value.DoubleValue
-62.457

@<SCITEGIC>MOL_PROPERTY
W(PB)
SciTegic.value.DoubleValue
-64.540

@<SCITEGIC>MOL_PROPERTY
W(SA)
SciTegic.value.DoubleValue
2.084

@<SCITEGIC>MOL_PROPERTY
Valence
SciTegic.value.DoubleValue
2.652

@<SCITEGIC>MOL_PROPERTY
Coulomb
SciTegic.value.DoubleValue
5.578

@<SCITEGIC>MOL_PROPERTY
VdW
SciTegic.value.DoubleValue
0.818

@<SCITEGIC>MOL_PROPERTY
VdW6
SciTegic.value.DoubleValue
-4.534

@<SCITEGIC>MOL_PROPERTY
VdW12
SciTegic.value.DoubleValue
5.352

@<SCITEGIC>MOL_PROPERTY
Bond
SciTegic.value.DoubleValue
0.063

@<SCITEGIC>MOL_PROPERTY
Angle
SciTegic.value.DoubleValue
2.579

@<SCITEGIC>MOL_PROPERTY
Pdih
SciTegic.value.DoubleValue
0.010

@<SCITEGIC>MOL_PROPERTY
Idih
SciTegic.value.DoubleValue
0.000

@<SCITEGIC>MOL_PROPERTY
Tether
SciTegic.value.DoubleValue
0.000

@<TRIPOS>MOLECULE
guest-s19_confgen4.mol2 : confsearch ligand conformer 94
          17          16           1
SMALL
USER_CHARGES
 
@<TRIPOS>ATOM
       1    C1      17.078223   18.803476   20.278323 C.2        1 MOL1         0.6173
       2    O1      16.719258   19.931154   19.995693 O.co2      1 MOL1        -0.6755
       3    O2      16.358360   17.831578   20.156186 O.co2      1 MOL1        -0.6755
       4    C2      18.454757   18.578681   20.796767 C.2        1 MOL1        -0.1504
       5    H1      18.711699   17.547853   21.029752 H          1 MOL1         0.0814
       6    C3      19.360261   19.565677   20.983817 C.2        1 MOL1        -0.1394
       7    H2      19.112625   20.602220   20.755719 H          1 MOL1         0.0817
       8    C4      20.757661   19.328741   21.513321 C.3        1 MOL1        -0.1849
       9    H3      21.421313   20.135398   21.173824 H          1 MOL1         0.0736
      10    H4      21.162980   18.395469   21.099164 H          1 MOL1         0.0736
      11    C5      20.771125   19.263468   23.054287 C.3        1 MOL1        -0.1866
      12    H5      20.367323   20.198812   23.466163 H          1 MOL1         0.0738
      13    H6      20.110725   18.454152   23.395519 H          1 MOL1         0.0738
      14    C6      22.193546   19.031387   23.602357 C.3        1 MOL1        -0.2879
      15    H7      22.867922   19.844015   23.301886 H          1 MOL1         0.0750
      16    H8      22.183056   18.987924   24.699230 H          1 MOL1         0.0750
      17    H9      22.608659   18.085727   23.229737 H          1 MOL1         0.0750
@<TRIPOS>BOND
    1     1     2    1
    2     1     3    2
    3     1     4    1
    4     4     5    1
    5     4     6    2
    6     6     7    1
    7     6     8    1
    8     8     9    1
    9     8    10    1
   10     8    11    1
   11    11    12    1
   12    11    13    1
   13    11    14    1
   14    14    15    1
   15    14    16    1
   16    14    17    1
@<TRIPOS>SUBSTRUCTURE
       1 MOL1            1 RESIDUE      1      MOL     
@<SCITEGIC>MOL_PROPERTY
VConf Rank
SciTegic.value.IntegerValue
94

@<SCITEGIC>MOL_PROPERTY
Conf_Id
SciTegic.value.IntegerValue
1

@<SCITEGIC>MOL_PROPERTY
Delta U+W
SciTegic.value.DoubleValue
0.030

@<SCITEGIC>MOL_PROPERTY
U+W
SciTegic.value.DoubleValue
-53.378

@<SCITEGIC>MOL_PROPERTY
Grad RMS
SciTegic.value.DoubleValue
0.000000

@<SCITEGIC>MOL_PROPERTY
U
SciTegic.value.DoubleValue
9.048

@<SCITEGIC>MOL_PROPERTY
W
SciTegic.value.DoubleValue
-62.426

@<SCITEGIC>MOL_PROPERTY
W(PB)
SciTegic.value.DoubleValue
-64.506

@<SCITEGIC>MOL_PROPERTY
W(SA)
SciTegic.value.DoubleValue
2.080

@<SCITEGIC>MOL_PROPERTY
Valence
SciTegic.value.DoubleValue
2.652

@<SCITEGIC>MOL_PROPERTY
Coulomb
SciTegic.value.DoubleValue
5.578

@<SCITEGIC>MOL_PROPERTY
VdW
SciTegic.value.DoubleValue
0.818

@<SCITEGIC>MOL_PROPERTY
VdW6
SciTegic.value.DoubleValue
-4.535

@<SCITEGIC>MOL_PROPERTY
VdW12
SciTegic.value.DoubleValue
5.352

@<SCITEGIC>MOL_PROPERTY
Bond
SciTegic.value.DoubleValue
0.063

@<SCITEGIC>MOL_PROPERTY
Angle
SciTegic.value.DoubleValue
2.579

@<SCITEGIC>MOL_PROPERTY
Pdih
SciTegic.value.DoubleValue
0.010

@<SCITEGIC>MOL_PROPERTY
Idih
SciTegic.value.DoubleValue
0.000

@<SCITEGIC>MOL_PROPERTY
Tether
SciTegic.value.DoubleValue
0.000

@<TRIPOS>MOLECULE
guest-s19_confgen4.mol2 : confsearch ligand conformer 95
          17          16           1
SMALL
USER_CHARGES
 
@<TRIPOS>ATOM
       1    C1      22.733303   20.410217   22.659338 C.2        1 MOL1         0.6173
       2    O1      22.569740   21.497089   22.137422 O.co2      1 MOL1        -0.6755
       3    O2      23.628293   20.186377   23.450982 O.co2      1 MOL1        -0.6755
       4    C2      21.812793   19.289184   22.327621 C.2        1 MOL1        -0.1504
       5    H1      22.015105   18.344936   22.827848 H          1 MOL1         0.0814
       6    C3      20.775380   19.395502   21.466542 C.2        1 MOL1        -0.1394
       7    H2      20.561604   20.337737   20.962468 H          1 MOL1         0.0817
       8    C4      19.840256   18.251035   21.136768 C.3        1 MOL1        -0.1849
       9    H3      20.417021   17.321781   21.035006 H          1 MOL1         0.0736
      10    H4      19.366595   18.425737   20.161361 H          1 MOL1         0.0736
      11    C5      18.749606   18.054658   22.212630 C.3        1 MOL1        -0.1866
      12    H5      18.170233   17.151592   21.976088 H          1 MOL1         0.0738
      13    H6      19.220553   17.878388   23.189648 H          1 MOL1         0.0738
      14    C6      17.789362   19.259446   22.308174 C.3        1 MOL1        -0.2879
      15    H7      17.297092   19.446612   21.344959 H          1 MOL1         0.0750
      16    H8      17.008868   19.072369   23.057000 H          1 MOL1         0.0750
      17    H9      18.325753   20.171140   22.601978 H          1 MOL1         0.0750
@<TRIPOS>BOND
    1     1     2    1
    2     1     3    2
    3     1     4    1
    4     4     5    1
    5     4     6    2
    6     6     7    1
    7     6     8    1
    8     8     9    1
    9     8    10    1
   10     8    11    1
   11    11    12    1
   12    11    13    1
   13    11    14    1
   14    14    15    1
   15    14    16    1
   16    14    17    1
@<TRIPOS>SUBSTRUCTURE
       1 MOL1            1 RESIDUE      1      MOL     
@<SCITEGIC>MOL_PROPERTY
VConf Rank
SciTegic.value.IntegerValue
95

@<SCITEGIC>MOL_PROPERTY
Conf_Id
SciTegic.value.IntegerValue
3

@<SCITEGIC>MOL_PROPERTY
Delta U+W
SciTegic.value.DoubleValue
0.531

@<SCITEGIC>MOL_PROPERTY
U+W
SciTegic.value.DoubleValue
-52.878

@<SCITEGIC>MOL_PROPERTY
Grad RMS
SciTegic.value.DoubleValue
0.000000

@<SCITEGIC>MOL_PROPERTY
U
SciTegic.value.DoubleValue
10.067

@<SCITEGIC>MOL_PROPERTY
W
SciTegic.value.DoubleValue
-62.945

@<SCITEGIC>MOL_PROPERTY
W(PB)
SciTegic.value.DoubleValue
-64.982

@<SCITEGIC>MOL_PROPERTY
W(SA)
SciTegic.value.DoubleValue
2.037

@<SCITEGIC>MOL_PROPERTY
Valence
SciTegic.value.DoubleValue
2.779

@<SCITEGIC>MOL_PROPERTY
Coulomb
SciTegic.value.DoubleValue
6.474

@<SCITEGIC>MOL_PROPERTY
VdW
SciTegic.value.DoubleValue
0.815

@<SCITEGIC>MOL_PROPERTY
VdW6
SciTegic.value.DoubleValue
-5.088

@<SCITEGIC>MOL_PROPERTY
VdW12
SciTegic.value.DoubleValue
5.902

@<SCITEGIC>MOL_PROPERTY
Bond
SciTegic.value.DoubleValue
0.078

@<SCITEGIC>MOL_PROPERTY
Angle
SciTegic.value.DoubleValue
2.651

@<SCITEGIC>MOL_PROPERTY
Pdih
SciTegic.value.DoubleValue
0.050

@<SCITEGIC>MOL_PROPERTY
Idih
SciTegic.value.DoubleValue
0.000

@<SCITEGIC>MOL_PROPERTY
Tether
SciTegic.value.DoubleValue
0.000

@<TRIPOS>MOLECULE
guest-s19_confgen4.mol2 : confsearch ligand conformer 96
          17          16           1
SMALL
USER_CHARGES
 
@<TRIPOS>ATOM
       1    C1      19.560980   20.463256   19.414738 C.2        1 MOL1         0.6173
       2    O1      19.476613   19.980827   18.302117 O.co2      1 MOL1        -0.6755
       3    O2      19.847750   21.629695   19.608720 O.co2      1 MOL1        -0.6755
       4    C2      19.294261   19.568974   20.573700 C.2        1 MOL1        -0.1504
       5    H1      19.043583   18.539220   20.329826 H          1 MOL1         0.0814
       6    C3      19.354217   19.969704   21.864205 C.2        1 MOL1        -0.1394
       7    H2      19.608221   20.998702   22.117509 H          1 MOL1         0.0817
       8    C4      19.084844   19.056211   23.042045 C.3        1 MOL1        -0.1849
       9    H3      18.550640   18.153227   22.716491 H          1 MOL1         0.0736
      10    H4      18.416881   19.568399   23.747381 H          1 MOL1         0.0736
      11    C5      20.380343   18.654719   23.780728 C.3        1 MOL1        -0.1866
      12    H5      20.916692   19.557495   24.104431 H          1 MOL1         0.0738
      13    H6      20.116267   18.102520   24.693164 H          1 MOL1         0.0738
      14    C6      21.310891   17.779093   22.914593 C.3        1 MOL1        -0.2879
      15    H7      21.648748   18.322231   22.022457 H          1 MOL1         0.0750
      16    H8      22.200795   17.481081   23.483914 H          1 MOL1         0.0750
      17    H9      20.797152   16.866367   22.585813 H          1 MOL1         0.0750
@<TRIPOS>BOND
    1     1     2    1
    2     1     3    2
    3     1     4    1
    4     4     5    1
    5     4     6    2
    6     6     7    1
    7     6     8    1
    8     8     9    1
    9     8    10    1
   10     8    11    1
   11    11    12    1
   12    11    13    1
   13    11    14    1
   14    14    15    1
   15    14    16    1
   16    14    17    1
@<TRIPOS>SUBSTRUCTURE
       1 MOL1            1 RESIDUE      1      MOL     
@<SCITEGIC>MOL_PROPERTY
VConf Rank
SciTegic.value.IntegerValue
96

@<SCITEGIC>MOL_PROPERTY
Conf_Id
SciTegic.value.IntegerValue
45

@<SCITEGIC>MOL_PROPERTY
Delta U+W
SciTegic.value.DoubleValue
0.562

@<SCITEGIC>MOL_PROPERTY
U+W
SciTegic.value.DoubleValue
-52.846

@<SCITEGIC>MOL_PROPERTY
Grad RMS
SciTegic.value.DoubleValue
0.000000

@<SCITEGIC>MOL_PROPERTY
U
SciTegic.value.DoubleValue
10.243

@<SCITEGIC>MOL_PROPERTY
W
SciTegic.value.DoubleValue
-63.089

@<SCITEGIC>MOL_PROPERTY
W(PB)
SciTegic.value.DoubleValue
-65.116

@<SCITEGIC>MOL_PROPERTY
W(SA)
SciTegic.value.DoubleValue
2.026

@<SCITEGIC>MOL_PROPERTY
Valence
SciTegic.value.DoubleValue
2.822

@<SCITEGIC>MOL_PROPERTY
Coulomb
SciTegic.value.DoubleValue
6.637

@<SCITEGIC>MOL_PROPERTY
VdW
SciTegic.value.DoubleValue
0.785

@<SCITEGIC>MOL_PROPERTY
VdW6
SciTegic.value.DoubleValue
-5.216

@<SCITEGIC>MOL_PROPERTY
VdW12
SciTegic.value.DoubleValue
6.001

@<SCITEGIC>MOL_PROPERTY
Bond
SciTegic.value.DoubleValue
0.080

@<SCITEGIC>MOL_PROPERTY
Angle
SciTegic.value.DoubleValue
2.678

@<SCITEGIC>MOL_PROPERTY
Pdih
SciTegic.value.DoubleValue
0.064

@<SCITEGIC>MOL_PROPERTY
Idih
SciTegic.value.DoubleValue
0.000

@<SCITEGIC>MOL_PROPERTY
Tether
SciTegic.value.DoubleValue
0.000

@<TRIPOS>MOLECULE
guest-s19_confgen4.mol2 : confsearch ligand conformer 97
          17          16           1
SMALL
USER_CHARGES
 
@<TRIPOS>ATOM
       1    C1      20.731669   15.844682   22.259756 C.2        1 MOL1         0.6173
       2    O1      21.813302   15.291437   22.218612 O.co2      1 MOL1        -0.6755
       3    O2      19.677554   15.238798   22.213492 O.co2      1 MOL1        -0.6755
       4    C2      20.722172   17.328331   22.373144 C.2        1 MOL1        -0.1504
       5    H1      21.697728   17.807762   22.409804 H          1 MOL1         0.0814
       6    C3      19.594454   18.072890   22.427633 C.2        1 MOL1        -0.1394
       7    H2      18.611849   17.603008   22.389284 H          1 MOL1         0.0817
       8    C4      19.593559   19.581678   22.540755 C.3        1 MOL1        -0.1849
       9    H3      20.402288   19.908727   23.208441 H          1 MOL1         0.0736
      10    H4      18.653939   19.915423   23.001315 H          1 MOL1         0.0736
      11    C5      19.756900   20.248796   21.159709 C.3        1 MOL1        -0.1866
      12    H5      20.698672   19.919151   20.699316 H          1 MOL1         0.0738
      13    H6      18.945771   19.921755   20.494366 H          1 MOL1         0.0738
      14    C6      19.747514   21.787072   21.265282 C.3        1 MOL1        -0.2879
      15    H7      18.802457   22.145822   21.693764 H          1 MOL1         0.0750
      16    H8      20.569088   22.142212   21.901150 H          1 MOL1         0.0750
      17    H9      19.864837   22.243493   20.273796 H          1 MOL1         0.0750
@<TRIPOS>BOND
    1     1     2    1
    2     1     3    2
    3     1     4    1
    4     4     5    1
    5     4     6    2
    6     6     7    1
    7     6     8    1
    8     8     9    1
    9     8    10    1
   10     8    11    1
   11    11    12    1
   12    11    13    1
   13    11    14    1
   14    14    15    1
   15    14    16    1
   16    14    17    1
@<TRIPOS>SUBSTRUCTURE
       1 MOL1            1 RESIDUE      1      MOL     
@<SCITEGIC>MOL_PROPERTY
VConf Rank
SciTegic.value.IntegerValue
97

@<SCITEGIC>MOL_PROPERTY
Conf_Id
SciTegic.value.IntegerValue
36

@<SCITEGIC>MOL_PROPERTY
Delta U+W
SciTegic.value.DoubleValue
0.000

@<SCITEGIC>MOL_PROPERTY
U+W
SciTegic.value.DoubleValue
-53.409

@<SCITEGIC>MOL_PROPERTY
Grad RMS
SciTegic.value.DoubleValue
0.000000

@<SCITEGIC>MOL_PROPERTY
U
SciTegic.value.DoubleValue
9.048

@<SCITEGIC>MOL_PROPERTY
W
SciTegic.value.DoubleValue
-62.457

@<SCITEGIC>MOL_PROPERTY
W(PB)
SciTegic.value.DoubleValue
-64.540

@<SCITEGIC>MOL_PROPERTY
W(SA)
SciTegic.value.DoubleValue
2.084

@<SCITEGIC>MOL_PROPERTY
Valence
SciTegic.value.DoubleValue
2.652

@<SCITEGIC>MOL_PROPERTY
Coulomb
SciTegic.value.DoubleValue
5.578

@<SCITEGIC>MOL_PROPERTY
VdW
SciTegic.value.DoubleValue
0.818

@<SCITEGIC>MOL_PROPERTY
VdW6
SciTegic.value.DoubleValue
-4.534

@<SCITEGIC>MOL_PROPERTY
VdW12
SciTegic.value.DoubleValue
5.352

@<SCITEGIC>MOL_PROPERTY
Bond
SciTegic.value.DoubleValue
0.063

@<SCITEGIC>MOL_PROPERTY
Angle
SciTegic.value.DoubleValue
2.579

@<SCITEGIC>MOL_PROPERTY
Pdih
SciTegic.value.DoubleValue
0.010

@<SCITEGIC>MOL_PROPERTY
Idih
SciTegic.value.DoubleValue
0.000

@<SCITEGIC>MOL_PROPERTY
Tether
SciTegic.value.DoubleValue
0.000

@<TRIPOS>MOLECULE
guest-s19_confgen4.mol2 : confsearch ligand conformer 98
          17          16           1
SMALL
USER_CHARGES
 
@<TRIPOS>ATOM
       1    C1      19.042497   18.962910   18.686165 C.2        1 MOL1         0.6173
       2    O1      19.895363   19.539487   18.037650 O.co2      1 MOL1        -0.6755
       3    O2      17.972333   18.626427   18.217940 O.co2      1 MOL1        -0.6755
       4    C2      19.297968   18.643395   20.116832 C.2        1 MOL1        -0.1504
       5    H1      18.495197   18.127382   20.638558 H          1 MOL1         0.0814
       6    C3      20.441179   18.958647   20.767040 C.2        1 MOL1        -0.1394
       7    H2      21.251021   19.477548   20.254525 H          1 MOL1         0.0817
       8    C4      20.692273   18.631694   22.222820 C.3        1 MOL1        -0.1849
       9    H3      21.773640   18.566859   22.404011 H          1 MOL1         0.0736
      10    H4      20.275370   17.644180   22.463263 H          1 MOL1         0.0736
      11    C5      20.076178   19.697193   23.152419 C.3        1 MOL1        -0.1866
      12    H5      20.496295   20.683606   22.911464 H          1 MOL1         0.0738
      13    H6      18.993505   19.760447   22.975284 H          1 MOL1         0.0738
      14    C6      20.335771   19.376016   24.638011 C.3        1 MOL1        -0.2879
      15    H7      21.412448   19.338170   24.849589 H          1 MOL1         0.0750
      16    H8      19.890484   20.144386   25.283346 H          1 MOL1         0.0750
      17    H9      19.897970   18.407387   24.912826 H          1 MOL1         0.0750
@<TRIPOS>BOND
    1     1     2    1
    2     1     3    2
    3     1     4    1
    4     4     5    1
    5     4     6    2
    6     6     7    1
    7     6     8    1
    8     8     9    1
    9     8    10    1
   10     8    11    1
   11    11    12    1
   12    11    13    1
   13    11    14    1
   14    14    15    1
   15    14    16    1
   16    14    17    1
@<TRIPOS>SUBSTRUCTURE
       1 MOL1            1 RESIDUE      1      MOL     
@<SCITEGIC>MOL_PROPERTY
VConf Rank
SciTegic.value.IntegerValue
98

@<SCITEGIC>MOL_PROPERTY
Conf_Id
SciTegic.value.IntegerValue
1

@<SCITEGIC>MOL_PROPERTY
Delta U+W
SciTegic.value.DoubleValue
0.030

@<SCITEGIC>MOL_PROPERTY
U+W
SciTegic.value.DoubleValue
-53.378

@<SCITEGIC>MOL_PROPERTY
Grad RMS
SciTegic.value.DoubleValue
0.000000

@<SCITEGIC>MOL_PROPERTY
U
SciTegic.value.DoubleValue
9.048

@<SCITEGIC>MOL_PROPERTY
W
SciTegic.value.DoubleValue
-62.426

@<SCITEGIC>MOL_PROPERTY
W(PB)
SciTegic.value.DoubleValue
-64.506

@<SCITEGIC>MOL_PROPERTY
W(SA)
SciTegic.value.DoubleValue
2.080

@<SCITEGIC>MOL_PROPERTY
Valence
SciTegic.value.DoubleValue
2.652

@<SCITEGIC>MOL_PROPERTY
Coulomb
SciTegic.value.DoubleValue
5.578

@<SCITEGIC>MOL_PROPERTY
VdW
SciTegic.value.DoubleValue
0.818

@<SCITEGIC>MOL_PROPERTY
VdW6
SciTegic.value.DoubleValue
-4.535

@<SCITEGIC>MOL_PROPERTY
VdW12
SciTegic.value.DoubleValue
5.352

@<SCITEGIC>MOL_PROPERTY
Bond
SciTegic.value.DoubleValue
0.063

@<SCITEGIC>MOL_PROPERTY
Angle
SciTegic.value.DoubleValue
2.579

@<SCITEGIC>MOL_PROPERTY
Pdih
SciTegic.value.DoubleValue
0.010

@<SCITEGIC>MOL_PROPERTY
Idih
SciTegic.value.DoubleValue
0.000

@<SCITEGIC>MOL_PROPERTY
Tether
SciTegic.value.DoubleValue
0.000

@<TRIPOS>MOLECULE
guest-s19_confgen4.mol2 : confsearch ligand conformer 99
          17          16           1
SMALL
USER_CHARGES
 
@<TRIPOS>ATOM
       1    C1      21.289010   16.365389   22.735275 C.2        1 MOL1         0.6173
       2    O1      22.449179   16.586011   22.442400 O.co2      1 MOL1        -0.6755
       3    O2      20.948816   15.415526   23.413389 O.co2      1 MOL1        -0.6755
       4    C2      20.221350   17.281903   22.251336 C.2        1 MOL1        -0.1504
       5    H1      19.206541   17.027074   22.547960 H          1 MOL1         0.0814
       6    C3      20.454671   18.375950   21.491330 C.2        1 MOL1        -0.1394
       7    H2      21.467854   18.642427   21.191250 H          1 MOL1         0.0817
       8    C4      19.363161   19.306418   21.005689 C.3        1 MOL1        -0.1849
       9    H3      18.489949   18.718124   20.692738 H          1 MOL1         0.0736
      10    H4      19.704119   19.847069   20.112528 H          1 MOL1         0.0736
      11    C5      18.929641   20.319216   22.088215 C.3        1 MOL1        -0.1866
      12    H5      18.069153   20.893733   21.718560 H          1 MOL1         0.0738
      13    H6      18.586747   19.781133   22.982819 H          1 MOL1         0.0738
      14    C6      20.061594   21.296300   22.471232 C.3        1 MOL1        -0.2879
      15    H7      20.411845   21.854973   21.593534 H          1 MOL1         0.0750
      16    H8      19.709693   22.021490   23.216331 H          1 MOL1         0.0750
      17    H9      20.918232   20.761061   22.901245 H          1 MOL1         0.0750
@<TRIPOS>BOND
    1     1     2    1
    2     1     3    2
    3     1     4    1
    4     4     5    1
    5     4     6    2
    6     6     7    1
    7     6     8    1
    8     8     9    1
    9     8    10    1
   10     8    11    1
   11    11    12    1
   12    11    13    1
   13    11    14    1
   14    14    15    1
   15    14    16    1
   16    14    17    1
@<TRIPOS>SUBSTRUCTURE
       1 MOL1            1 RESIDUE      1      MOL     
@<SCITEGIC>MOL_PROPERTY
VConf Rank
SciTegic.value.IntegerValue
99

@<SCITEGIC>MOL_PROPERTY
Conf_Id
SciTegic.value.IntegerValue
3

@<SCITEGIC>MOL_PROPERTY
Delta U+W
SciTegic.value.DoubleValue
0.531

@<SCITEGIC>MOL_PROPERTY
U+W
SciTegic.value.DoubleValue
-52.878

@<SCITEGIC>MOL_PROPERTY
Grad RMS
SciTegic.value.DoubleValue
0.000000

@<SCITEGIC>MOL_PROPERTY
U
SciTegic.value.DoubleValue
10.067

@<SCITEGIC>MOL_PROPERTY
W
SciTegic.value.DoubleValue
-62.945

@<SCITEGIC>MOL_PROPERTY
W(PB)
SciTegic.value.DoubleValue
-64.982

@<SCITEGIC>MOL_PROPERTY
W(SA)
SciTegic.value.DoubleValue
2.037

@<SCITEGIC>MOL_PROPERTY
Valence
SciTegic.value.DoubleValue
2.779

@<SCITEGIC>MOL_PROPERTY
Coulomb
SciTegic.value.DoubleValue
6.474

@<SCITEGIC>MOL_PROPERTY
VdW
SciTegic.value.DoubleValue
0.815

@<SCITEGIC>MOL_PROPERTY
VdW6
SciTegic.value.DoubleValue
-5.088

@<SCITEGIC>MOL_PROPERTY
VdW12
SciTegic.value.DoubleValue
5.902

@<SCITEGIC>MOL_PROPERTY
Bond
SciTegic.value.DoubleValue
0.078

@<SCITEGIC>MOL_PROPERTY
Angle
SciTegic.value.DoubleValue
2.651

@<SCITEGIC>MOL_PROPERTY
Pdih
SciTegic.value.DoubleValue
0.050

@<SCITEGIC>MOL_PROPERTY
Idih
SciTegic.value.DoubleValue
0.000

@<SCITEGIC>MOL_PROPERTY
Tether
SciTegic.value.DoubleValue
0.000

@<TRIPOS>MOLECULE
guest-s19_confgen4.mol2 : confsearch ligand conformer 100
          17          16           1
SMALL
USER_CHARGES
 
@<TRIPOS>ATOM
       1    C1      21.869182   21.306157   22.894255 C.2        1 MOL1         0.6173
       2    O1      22.296237   22.240621   22.244500 O.co2      1 MOL1        -0.6755
       3    O2      22.417024   20.896363   23.900430 O.co2      1 MOL1        -0.6755
       4    C2      20.618854   20.653624   22.419965 C.2        1 MOL1        -0.1504
       5    H1      20.181244   21.069158   21.515236 H          1 MOL1         0.0814
       6    C3      20.033581   19.604683   23.041869 C.2        1 MOL1        -0.1394
       7    H2      20.467396   19.179869   23.946775 H          1 MOL1         0.0817
       8    C4      18.762164   18.940740   22.555026 C.3        1 MOL1        -0.1849
       9    H3      18.232405   19.592673   21.847157 H          1 MOL1         0.0736
      10    H4      18.083152   18.799132   23.406437 H          1 MOL1         0.0736
      11    C5      19.031838   17.570197   21.896199 C.3        1 MOL1        -0.1866
      12    H5      19.564106   16.918309   22.602733 H          1 MOL1         0.0738
      13    H6      18.071916   17.081226   21.680201 H          1 MOL1         0.0738
      14    C6      19.841233   17.689420   20.587192 C.3        1 MOL1        -0.2879
      15    H7      20.835377   18.116017   20.773592 H          1 MOL1         0.0750
      16    H8      19.979714   16.702248   20.127648 H          1 MOL1         0.0750
      17    H9      19.323455   18.331283   19.862615 H          1 MOL1         0.0750
@<TRIPOS>BOND
    1     1     2    1
    2     1     3    2
    3     1     4    1
    4     4     5    1
    5     4     6    2
    6     6     7    1
    7     6     8    1
    8     8     9    1
    9     8    10    1
   10     8    11    1
   11    11    12    1
   12    11    13    1
   13    11    14    1
   14    14    15    1
   15    14    16    1
   16    14    17    1
@<TRIPOS>SUBSTRUCTURE
       1 MOL1            1 RESIDUE      1      MOL     
@<SCITEGIC>MOL_PROPERTY
VConf Rank
SciTegic.value.IntegerValue
100

@<SCITEGIC>MOL_PROPERTY
Conf_Id
SciTegic.value.IntegerValue
45

@<SCITEGIC>MOL_PROPERTY
Delta U+W
SciTegic.value.DoubleValue
0.562

@<SCITEGIC>MOL_PROPERTY
U+W
SciTegic.value.DoubleValue
-52.846

@<SCITEGIC>MOL_PROPERTY
Grad RMS
SciTegic.value.DoubleValue
0.000000

@<SCITEGIC>MOL_PROPERTY
U
SciTegic.value.DoubleValue
10.243

@<SCITEGIC>MOL_PROPERTY
W
SciTegic.value.DoubleValue
-63.089

@<SCITEGIC>MOL_PROPERTY
W(PB)
SciTegic.value.DoubleValue
-65.116

@<SCITEGIC>MOL_PROPERTY
W(SA)
SciTegic.value.DoubleValue
2.026

@<SCITEGIC>MOL_PROPERTY
Valence
SciTegic.value.DoubleValue
2.822

@<SCITEGIC>MOL_PROPERTY
Coulomb
SciTegic.value.DoubleValue
6.637

@<SCITEGIC>MOL_PROPERTY
VdW
SciTegic.value.DoubleValue
0.785

@<SCITEGIC>MOL_PROPERTY
VdW6
SciTegic.value.DoubleValue
-5.216

@<SCITEGIC>MOL_PROPERTY
VdW12
SciTegic.value.DoubleValue
6.001

@<SCITEGIC>MOL_PROPERTY
Bond
SciTegic.value.DoubleValue
0.080

@<SCITEGIC>MOL_PROPERTY
Angle
SciTegic.value.DoubleValue
2.678

@<SCITEGIC>MOL_PROPERTY
Pdih
SciTegic.value.DoubleValue
0.064

@<SCITEGIC>MOL_PROPERTY
Idih
SciTegic.value.DoubleValue
0.000

@<SCITEGIC>MOL_PROPERTY
Tether
SciTegic.value.DoubleValue
0.000

@<TRIPOS>MOLECULE
guest-s19_confgen4.mol2 : confsearch ligand conformer 101
          17          16           1
SMALL
USER_CHARGES
 
@<TRIPOS>ATOM
       1    C1      17.079541   18.558340   20.308546 C.2        1 MOL1         0.6173
       2    O1      16.154820   19.320561   20.104549 O.co2      1 MOL1        -0.6755
       3    O2      16.993223   17.355932   20.143746 O.co2      1 MOL1        -0.6755
       4    C2      18.363536   19.145385   20.778541 C.2        1 MOL1        -0.1504
       5    H1      18.373299   20.225549   20.905265 H          1 MOL1         0.0814
       6    C3      19.471937   18.417867   21.045472 C.2        1 MOL1        -0.1394
       7    H2      19.472454   17.334788   20.924182 H          1 MOL1         0.0817
       8    C4      20.773268   19.022528   21.525222 C.3        1 MOL1        -0.1849
       9    H3      20.953422   19.978914   21.015635 H          1 MOL1         0.0736
      10    H4      21.607816   18.361940   21.254037 H          1 MOL1         0.0736
      11    C5      20.762496   19.240240   23.052147 C.3        1 MOL1        -0.1866
      12    H5      19.930543   19.904410   23.324709 H          1 MOL1         0.0738
      13    H6      20.584192   18.281998   23.559639 H          1 MOL1         0.0738
      14    C6      22.089234   19.847653   23.550486 C.3        1 MOL1        -0.2879
      15    H7      22.935295   19.187440   23.318686 H          1 MOL1         0.0750
      16    H8      22.276003   20.822291   23.080770 H          1 MOL1         0.0750
      17    H9      22.062672   19.995202   24.637986 H          1 MOL1         0.0750
@<TRIPOS>BOND
    1     1     2    1
    2     1     3    2
    3     1     4    1
    4     4     5    1
    5     4     6    2
    6     6     7    1
    7     6     8    1
    8     8     9    1
    9     8    10    1
   10     8    11    1
   11    11    12    1
   12    11    13    1
   13    11    14    1
   14    14    15    1
   15    14    16    1
   16    14    17    1
@<TRIPOS>SUBSTRUCTURE
       1 MOL1            1 RESIDUE      1      MOL     
@<SCITEGIC>MOL_PROPERTY
VConf Rank
SciTegic.value.IntegerValue
101

@<SCITEGIC>MOL_PROPERTY
Conf_Id
SciTegic.value.IntegerValue
36

@<SCITEGIC>MOL_PROPERTY
Delta U+W
SciTegic.value.DoubleValue
0.000

@<SCITEGIC>MOL_PROPERTY
U+W
SciTegic.value.DoubleValue
-53.409

@<SCITEGIC>MOL_PROPERTY
Grad RMS
SciTegic.value.DoubleValue
0.000000

@<SCITEGIC>MOL_PROPERTY
U
SciTegic.value.DoubleValue
9.048

@<SCITEGIC>MOL_PROPERTY
W
SciTegic.value.DoubleValue
-62.457

@<SCITEGIC>MOL_PROPERTY
W(PB)
SciTegic.value.DoubleValue
-64.540

@<SCITEGIC>MOL_PROPERTY
W(SA)
SciTegic.value.DoubleValue
2.084

@<SCITEGIC>MOL_PROPERTY
Valence
SciTegic.value.DoubleValue
2.652

@<SCITEGIC>MOL_PROPERTY
Coulomb
SciTegic.value.DoubleValue
5.578

@<SCITEGIC>MOL_PROPERTY
VdW
SciTegic.value.DoubleValue
0.818

@<SCITEGIC>MOL_PROPERTY
VdW6
SciTegic.value.DoubleValue
-4.534

@<SCITEGIC>MOL_PROPERTY
VdW12
SciTegic.value.DoubleValue
5.352

@<SCITEGIC>MOL_PROPERTY
Bond
SciTegic.value.DoubleValue
0.063

@<SCITEGIC>MOL_PROPERTY
Angle
SciTegic.value.DoubleValue
2.579

@<SCITEGIC>MOL_PROPERTY
Pdih
SciTegic.value.DoubleValue
0.010

@<SCITEGIC>MOL_PROPERTY
Idih
SciTegic.value.DoubleValue
0.000

@<SCITEGIC>MOL_PROPERTY
Tether
SciTegic.value.DoubleValue
0.000

@<TRIPOS>MOLECULE
guest-s19_confgen4.mol2 : confsearch ligand conformer 102
          17          16           1
SMALL
USER_CHARGES
 
@<TRIPOS>ATOM
       1    C1      17.079473   17.798421   22.957138 C.2        1 MOL1         0.6173
       2    O1      17.324510   17.106803   23.927713 O.co2      1 MOL1        -0.6755
       3    O2      15.998504   17.796229   22.401075 O.co2      1 MOL1        -0.6755
       4    C2      18.132635   18.695565   22.409283 C.2        1 MOL1        -0.1504
       5    H1      17.848442   19.286435   21.541518 H          1 MOL1         0.0814
       6    C3      19.378333   18.798733   22.925691 C.2        1 MOL1        -0.1394
       7    H2      19.674341   18.209748   23.793591 H          1 MOL1         0.0817
       8    C4      20.444201   19.712307   22.361292 C.3        1 MOL1        -0.1849
       9    H3      21.167550   19.963909   23.148597 H          1 MOL1         0.0736
      10    H4      19.993207   20.660006   22.036828 H          1 MOL1         0.0736
      11    C5      21.179445   19.053145   21.176412 C.3        1 MOL1        -0.1866
      12    H5      21.631475   18.106594   21.503942 H          1 MOL1         0.0738
      13    H6      20.457657   18.804475   20.386004 H          1 MOL1         0.0738
      14    C6      22.273936   19.974478   20.601293 C.3        1 MOL1        -0.2879
      15    H7      23.027082   20.213357   21.363618 H          1 MOL1         0.0750
      16    H8      22.785518   19.488894   19.760090 H          1 MOL1         0.0750
      17    H9      21.843182   20.916633   20.237659 H          1 MOL1         0.0750
@<TRIPOS>BOND
    1     1     2    1
    2     1     3    2
    3     1     4    1
    4     4     5    1
    5     4     6    2
    6     6     7    1
    7     6     8    1
    8     8     9    1
    9     8    10    1
   10     8    11    1
   11    11    12    1
   12    11    13    1
   13    11    14    1
   14    14    15    1
   15    14    16    1
   16    14    17    1
@<TRIPOS>SUBSTRUCTURE
       1 MOL1            1 RESIDUE      1      MOL     
@<SCITEGIC>MOL_PROPERTY
VConf Rank
SciTegic.value.IntegerValue
102

@<SCITEGIC>MOL_PROPERTY
Conf_Id
SciTegic.value.IntegerValue
1

@<SCITEGIC>MOL_PROPERTY
Delta U+W
SciTegic.value.DoubleValue
0.030

@<SCITEGIC>MOL_PROPERTY
U+W
SciTegic.value.DoubleValue
-53.378

@<SCITEGIC>MOL_PROPERTY
Grad RMS
SciTegic.value.DoubleValue
0.000000

@<SCITEGIC>MOL_PROPERTY
U
SciTegic.value.DoubleValue
9.048

@<SCITEGIC>MOL_PROPERTY
W
SciTegic.value.DoubleValue
-62.426

@<SCITEGIC>MOL_PROPERTY
W(PB)
SciTegic.value.DoubleValue
-64.506

@<SCITEGIC>MOL_PROPERTY
W(SA)
SciTegic.value.DoubleValue
2.080

@<SCITEGIC>MOL_PROPERTY
Valence
SciTegic.value.DoubleValue
2.652

@<SCITEGIC>MOL_PROPERTY
Coulomb
SciTegic.value.DoubleValue
5.578

@<SCITEGIC>MOL_PROPERTY
VdW
SciTegic.value.DoubleValue
0.818

@<SCITEGIC>MOL_PROPERTY
VdW6
SciTegic.value.DoubleValue
-4.535

@<SCITEGIC>MOL_PROPERTY
VdW12
SciTegic.value.DoubleValue
5.352

@<SCITEGIC>MOL_PROPERTY
Bond
SciTegic.value.DoubleValue
0.063

@<SCITEGIC>MOL_PROPERTY
Angle
SciTegic.value.DoubleValue
2.579

@<SCITEGIC>MOL_PROPERTY
Pdih
SciTegic.value.DoubleValue
0.010

@<SCITEGIC>MOL_PROPERTY
Idih
SciTegic.value.DoubleValue
0.000

@<SCITEGIC>MOL_PROPERTY
Tether
SciTegic.value.DoubleValue
0.000

@<TRIPOS>MOLECULE
guest-s19_confgen4.mol2 : confsearch ligand conformer 103
          17          16           1
SMALL
USER_CHARGES
 
@<TRIPOS>ATOM
       1    C1      18.421058   17.958827   24.433573 C.2        1 MOL1         0.6173
       2    O1      18.976658   16.886400   24.580711 O.co2      1 MOL1        -0.6755
       3    O2      17.695898   18.447617   25.277989 O.co2      1 MOL1        -0.6755
       4    C2      18.619415   18.722835   23.172210 C.2        1 MOL1        -0.1504
       5    H1      18.093832   19.672561   23.104804 H          1 MOL1         0.0814
       6    C3      19.398279   18.301093   22.150206 C.2        1 MOL1        -0.1394
       7    H2      19.932039   17.352785   22.208590 H          1 MOL1         0.0817
       8    C4      19.598490   19.086059   20.870847 C.3        1 MOL1        -0.1849
       9    H3      18.643352   19.528351   20.556818 H          1 MOL1         0.0736
      10    H4      19.903005   18.408796   20.061601 H          1 MOL1         0.0736
      11    C5      20.648479   20.207850   21.027909 C.3        1 MOL1        -0.1866
      12    H5      20.674613   20.806816   20.107197 H          1 MOL1         0.0738
      13    H6      20.345862   20.887927   21.836208 H          1 MOL1         0.0738
      14    C6      22.062665   19.658616   21.312745 C.3        1 MOL1        -0.2879
      15    H7      22.391403   18.985315   20.510411 H          1 MOL1         0.0750
      16    H8      22.788027   20.479310   21.384987 H          1 MOL1         0.0750
      17    H9      22.088480   19.102641   22.259026 H          1 MOL1         0.0750
@<TRIPOS>BOND
    1     1     2    1
    2     1     3    2
    3     1     4    1
    4     4     5    1
    5     4     6    2
    6     6     7    1
    7     6     8    1
    8     8     9    1
    9     8    10    1
   10     8    11    1
   11    11    12    1
   12    11    13    1
   13    11    14    1
   14    14    15    1
   15    14    16    1
   16    14    17    1
@<TRIPOS>SUBSTRUCTURE
       1 MOL1            1 RESIDUE      1      MOL     
@<SCITEGIC>MOL_PROPERTY
VConf Rank
SciTegic.value.IntegerValue
103

@<SCITEGIC>MOL_PROPERTY
Conf_Id
SciTegic.value.IntegerValue
3

@<SCITEGIC>MOL_PROPERTY
Delta U+W
SciTegic.value.DoubleValue
0.531

@<SCITEGIC>MOL_PROPERTY
U+W
SciTegic.value.DoubleValue
-52.878

@<SCITEGIC>MOL_PROPERTY
Grad RMS
SciTegic.value.DoubleValue
0.000000

@<SCITEGIC>MOL_PROPERTY
U
SciTegic.value.DoubleValue
10.067

@<SCITEGIC>MOL_PROPERTY
W
SciTegic.value.DoubleValue
-62.945

@<SCITEGIC>MOL_PROPERTY
W(PB)
SciTegic.value.DoubleValue
-64.982

@<SCITEGIC>MOL_PROPERTY
W(SA)
SciTegic.value.DoubleValue
2.037

@<SCITEGIC>MOL_PROPERTY
Valence
SciTegic.value.DoubleValue
2.779

@<SCITEGIC>MOL_PROPERTY
Coulomb
SciTegic.value.DoubleValue
6.474

@<SCITEGIC>MOL_PROPERTY
VdW
SciTegic.value.DoubleValue
0.815

@<SCITEGIC>MOL_PROPERTY
VdW6
SciTegic.value.DoubleValue
-5.088

@<SCITEGIC>MOL_PROPERTY
VdW12
SciTegic.value.DoubleValue
5.902

@<SCITEGIC>MOL_PROPERTY
Bond
SciTegic.value.DoubleValue
0.078

@<SCITEGIC>MOL_PROPERTY
Angle
SciTegic.value.DoubleValue
2.651

@<SCITEGIC>MOL_PROPERTY
Pdih
SciTegic.value.DoubleValue
0.050

@<SCITEGIC>MOL_PROPERTY
Idih
SciTegic.value.DoubleValue
0.000

@<SCITEGIC>MOL_PROPERTY
Tether
SciTegic.value.DoubleValue
0.000

@<TRIPOS>MOLECULE
guest-s19_confgen4.mol2 : confsearch ligand conformer 104
          17          16           1
SMALL
USER_CHARGES
 
@<TRIPOS>ATOM
       1    C1      19.303699   17.521238   19.591829 C.2        1 MOL1         0.6173
       2    O1      18.796835   16.421336   19.486550 O.co2      1 MOL1        -0.6755
       3    O2      19.959094   18.034014   18.704154 O.co2      1 MOL1        -0.6755
       4    C2      19.096686   18.253932   20.870256 C.2        1 MOL1        -0.1504
       5    H1      18.501577   17.738762   21.620691 H          1 MOL1         0.0814
       6    C3      19.603241   19.481847   21.125623 C.2        1 MOL1        -0.1394
       7    H2      20.203633   20.003516   20.380701 H          1 MOL1         0.0817
       8    C4      19.393054   20.224064   22.429184 C.3        1 MOL1        -0.1849
       9    H3      18.552878   19.791290   22.989141 H          1 MOL1         0.0736
      10    H4      19.110612   21.262206   22.208965 H          1 MOL1         0.0736
      11    C5      20.659447   20.226362   23.313158 C.3        1 MOL1        -0.1866
      12    H5      21.501058   20.656709   22.752844 H          1 MOL1         0.0738
      13    H6      20.491093   20.881609   24.178898 H          1 MOL1         0.0738
      14    C6      21.035669   18.816072   23.815523 C.3        1 MOL1        -0.2879
      15    H7      21.274547   18.147845   22.977989 H          1 MOL1         0.0750
      16    H8      21.915109   18.861533   24.470797 H          1 MOL1         0.0750
      17    H9      20.210647   18.369387   24.385527 H          1 MOL1         0.0750
@<TRIPOS>BOND
    1     1     2    1
    2     1     3    2
    3     1     4    1
    4     4     5    1
    5     4     6    2
    6     6     7    1
    7     6     8    1
    8     8     9    1
    9     8    10    1
   10     8    11    1
   11    11    12    1
   12    11    13    1
   13    11    14    1
   14    14    15    1
   15    14    16    1
   16    14    17    1
@<TRIPOS>SUBSTRUCTURE
       1 MOL1            1 RESIDUE      1      MOL     
@<SCITEGIC>MOL_PROPERTY
VConf Rank
SciTegic.value.IntegerValue
104

@<SCITEGIC>MOL_PROPERTY
Conf_Id
SciTegic.value.IntegerValue
45

@<SCITEGIC>MOL_PROPERTY
Delta U+W
SciTegic.value.DoubleValue
0.562

@<SCITEGIC>MOL_PROPERTY
U+W
SciTegic.value.DoubleValue
-52.846

@<SCITEGIC>MOL_PROPERTY
Grad RMS
SciTegic.value.DoubleValue
0.000000

@<SCITEGIC>MOL_PROPERTY
U
SciTegic.value.DoubleValue
10.243

@<SCITEGIC>MOL_PROPERTY
W
SciTegic.value.DoubleValue
-63.089

@<SCITEGIC>MOL_PROPERTY
W(PB)
SciTegic.value.DoubleValue
-65.116

@<SCITEGIC>MOL_PROPERTY
W(SA)
SciTegic.value.DoubleValue
2.026

@<SCITEGIC>MOL_PROPERTY
Valence
SciTegic.value.DoubleValue
2.822

@<SCITEGIC>MOL_PROPERTY
Coulomb
SciTegic.value.DoubleValue
6.637

@<SCITEGIC>MOL_PROPERTY
VdW
SciTegic.value.DoubleValue
0.785

@<SCITEGIC>MOL_PROPERTY
VdW6
SciTegic.value.DoubleValue
-5.216

@<SCITEGIC>MOL_PROPERTY
VdW12
SciTegic.value.DoubleValue
6.001

@<SCITEGIC>MOL_PROPERTY
Bond
SciTegic.value.DoubleValue
0.080

@<SCITEGIC>MOL_PROPERTY
Angle
SciTegic.value.DoubleValue
2.678

@<SCITEGIC>MOL_PROPERTY
Pdih
SciTegic.value.DoubleValue
0.064

@<SCITEGIC>MOL_PROPERTY
Idih
SciTegic.value.DoubleValue
0.000

@<SCITEGIC>MOL_PROPERTY
Tether
SciTegic.value.DoubleValue
0.000

@<TRIPOS>MOLECULE
guest-s19_confgen4.mol2 : confsearch ligand conformer 105
          17          16           1
SMALL
USER_CHARGES
 
@<TRIPOS>ATOM
       1    C1      21.465896   19.026950   24.946789 C.2        1 MOL1         0.6173
       2    O1      21.328147   18.219666   25.845133 O.co2      1 MOL1        -0.6755
       3    O2      22.021786   20.098240   25.100791 O.co2      1 MOL1        -0.6755
       4    C2      20.923828   18.665905   23.608891 C.2        1 MOL1        -0.1504
       5    H1      20.439282   17.694667   23.539467 H          1 MOL1         0.0814
       6    C3      21.004782   19.466363   22.521785 C.2        1 MOL1        -0.1394
       7    H2      21.486005   20.442437   22.580755 H          1 MOL1         0.0817
       8    C4      20.448912   19.092505   21.165144 C.3        1 MOL1        -0.1849
       9    H3      20.615941   18.023993   20.972294 H          1 MOL1         0.0736
      10    H4      20.990842   19.639779   20.382080 H          1 MOL1         0.0736
      11    C5      18.942582   19.409681   21.068271 C.3        1 MOL1        -0.1866
      12    H5      18.398341   18.859572   21.848490 H          1 MOL1         0.0738
      13    H6      18.778288   20.479264   21.259499 H          1 MOL1         0.0738
      14    C6      18.370283   19.040181   19.684989 C.3        1 MOL1        -0.2879
      15    H7      18.876036   19.600834   18.887923 H          1 MOL1         0.0750
      16    H8      18.494240   17.968304   19.482134 H          1 MOL1         0.0750
      17    H9      17.298561   19.272695   19.635184 H          1 MOL1         0.0750
@<TRIPOS>BOND
    1     1     2    1
    2     1     3    2
    3     1     4    1
    4     4     5    1
    5     4     6    2
    6     6     7    1
    7     6     8    1
    8     8     9    1
    9     8    10    1
   10     8    11    1
   11    11    12    1
   12    11    13    1
   13    11    14    1
   14    14    15    1
   15    14    16    1
   16    14    17    1
@<TRIPOS>SUBSTRUCTURE
       1 MOL1            1 RESIDUE      1      MOL     
@<SCITEGIC>MOL_PROPERTY
VConf Rank
SciTegic.value.IntegerValue
105

@<SCITEGIC>MOL_PROPERTY
Conf_Id
SciTegic.value.IntegerValue
36

@<SCITEGIC>MOL_PROPERTY
Delta U+W
SciTegic.value.DoubleValue
0.000

@<SCITEGIC>MOL_PROPERTY
U+W
SciTegic.value.DoubleValue
-53.409

@<SCITEGIC>MOL_PROPERTY
Grad RMS
SciTegic.value.DoubleValue
0.000000

@<SCITEGIC>MOL_PROPERTY
U
SciTegic.value.DoubleValue
9.048

@<SCITEGIC>MOL_PROPERTY
W
SciTegic.value.DoubleValue
-62.457

@<SCITEGIC>MOL_PROPERTY
W(PB)
SciTegic.value.DoubleValue
-64.540

@<SCITEGIC>MOL_PROPERTY
W(SA)
SciTegic.value.DoubleValue
2.084

@<SCITEGIC>MOL_PROPERTY
Valence
SciTegic.value.DoubleValue
2.652

@<SCITEGIC>MOL_PROPERTY
Coulomb
SciTegic.value.DoubleValue
5.578

@<SCITEGIC>MOL_PROPERTY
VdW
SciTegic.value.DoubleValue
0.818

@<SCITEGIC>MOL_PROPERTY
VdW6
SciTegic.value.DoubleValue
-4.534

@<SCITEGIC>MOL_PROPERTY
VdW12
SciTegic.value.DoubleValue
5.352

@<SCITEGIC>MOL_PROPERTY
Bond
SciTegic.value.DoubleValue
0.063

@<SCITEGIC>MOL_PROPERTY
Angle
SciTegic.value.DoubleValue
2.579

@<SCITEGIC>MOL_PROPERTY
Pdih
SciTegic.value.DoubleValue
0.010

@<SCITEGIC>MOL_PROPERTY
Idih
SciTegic.value.DoubleValue
0.000

@<SCITEGIC>MOL_PROPERTY
Tether
SciTegic.value.DoubleValue
0.000

@<TRIPOS>MOLECULE
guest-s19_confgen4.mol2 : confsearch ligand conformer 106
          17          16           1
SMALL
USER_CHARGES
 
@<TRIPOS>ATOM
       1    C1      19.774614   19.436686   25.260608 C.2        1 MOL1         0.6173
       2    O1      18.604725   19.268453   25.549487 O.co2      1 MOL1        -0.6755
       3    O2      20.595470   19.859570   26.051221 O.co2      1 MOL1        -0.6755
       4    C2      20.245483   19.116574   23.885845 C.2        1 MOL1        -0.1504
       5    H1      21.301934   19.289519   23.693728 H          1 MOL1         0.0814
       6    C3      19.443625   18.640857   22.906150 C.2        1 MOL1        -0.1394
       7    H2      18.383229   18.465992   23.087136 H          1 MOL1         0.0817
       8    C4      19.930150   18.319583   21.509971 C.3        1 MOL1        -0.1849
       9    H3      19.269198   17.570515   21.053432 H          1 MOL1         0.0736
      10    H4      20.930325   17.867500   21.555548 H          1 MOL1         0.0736
      11    C5      19.969263   19.581690   20.624211 C.3        1 MOL1        -0.1866
      12    H5      18.967380   20.030801   20.578421 H          1 MOL1         0.0738
      13    H6      20.633408   20.330680   21.077517 H          1 MOL1         0.0738
      14    C6      20.455406   19.260988   19.196506 C.3        1 MOL1        -0.2879
      15    H7      19.789914   18.537127   18.708064 H          1 MOL1         0.0750
      16    H8      20.476519   20.170260   18.581764 H          1 MOL1         0.0750
      17    H9      21.468848   18.838938   19.212137 H          1 MOL1         0.0750
@<TRIPOS>BOND
    1     1     2    1
    2     1     3    2
    3     1     4    1
    4     4     5    1
    5     4     6    2
    6     6     7    1
    7     6     8    1
    8     8     9    1
    9     8    10    1
   10     8    11    1
   11    11    12    1
   12    11    13    1
   13    11    14    1
   14    14    15    1
   15    14    16    1
   16    14    17    1
@<TRIPOS>SUBSTRUCTURE
       1 MOL1            1 RESIDUE      1      MOL     
@<SCITEGIC>MOL_PROPERTY
VConf Rank
SciTegic.value.IntegerValue
106

@<SCITEGIC>MOL_PROPERTY
Conf_Id
SciTegic.value.IntegerValue
1

@<SCITEGIC>MOL_PROPERTY
Delta U+W
SciTegic.value.DoubleValue
0.030

@<SCITEGIC>MOL_PROPERTY
U+W
SciTegic.value.DoubleValue
-53.378

@<SCITEGIC>MOL_PROPERTY
Grad RMS
SciTegic.value.DoubleValue
0.000000

@<SCITEGIC>MOL_PROPERTY
U
SciTegic.value.DoubleValue
9.048

@<SCITEGIC>MOL_PROPERTY
W
SciTegic.value.DoubleValue
-62.426

@<SCITEGIC>MOL_PROPERTY
W(PB)
SciTegic.value.DoubleValue
-64.506

@<SCITEGIC>MOL_PROPERTY
W(SA)
SciTegic.value.DoubleValue
2.080

@<SCITEGIC>MOL_PROPERTY
Valence
SciTegic.value.DoubleValue
2.652

@<SCITEGIC>MOL_PROPERTY
Coulomb
SciTegic.value.DoubleValue
5.578

@<SCITEGIC>MOL_PROPERTY
VdW
SciTegic.value.DoubleValue
0.818

@<SCITEGIC>MOL_PROPERTY
VdW6
SciTegic.value.DoubleValue
-4.535

@<SCITEGIC>MOL_PROPERTY
VdW12
SciTegic.value.DoubleValue
5.352

@<SCITEGIC>MOL_PROPERTY
Bond
SciTegic.value.DoubleValue
0.063

@<SCITEGIC>MOL_PROPERTY
Angle
SciTegic.value.DoubleValue
2.579

@<SCITEGIC>MOL_PROPERTY
Pdih
SciTegic.value.DoubleValue
0.010

@<SCITEGIC>MOL_PROPERTY
Idih
SciTegic.value.DoubleValue
0.000

@<SCITEGIC>MOL_PROPERTY
Tether
SciTegic.value.DoubleValue
0.000

@<TRIPOS>MOLECULE
guest-s19_confgen4.mol2 : confsearch ligand conformer 107
          17          16           1
SMALL
USER_CHARGES
 
@<TRIPOS>ATOM
       1    C1      22.966239   19.956908   22.260904 C.2        1 MOL1         0.6173
       2    O1      23.046013   20.173430   23.455557 O.co2      1 MOL1        -0.6755
       3    O2      23.941769   19.830885   21.546572 O.co2      1 MOL1        -0.6755
       4    C2      21.627232   19.840543   21.622461 C.2        1 MOL1        -0.1504
       5    H1      21.626788   19.647588   20.552168 H          1 MOL1         0.0814
       6    C3      20.459297   19.957215   22.294252 C.2        1 MOL1        -0.1394
       7    H2      20.448178   20.147155   23.367284 H          1 MOL1         0.0817
       8    C4      19.100081   19.833705   21.638286 C.3        1 MOL1        -0.1849
       9    H3      19.113108   20.343034   20.665177 H          1 MOL1         0.0736
      10    H4      18.344900   20.351544   22.244783 H          1 MOL1         0.0736
      11    C5      18.677789   18.362165   21.433835 C.3        1 MOL1        -0.1866
      12    H5      17.739625   18.333760   20.862701 H          1 MOL1         0.0738
      13    H6      19.430968   17.841661   20.826195 H          1 MOL1         0.0738
      14    C6      18.478616   17.613086   22.768722 C.3        1 MOL1        -0.2879
      15    H7      17.719913   18.109122   23.387966 H          1 MOL1         0.0750
      16    H8      18.147075   16.582541   22.587154 H          1 MOL1         0.0750
      17    H9      19.413965   17.569456   23.341817 H          1 MOL1         0.0750
@<TRIPOS>BOND
    1     1     2    1
    2     1     3    2
    3     1     4    1
    4     4     5    1
    5     4     6    2
    6     6     7    1
    7     6     8    1
    8     8     9    1
    9     8    10    1
   10     8    11    1
   11    11    12    1
   12    11    13    1
   13    11    14    1
   14    14    15    1
   15    14    16    1
   16    14    17    1
@<TRIPOS>SUBSTRUCTURE
       1 MOL1            1 RESIDUE      1      MOL     
@<SCITEGIC>MOL_PROPERTY
VConf Rank
SciTegic.value.IntegerValue
107

@<SCITEGIC>MOL_PROPERTY
Conf_Id
SciTegic.value.IntegerValue
3

@<SCITEGIC>MOL_PROPERTY
Delta U+W
SciTegic.value.DoubleValue
0.531

@<SCITEGIC>MOL_PROPERTY
U+W
SciTegic.value.DoubleValue
-52.878

@<SCITEGIC>MOL_PROPERTY
Grad RMS
SciTegic.value.DoubleValue
0.000000

@<SCITEGIC>MOL_PROPERTY
U
SciTegic.value.DoubleValue
10.067

@<SCITEGIC>MOL_PROPERTY
W
SciTegic.value.DoubleValue
-62.945

@<SCITEGIC>MOL_PROPERTY
W(PB)
SciTegic.value.DoubleValue
-64.982

@<SCITEGIC>MOL_PROPERTY
W(SA)
SciTegic.value.DoubleValue
2.037

@<SCITEGIC>MOL_PROPERTY
Valence
SciTegic.value.DoubleValue
2.779

@<SCITEGIC>MOL_PROPERTY
Coulomb
SciTegic.value.DoubleValue
6.474

@<SCITEGIC>MOL_PROPERTY
VdW
SciTegic.value.DoubleValue
0.815

@<SCITEGIC>MOL_PROPERTY
VdW6
SciTegic.value.DoubleValue
-5.088

@<SCITEGIC>MOL_PROPERTY
VdW12
SciTegic.value.DoubleValue
5.902

@<SCITEGIC>MOL_PROPERTY
Bond
SciTegic.value.DoubleValue
0.078

@<SCITEGIC>MOL_PROPERTY
Angle
SciTegic.value.DoubleValue
2.651

@<SCITEGIC>MOL_PROPERTY
Pdih
SciTegic.value.DoubleValue
0.050

@<SCITEGIC>MOL_PROPERTY
Idih
SciTegic.value.DoubleValue
0.000

@<SCITEGIC>MOL_PROPERTY
Tether
SciTegic.value.DoubleValue
0.000

@<TRIPOS>MOLECULE
guest-s19_confgen4.mol2 : confsearch ligand conformer 108
          17          16           1
SMALL
USER_CHARGES
 
@<TRIPOS>ATOM
       1    C1      17.945407   20.660589   23.674689 C.2        1 MOL1         0.6173
       2    O1      16.732630   20.665678   23.591468 O.co2      1 MOL1        -0.6755
       3    O2      18.575701   21.564438   24.190668 O.co2      1 MOL1        -0.6755
       4    C2      18.667719   19.485387   23.116801 C.2        1 MOL1        -0.1504
       5    H1      18.044320   18.714160   22.670384 H          1 MOL1         0.0814
       6    C3      20.013179   19.348046   23.138231 C.2        1 MOL1        -0.1394
       7    H2      20.645454   20.117695   23.580258 H          1 MOL1         0.0817
       8    C4      20.745812   18.151696   22.566977 C.3        1 MOL1        -0.1849
       9    H3      20.056890   17.307679   22.426399 H          1 MOL1         0.0736
      10    H4      21.499070   17.813518   23.291026 H          1 MOL1         0.0736
      11    C5      21.447012   18.477368   21.230031 C.3        1 MOL1        -0.1866
      12    H5      22.134409   19.323293   21.369155 H          1 MOL1         0.0738
      13    H6      22.063060   17.618545   20.929857 H          1 MOL1         0.0738
      14    C6      20.447833   18.799515   20.098354 C.3        1 MOL1        -0.2879
      15    H7      19.856467   19.693665   20.334649 H          1 MOL1         0.0750
      16    H8      20.978934   18.986945   19.156192 H          1 MOL1         0.0750
      17    H9      19.754981   17.963504   19.936691 H          1 MOL1         0.0750
@<TRIPOS>BOND
    1     1     2    1
    2     1     3    2
    3     1     4    1
    4     4     5    1
    5     4     6    2
    6     6     7    1
    7     6     8    1
    8     8     9    1
    9     8    10    1
   10     8    11    1
   11    11    12    1
   12    11    13    1
   13    11    14    1
   14    14    15    1
   15    14    16    1
   16    14    17    1
@<TRIPOS>SUBSTRUCTURE
       1 MOL1            1 RESIDUE      1      MOL     
@<SCITEGIC>MOL_PROPERTY
VConf Rank
SciTegic.value.IntegerValue
108

@<SCITEGIC>MOL_PROPERTY
Conf_Id
SciTegic.value.IntegerValue
45

@<SCITEGIC>MOL_PROPERTY
Delta U+W
SciTegic.value.DoubleValue
0.562

@<SCITEGIC>MOL_PROPERTY
U+W
SciTegic.value.DoubleValue
-52.846

@<SCITEGIC>MOL_PROPERTY
Grad RMS
SciTegic.value.DoubleValue
0.000000

@<SCITEGIC>MOL_PROPERTY
U
SciTegic.value.DoubleValue
10.243

@<SCITEGIC>MOL_PROPERTY
W
SciTegic.value.DoubleValue
-63.089

@<SCITEGIC>MOL_PROPERTY
W(PB)
SciTegic.value.DoubleValue
-65.116

@<SCITEGIC>MOL_PROPERTY
W(SA)
SciTegic.value.DoubleValue
2.026

@<SCITEGIC>MOL_PROPERTY
Valence
SciTegic.value.DoubleValue
2.822

@<SCITEGIC>MOL_PROPERTY
Coulomb
SciTegic.value.DoubleValue
6.637

@<SCITEGIC>MOL_PROPERTY
VdW
SciTegic.value.DoubleValue
0.785

@<SCITEGIC>MOL_PROPERTY
VdW6
SciTegic.value.DoubleValue
-5.216

@<SCITEGIC>MOL_PROPERTY
VdW12
SciTegic.value.DoubleValue
6.001

@<SCITEGIC>MOL_PROPERTY
Bond
SciTegic.value.DoubleValue
0.080

@<SCITEGIC>MOL_PROPERTY
Angle
SciTegic.value.DoubleValue
2.678

@<SCITEGIC>MOL_PROPERTY
Pdih
SciTegic.value.DoubleValue
0.064

@<SCITEGIC>MOL_PROPERTY
Idih
SciTegic.value.DoubleValue
0.000

@<SCITEGIC>MOL_PROPERTY
Tether
SciTegic.value.DoubleValue
0.000

@<TRIPOS>MOLECULE
guest-s19_confgen4.mol2 : confsearch ligand conformer 109
          17          16           1
SMALL
USER_CHARGES
 
@<TRIPOS>ATOM
       1    C1      21.415674   17.525270   24.524748 C.2        1 MOL1         0.6173
       2    O1      22.502224   17.708113   25.038247 O.co2      1 MOL1        -0.6755
       3    O2      20.734380   16.543169   24.752149 O.co2      1 MOL1        -0.6755
       4    C2      20.917770   18.562678   23.581330 C.2        1 MOL1        -0.1504
       5    H1      21.575112   19.414496   23.422536 H          1 MOL1         0.0814
       6    C3      19.730098   18.489248   22.938579 C.2        1 MOL1        -0.1394
       7    H2      19.064828   17.639130   23.088543 H          1 MOL1         0.0817
       8    C4      19.232096   19.547695   21.978932 C.3        1 MOL1        -0.1849
       9    H3      19.503009   20.546399   22.347720 H          1 MOL1         0.0736
      10    H4      18.135015   19.517721   21.935303 H          1 MOL1         0.0736
      11    C5      19.810736   19.340552   20.564266 C.3        1 MOL1        -0.1866
      12    H5      20.908329   19.374464   20.605508 H          1 MOL1         0.0738
      13    H6      19.536730   18.341833   20.196775 H          1 MOL1         0.0738
      14    C6      19.300430   20.410019   19.577678 C.3        1 MOL1        -0.2879
      15    H7      18.206268   20.376656   19.493260 H          1 MOL1         0.0750
      16    H8      19.588517   21.417165   19.906462 H          1 MOL1         0.0750
      17    H9      19.722538   20.246429   18.577581 H          1 MOL1         0.0750
@<TRIPOS>BOND
    1     1     2    1
    2     1     3    2
    3     1     4    1
    4     4     5    1
    5     4     6    2
    6     6     7    1
    7     6     8    1
    8     8     9    1
    9     8    10    1
   10     8    11    1
   11    11    12    1
   12    11    13    1
   13    11    14    1
   14    14    15    1
   15    14    16    1
   16    14    17    1
@<TRIPOS>SUBSTRUCTURE
       1 MOL1            1 RESIDUE      1      MOL     
@<SCITEGIC>MOL_PROPERTY
VConf Rank
SciTegic.value.IntegerValue
109

@<SCITEGIC>MOL_PROPERTY
Conf_Id
SciTegic.value.IntegerValue
36

@<SCITEGIC>MOL_PROPERTY
Delta U+W
SciTegic.value.DoubleValue
0.000

@<SCITEGIC>MOL_PROPERTY
U+W
SciTegic.value.DoubleValue
-53.409

@<SCITEGIC>MOL_PROPERTY
Grad RMS
SciTegic.value.DoubleValue
0.000000

@<SCITEGIC>MOL_PROPERTY
U
SciTegic.value.DoubleValue
9.048

@<SCITEGIC>MOL_PROPERTY
W
SciTegic.value.DoubleValue
-62.457

@<SCITEGIC>MOL_PROPERTY
W(PB)
SciTegic.value.DoubleValue
-64.540

@<SCITEGIC>MOL_PROPERTY
W(SA)
SciTegic.value.DoubleValue
2.084

@<SCITEGIC>MOL_PROPERTY
Valence
SciTegic.value.DoubleValue
2.652

@<SCITEGIC>MOL_PROPERTY
Coulomb
SciTegic.value.DoubleValue
5.578

@<SCITEGIC>MOL_PROPERTY
VdW
SciTegic.value.DoubleValue
0.818

@<SCITEGIC>MOL_PROPERTY
VdW6
SciTegic.value.DoubleValue
-4.534

@<SCITEGIC>MOL_PROPERTY
VdW12
SciTegic.value.DoubleValue
5.352

@<SCITEGIC>MOL_PROPERTY
Bond
SciTegic.value.DoubleValue
0.063

@<SCITEGIC>MOL_PROPERTY
Angle
SciTegic.value.DoubleValue
2.579

@<SCITEGIC>MOL_PROPERTY
Pdih
SciTegic.value.DoubleValue
0.010

@<SCITEGIC>MOL_PROPERTY
Idih
SciTegic.value.DoubleValue
0.000

@<SCITEGIC>MOL_PROPERTY
Tether
SciTegic.value.DoubleValue
0.000

@<TRIPOS>MOLECULE
guest-s19_confgen4.mol2 : confsearch ligand conformer 110
          17          16           1
SMALL
USER_CHARGES
 
@<TRIPOS>ATOM
       1    C1      19.844219   21.637708   19.705794 C.2        1 MOL1         0.6173
       2    O1      19.124428   22.485407   20.199455 O.co2      1 MOL1        -0.6755
       3    O2      20.212944   21.677615   18.548143 O.co2      1 MOL1        -0.6755
       4    C2      20.307725   20.493055   20.535912 C.2        1 MOL1        -0.1504
       5    H1      20.948337   19.771514   20.034011 H          1 MOL1         0.0814
       6    C3      19.975299   20.321123   21.835534 C.2        1 MOL1        -0.1394
       7    H2      19.332316   21.036775   22.347577 H          1 MOL1         0.0817
       8    C4      20.449506   19.153068   22.672202 C.3        1 MOL1        -0.1849
       9    H3      20.442916   19.434438   23.733887 H          1 MOL1         0.0736
      10    H4      21.490436   18.908652   22.420147 H          1 MOL1         0.0736
      11    C5      19.557818   17.912284   22.461568 C.3        1 MOL1        -0.1866
      12    H5      18.517643   18.158615   22.716372 H          1 MOL1         0.0738
      13    H6      19.566563   17.626947   21.400405 H          1 MOL1         0.0738
      14    C6      20.029112   16.719882   23.318062 C.3        1 MOL1        -0.2879
      15    H7      19.999815   16.968040   24.387169 H          1 MOL1         0.0750
      16    H8      19.383209   15.847334   23.154969 H          1 MOL1         0.0750
      17    H9      21.057205   16.433277   23.060537 H          1 MOL1         0.0750
@<TRIPOS>BOND
    1     1     2    1
    2     1     3    2
    3     1     4    1
    4     4     5    1
    5     4     6    2
    6     6     7    1
    7     6     8    1
    8     8     9    1
    9     8    10    1
   10     8    11    1
   11    11    12    1
   12    11    13    1
   13    11    14    1
   14    14    15    1
   15    14    16    1
   16    14    17    1
@<TRIPOS>SUBSTRUCTURE
       1 MOL1            1 RESIDUE      1      MOL     
@<SCITEGIC>MOL_PROPERTY
VConf Rank
SciTegic.value.IntegerValue
110

@<SCITEGIC>MOL_PROPERTY
Conf_Id
SciTegic.value.IntegerValue
1

@<SCITEGIC>MOL_PROPERTY
Delta U+W
SciTegic.value.DoubleValue
0.030

@<SCITEGIC>MOL_PROPERTY
U+W
SciTegic.value.DoubleValue
-53.378

@<SCITEGIC>MOL_PROPERTY
Grad RMS
SciTegic.value.DoubleValue
0.000000

@<SCITEGIC>MOL_PROPERTY
U
SciTegic.value.DoubleValue
9.048

@<SCITEGIC>MOL_PROPERTY
W
SciTegic.value.DoubleValue
-62.426

@<SCITEGIC>MOL_PROPERTY
W(PB)
SciTegic.value.DoubleValue
-64.506

@<SCITEGIC>MOL_PROPERTY
W(SA)
SciTegic.value.DoubleValue
2.080

@<SCITEGIC>MOL_PROPERTY
Valence
SciTegic.value.DoubleValue
2.652

@<SCITEGIC>MOL_PROPERTY
Coulomb
SciTegic.value.DoubleValue
5.578

@<SCITEGIC>MOL_PROPERTY
VdW
SciTegic.value.DoubleValue
0.818

@<SCITEGIC>MOL_PROPERTY
VdW6
SciTegic.value.DoubleValue
-4.535

@<SCITEGIC>MOL_PROPERTY
VdW12
SciTegic.value.DoubleValue
5.352

@<SCITEGIC>MOL_PROPERTY
Bond
SciTegic.value.DoubleValue
0.063

@<SCITEGIC>MOL_PROPERTY
Angle
SciTegic.value.DoubleValue
2.579

@<SCITEGIC>MOL_PROPERTY
Pdih
SciTegic.value.DoubleValue
0.010

@<SCITEGIC>MOL_PROPERTY
Idih
SciTegic.value.DoubleValue
0.000

@<SCITEGIC>MOL_PROPERTY
Tether
SciTegic.value.DoubleValue
0.000

@<TRIPOS>MOLECULE
guest-s19_confgen4.mol2 : confsearch ligand conformer 111
          17          16           1
SMALL
USER_CHARGES
 
@<TRIPOS>ATOM
       1    C1      22.141267   20.472894   20.298915 C.2        1 MOL1         0.6173
       2    O1      21.761874   20.141657   19.191312 O.co2      1 MOL1        -0.6755
       3    O2      22.936876   21.373641   20.481865 O.co2      1 MOL1        -0.6755
       4    C2      21.625969   19.757059   21.497306 C.2        1 MOL1        -0.1504
       5    H1      22.005885   20.102041   22.456165 H          1 MOL1         0.0814
       6    C3      20.737819   18.738626   21.442821 C.2        1 MOL1        -0.1394
       7    H2      20.348137   18.387240   20.487690 H          1 MOL1         0.0817
       8    C4      20.214842   18.017298   22.667237 C.3        1 MOL1        -0.1849
       9    H3      21.034631   17.862637   23.381766 H          1 MOL1         0.0736
      10    H4      19.859941   17.016357   22.387140 H          1 MOL1         0.0736
      11    C5      19.075402   18.792850   23.364202 C.3        1 MOL1        -0.1866
      12    H5      18.809789   18.278631   24.298109 H          1 MOL1         0.0738
      13    H6      19.427923   19.794495   23.646802 H          1 MOL1         0.0738
      14    C6      17.816112   18.915224   22.479936 C.3        1 MOL1        -0.2879
      15    H7      17.438301   17.924551   22.195381 H          1 MOL1         0.0750
      16    H8      17.016679   19.441242   23.017634 H          1 MOL1         0.0750
      17    H9      18.030110   19.477356   21.561550 H          1 MOL1         0.0750
@<TRIPOS>BOND
    1     1     2    1
    2     1     3    2
    3     1     4    1
    4     4     5    1
    5     4     6    2
    6     6     7    1
    7     6     8    1
    8     8     9    1
    9     8    10    1
   10     8    11    1
   11    11    12    1
   12    11    13    1
   13    11    14    1
   14    14    15    1
   15    14    16    1
   16    14    17    1
@<TRIPOS>SUBSTRUCTURE
       1 MOL1            1 RESIDUE      1      MOL     
@<SCITEGIC>MOL_PROPERTY
VConf Rank
SciTegic.value.IntegerValue
111

@<SCITEGIC>MOL_PROPERTY
Conf_Id
SciTegic.value.IntegerValue
3

@<SCITEGIC>MOL_PROPERTY
Delta U+W
SciTegic.value.DoubleValue
0.531

@<SCITEGIC>MOL_PROPERTY
U+W
SciTegic.value.DoubleValue
-52.878

@<SCITEGIC>MOL_PROPERTY
Grad RMS
SciTegic.value.DoubleValue
0.000000

@<SCITEGIC>MOL_PROPERTY
U
SciTegic.value.DoubleValue
10.067

@<SCITEGIC>MOL_PROPERTY
W
SciTegic.value.DoubleValue
-62.945

@<SCITEGIC>MOL_PROPERTY
W(PB)
SciTegic.value.DoubleValue
-64.982

@<SCITEGIC>MOL_PROPERTY
W(SA)
SciTegic.value.DoubleValue
2.037

@<SCITEGIC>MOL_PROPERTY
Valence
SciTegic.value.DoubleValue
2.779

@<SCITEGIC>MOL_PROPERTY
Coulomb
SciTegic.value.DoubleValue
6.474

@<SCITEGIC>MOL_PROPERTY
VdW
SciTegic.value.DoubleValue
0.815

@<SCITEGIC>MOL_PROPERTY
VdW6
SciTegic.value.DoubleValue
-5.088

@<SCITEGIC>MOL_PROPERTY
VdW12
SciTegic.value.DoubleValue
5.902

@<SCITEGIC>MOL_PROPERTY
Bond
SciTegic.value.DoubleValue
0.078

@<SCITEGIC>MOL_PROPERTY
Angle
SciTegic.value.DoubleValue
2.651

@<SCITEGIC>MOL_PROPERTY
Pdih
SciTegic.value.DoubleValue
0.050

@<SCITEGIC>MOL_PROPERTY
Idih
SciTegic.value.DoubleValue
0.000

@<SCITEGIC>MOL_PROPERTY
Tether
SciTegic.value.DoubleValue
0.000

@<TRIPOS>MOLECULE
guest-s19_confgen4.mol2 : confsearch ligand conformer 112
          17          16           1
SMALL
USER_CHARGES
 
@<TRIPOS>ATOM
       1    C1      22.649881   20.492648   22.258506 C.2        1 MOL1         0.6173
       2    O1      23.006078   21.391889   22.994895 O.co2      1 MOL1        -0.6755
       3    O2      23.213080   20.234394   21.211338 O.co2      1 MOL1        -0.6755
       4    C2      21.473375   19.684758   22.679479 C.2        1 MOL1        -0.1504
       5    H1      21.017582   19.968541   23.625220 H          1 MOL1         0.0814
       6    C3      20.967594   18.657885   21.958852 C.2        1 MOL1        -0.1394
       7    H2      21.415915   18.369296   21.008462 H          1 MOL1         0.0817
       8    C4      19.768006   17.839034   22.388744 C.3        1 MOL1        -0.1849
       9    H3      19.569517   17.977548   23.460264 H          1 MOL1         0.0736
      10    H4      19.995578   16.772945   22.255798 H          1 MOL1         0.0736
      11    C5      18.500526   18.185546   21.577208 C.3        1 MOL1        -0.1866
      12    H5      18.699028   18.049790   20.505001 H          1 MOL1         0.0738
      13    H6      17.701880   17.478396   21.840458 H          1 MOL1         0.0738
      14    C6      18.004105   19.624017   21.836432 C.3        1 MOL1        -0.2879
      15    H7      18.752776   20.363733   21.524399 H          1 MOL1         0.0750
      16    H8      17.081985   19.821320   21.274619 H          1 MOL1         0.0750
      17    H9      17.791974   19.779979   22.902156 H          1 MOL1         0.0750
@<TRIPOS>BOND
    1     1     2    1
    2     1     3    2
    3     1     4    1
    4     4     5    1
    5     4     6    2
    6     6     7    1
    7     6     8    1
    8     8     9    1
    9     8    10    1
   10     8    11    1
   11    11    12    1
   12    11    13    1
   13    11    14    1
   14    14    15    1
   15    14    16    1
   16    14    17    1
@<TRIPOS>SUBSTRUCTURE
       1 MOL1            1 RESIDUE      1      MOL     
@<SCITEGIC>MOL_PROPERTY
VConf Rank
SciTegic.value.IntegerValue
112

@<SCITEGIC>MOL_PROPERTY
Conf_Id
SciTegic.value.IntegerValue
45

@<SCITEGIC>MOL_PROPERTY
Delta U+W
SciTegic.value.DoubleValue
0.562

@<SCITEGIC>MOL_PROPERTY
U+W
SciTegic.value.DoubleValue
-52.846

@<SCITEGIC>MOL_PROPERTY
Grad RMS
SciTegic.value.DoubleValue
0.000000

@<SCITEGIC>MOL_PROPERTY
U
SciTegic.value.DoubleValue
10.243

@<SCITEGIC>MOL_PROPERTY
W
SciTegic.value.DoubleValue
-63.089

@<SCITEGIC>MOL_PROPERTY
W(PB)
SciTegic.value.DoubleValue
-65.116

@<SCITEGIC>MOL_PROPERTY
W(SA)
SciTegic.value.DoubleValue
2.026

@<SCITEGIC>MOL_PROPERTY
Valence
SciTegic.value.DoubleValue
2.822

@<SCITEGIC>MOL_PROPERTY
Coulomb
SciTegic.value.DoubleValue
6.637

@<SCITEGIC>MOL_PROPERTY
VdW
SciTegic.value.DoubleValue
0.785

@<SCITEGIC>MOL_PROPERTY
VdW6
SciTegic.value.DoubleValue
-5.216

@<SCITEGIC>MOL_PROPERTY
VdW12
SciTegic.value.DoubleValue
6.001

@<SCITEGIC>MOL_PROPERTY
Bond
SciTegic.value.DoubleValue
0.080

@<SCITEGIC>MOL_PROPERTY
Angle
SciTegic.value.DoubleValue
2.678

@<SCITEGIC>MOL_PROPERTY
Pdih
SciTegic.value.DoubleValue
0.064

@<SCITEGIC>MOL_PROPERTY
Idih
SciTegic.value.DoubleValue
0.000

@<SCITEGIC>MOL_PROPERTY
Tether
SciTegic.value.DoubleValue
0.000

@<TRIPOS>MOLECULE
guest-s19_confgen4.mol2 : confsearch ligand conformer 113
          17          16           1
SMALL
USER_CHARGES
 
@<TRIPOS>ATOM
       1    C1      21.977252   21.843702   22.015104 C.2        1 MOL1         0.6173
       2    O1      23.139107   21.937266   22.360130 O.co2      1 MOL1        -0.6755
       3    O2      21.256485   22.810382   21.852566 O.co2      1 MOL1        -0.6755
       4    C2      21.435957   20.476660   21.786290 C.2        1 MOL1        -0.1504
       5    H1      22.132221   19.657131   21.949071 H          1 MOL1         0.0814
       6    C3      20.164045   20.224163   21.402141 C.2        1 MOL1        -0.1394
       7    H2      19.457464   21.037642   21.238536 H          1 MOL1         0.0817
       8    C4      19.620824   18.830622   21.173685 C.3        1 MOL1        -0.1849
       9    H3      20.386225   18.202490   20.697848 H          1 MOL1         0.0736
      10    H4      18.774798   18.875671   20.474687 H          1 MOL1         0.0736
      11    C5      19.163615   18.181950   22.496258 C.3        1 MOL1        -0.1866
      12    H5      20.010046   18.132285   23.195291 H          1 MOL1         0.0738
      13    H6      18.396668   18.810950   22.969246 H          1 MOL1         0.0738
      14    C6      18.599760   16.764653   22.270725 C.3        1 MOL1        -0.2879
      15    H7      17.731297   16.789429   21.599465 H          1 MOL1         0.0750
      16    H8      19.357896   16.106339   21.826555 H          1 MOL1         0.0750
      17    H9      18.280091   16.319702   23.222020 H          1 MOL1         0.0750
@<TRIPOS>BOND
    1     1     2    1
    2     1     3    2
    3     1     4    1
    4     4     5    1
    5     4     6    2
    6     6     7    1
    7     6     8    1
    8     8     9    1
    9     8    10    1
   10     8    11    1
   11    11    12    1
   12    11    13    1
   13    11    14    1
   14    14    15    1
   15    14    16    1
   16    14    17    1
@<TRIPOS>SUBSTRUCTURE
       1 MOL1            1 RESIDUE      1      MOL     
@<SCITEGIC>MOL_PROPERTY
VConf Rank
SciTegic.value.IntegerValue
113

@<SCITEGIC>MOL_PROPERTY
Conf_Id
SciTegic.value.IntegerValue
36

@<SCITEGIC>MOL_PROPERTY
Delta U+W
SciTegic.value.DoubleValue
0.000

@<SCITEGIC>MOL_PROPERTY
U+W
SciTegic.value.DoubleValue
-53.409

@<SCITEGIC>MOL_PROPERTY
Grad RMS
SciTegic.value.DoubleValue
0.000000

@<SCITEGIC>MOL_PROPERTY
U
SciTegic.value.DoubleValue
9.048

@<SCITEGIC>MOL_PROPERTY
W
SciTegic.value.DoubleValue
-62.457

@<SCITEGIC>MOL_PROPERTY
W(PB)
SciTegic.value.DoubleValue
-64.540

@<SCITEGIC>MOL_PROPERTY
W(SA)
SciTegic.value.DoubleValue
2.084

@<SCITEGIC>MOL_PROPERTY
Valence
SciTegic.value.DoubleValue
2.652

@<SCITEGIC>MOL_PROPERTY
Coulomb
SciTegic.value.DoubleValue
5.578

@<SCITEGIC>MOL_PROPERTY
VdW
SciTegic.value.DoubleValue
0.818

@<SCITEGIC>MOL_PROPERTY
VdW6
SciTegic.value.DoubleValue
-4.534

@<SCITEGIC>MOL_PROPERTY
VdW12
SciTegic.value.DoubleValue
5.352

@<SCITEGIC>MOL_PROPERTY
Bond
SciTegic.value.DoubleValue
0.063

@<SCITEGIC>MOL_PROPERTY
Angle
SciTegic.value.DoubleValue
2.579

@<SCITEGIC>MOL_PROPERTY
Pdih
SciTegic.value.DoubleValue
0.010

@<SCITEGIC>MOL_PROPERTY
Idih
SciTegic.value.DoubleValue
0.000

@<SCITEGIC>MOL_PROPERTY
Tether
SciTegic.value.DoubleValue
0.000

@<TRIPOS>MOLECULE
guest-s19_confgen4.mol2 : confsearch ligand conformer 114
          17          16           1
SMALL
USER_CHARGES
 
@<TRIPOS>ATOM
       1    C1      18.754265   20.959708   24.424969 C.2        1 MOL1         0.6173
       2    O1      19.275570   20.567074   25.451845 O.co2      1 MOL1        -0.6755
       3    O2      17.811657   21.727233   24.414918 O.co2      1 MOL1        -0.6755
       4    C2      19.276649   20.495152   23.111399 C.2        1 MOL1        -0.1504
       5    H1      18.766030   20.883806   22.233262 H          1 MOL1         0.0814
       6    C3      20.316990   19.642149   22.972970 C.2        1 MOL1        -0.1394
       7    H2      20.834364   19.244982   23.846100 H          1 MOL1         0.0817
       8    C4      20.840892   19.173159   21.633263 C.3        1 MOL1        -0.1849
       9    H3      21.894173   18.878149   21.733043 H          1 MOL1         0.0736
      10    H4      20.814979   19.999396   20.909752 H          1 MOL1         0.0736
      11    C5      20.020516   17.983398   21.094311 C.3        1 MOL1        -0.1866
      12    H5      20.049736   17.157550   21.818664 H          1 MOL1         0.0738
      13    H6      18.967049   18.278161   20.989996 H          1 MOL1         0.0738
      14    C6      20.554067   17.493409   19.733150 C.3        1 MOL1        -0.2879
      15    H7      21.597596   17.162373   19.816174 H          1 MOL1         0.0750
      16    H8      19.958452   16.647448   19.366104 H          1 MOL1         0.0750
      17    H9      20.506506   18.292585   18.981823 H          1 MOL1         0.0750
@<TRIPOS>BOND
    1     1     2    1
    2     1     3    2
    3     1     4    1
    4     4     5    1
    5     4     6    2
    6     6     7    1
    7     6     8    1
    8     8     9    1
    9     8    10    1
   10     8    11    1
   11    11    12    1
   12    11    13    1
   13    11    14    1
   14    14    15    1
   15    14    16    1
   16    14    17    1
@<TRIPOS>SUBSTRUCTURE
       1 MOL1            1 RESIDUE      1      MOL     
@<SCITEGIC>MOL_PROPERTY
VConf Rank
SciTegic.value.IntegerValue
114

@<SCITEGIC>MOL_PROPERTY
Conf_Id
SciTegic.value.IntegerValue
1

@<SCITEGIC>MOL_PROPERTY
Delta U+W
SciTegic.value.DoubleValue
0.030

@<SCITEGIC>MOL_PROPERTY
U+W
SciTegic.value.DoubleValue
-53.378

@<SCITEGIC>MOL_PROPERTY
Grad RMS
SciTegic.value.DoubleValue
0.000000

@<SCITEGIC>MOL_PROPERTY
U
SciTegic.value.DoubleValue
9.048

@<SCITEGIC>MOL_PROPERTY
W
SciTegic.value.DoubleValue
-62.426

@<SCITEGIC>MOL_PROPERTY
W(PB)
SciTegic.value.DoubleValue
-64.506

@<SCITEGIC>MOL_PROPERTY
W(SA)
SciTegic.value.DoubleValue
2.080

@<SCITEGIC>MOL_PROPERTY
Valence
SciTegic.value.DoubleValue
2.652

@<SCITEGIC>MOL_PROPERTY
Coulomb
SciTegic.value.DoubleValue
5.578

@<SCITEGIC>MOL_PROPERTY
VdW
SciTegic.value.DoubleValue
0.818

@<SCITEGIC>MOL_PROPERTY
VdW6
SciTegic.value.DoubleValue
-4.535

@<SCITEGIC>MOL_PROPERTY
VdW12
SciTegic.value.DoubleValue
5.352

@<SCITEGIC>MOL_PROPERTY
Bond
SciTegic.value.DoubleValue
0.063

@<SCITEGIC>MOL_PROPERTY
Angle
SciTegic.value.DoubleValue
2.579

@<SCITEGIC>MOL_PROPERTY
Pdih
SciTegic.value.DoubleValue
0.010

@<SCITEGIC>MOL_PROPERTY
Idih
SciTegic.value.DoubleValue
0.000

@<SCITEGIC>MOL_PROPERTY
Tether
SciTegic.value.DoubleValue
0.000

@<TRIPOS>MOLECULE
guest-s19_confgen4.mol2 : confsearch ligand conformer 115
          17          16           1
SMALL
USER_CHARGES
 
@<TRIPOS>ATOM
       1    C1      18.359901   21.461889   20.992200 C.2        1 MOL1         0.6173
       2    O1      18.816783   22.365666   21.666652 O.co2      1 MOL1        -0.6755
       3    O2      17.695408   21.655314   19.992777 O.co2      1 MOL1        -0.6755
       4    C2      18.608719   20.049666   21.389448 C.2        1 MOL1        -0.1504
       5    H1      18.171645   19.291011   20.744336 H          1 MOL1         0.0814
       6    C3      19.330186   19.687973   22.474644 C.2        1 MOL1        -0.1394
       7    H2      19.775397   20.439813   23.125889 H          1 MOL1         0.0817
       8    C4      19.582506   18.248319   22.870554 C.3        1 MOL1        -0.1849
       9    H3      18.667445   17.659411   22.720966 H          1 MOL1         0.0736
      10    H4      19.811394   18.191210   23.943235 H          1 MOL1         0.0736
      11    C5      20.733327   17.609645   22.062304 C.3        1 MOL1        -0.1866
      12    H5      20.800602   16.542508   22.314982 H          1 MOL1         0.0738
      13    H6      20.506574   17.664181   20.988508 H          1 MOL1         0.0738
      14    C6      22.095185   18.280837   22.340796 C.3        1 MOL1        -0.2879
      15    H7      22.348658   18.227026   23.407567 H          1 MOL1         0.0750
      16    H8      22.893863   17.781627   21.777050 H          1 MOL1         0.0750
      17    H9      22.083965   19.337702   22.043926 H          1 MOL1         0.0750
@<TRIPOS>BOND
    1     1     2    1
    2     1     3    2
    3     1     4    1
    4     4     5    1
    5     4     6    2
    6     6     7    1
    7     6     8    1
    8     8     9    1
    9     8    10    1
   10     8    11    1
   11    11    12    1
   12    11    13    1
   13    11    14    1
   14    14    15    1
   15    14    16    1
   16    14    17    1
@<TRIPOS>SUBSTRUCTURE
       1 MOL1            1 RESIDUE      1      MOL     
@<SCITEGIC>MOL_PROPERTY
VConf Rank
SciTegic.value.IntegerValue
115

@<SCITEGIC>MOL_PROPERTY
Conf_Id
SciTegic.value.IntegerValue
3

@<SCITEGIC>MOL_PROPERTY
Delta U+W
SciTegic.value.DoubleValue
0.531

@<SCITEGIC>MOL_PROPERTY
U+W
SciTegic.value.DoubleValue
-52.878

@<SCITEGIC>MOL_PROPERTY
Grad RMS
SciTegic.value.DoubleValue
0.000000

@<SCITEGIC>MOL_PROPERTY
U
SciTegic.value.DoubleValue
10.067

@<SCITEGIC>MOL_PROPERTY
W
SciTegic.value.DoubleValue
-62.945

@<SCITEGIC>MOL_PROPERTY
W(PB)
SciTegic.value.DoubleValue
-64.982

@<SCITEGIC>MOL_PROPERTY
W(SA)
SciTegic.value.DoubleValue
2.037

@<SCITEGIC>MOL_PROPERTY
Valence
SciTegic.value.DoubleValue
2.779

@<SCITEGIC>MOL_PROPERTY
Coulomb
SciTegic.value.DoubleValue
6.474

@<SCITEGIC>MOL_PROPERTY
VdW
SciTegic.value.DoubleValue
0.815

@<SCITEGIC>MOL_PROPERTY
VdW6
SciTegic.value.DoubleValue
-5.088

@<SCITEGIC>MOL_PROPERTY
VdW12
SciTegic.value.DoubleValue
5.902

@<SCITEGIC>MOL_PROPERTY
Bond
SciTegic.value.DoubleValue
0.078

@<SCITEGIC>MOL_PROPERTY
Angle
SciTegic.value.DoubleValue
2.651

@<SCITEGIC>MOL_PROPERTY
Pdih
SciTegic.value.DoubleValue
0.050

@<SCITEGIC>MOL_PROPERTY
Idih
SciTegic.value.DoubleValue
0.000

@<SCITEGIC>MOL_PROPERTY
Tether
SciTegic.value.DoubleValue
0.000

@<TRIPOS>MOLECULE
guest-s19_confgen4.mol2 : confsearch ligand conformer 116
          17          16           1
SMALL
USER_CHARGES
 
@<TRIPOS>ATOM
       1    C1      21.397604   16.582425   21.202286 C.2        1 MOL1         0.6173
       2    O1      20.952945   15.465988   21.018910 O.co2      1 MOL1        -0.6755
       3    O2      22.577533   16.797934   21.406668 O.co2      1 MOL1        -0.6755
       4    C2      20.437742   17.718874   21.167345 C.2        1 MOL1        -0.1504
       5    H1      19.399137   17.456343   20.980037 H          1 MOL1         0.0814
       6    C3      20.791909   19.010493   21.356737 C.2        1 MOL1        -0.1394
       7    H2      21.829711   19.281916   21.548610 H          1 MOL1         0.0817
       8    C4      19.811953   20.165008   21.323310 C.3        1 MOL1        -0.1849
       9    H3      18.875784   19.863205   20.834185 H          1 MOL1         0.0736
      10    H4      20.230815   20.972917   20.708618 H          1 MOL1         0.0736
      11    C5      19.506513   20.715595   22.733532 C.3        1 MOL1        -0.1866
      12    H5      20.442750   21.015285   23.224557 H          1 MOL1         0.0738
      13    H6      18.896766   21.624708   22.639084 H          1 MOL1         0.0738
      14    C6      18.757226   19.697317   23.619258 C.3        1 MOL1        -0.2879
      15    H7      19.364156   18.798686   23.789994 H          1 MOL1         0.0750
      16    H8      18.522906   20.135747   24.597900 H          1 MOL1         0.0750
      17    H9      17.813430   19.389280   23.150799 H          1 MOL1         0.0750
@<TRIPOS>BOND
    1     1     2    1
    2     1     3    2
    3     1     4    1
    4     4     5    1
    5     4     6    2
    6     6     7    1
    7     6     8    1
    8     8     9    1
    9     8    10    1
   10     8    11    1
   11    11    12    1
   12    11    13    1
   13    11    14    1
   14    14    15    1
   15    14    16    1
   16    14    17    1
@<TRIPOS>SUBSTRUCTURE
       1 MOL1            1 RESIDUE      1      MOL     
@<SCITEGIC>MOL_PROPERTY
VConf Rank
SciTegic.value.IntegerValue
116

@<SCITEGIC>MOL_PROPERTY
Conf_Id
SciTegic.value.IntegerValue
45

@<SCITEGIC>MOL_PROPERTY
Delta U+W
SciTegic.value.DoubleValue
0.562

@<SCITEGIC>MOL_PROPERTY
U+W
SciTegic.value.DoubleValue
-52.846

@<SCITEGIC>MOL_PROPERTY
Grad RMS
SciTegic.value.DoubleValue
0.000000

@<SCITEGIC>MOL_PROPERTY
U
SciTegic.value.DoubleValue
10.243

@<SCITEGIC>MOL_PROPERTY
W
SciTegic.value.DoubleValue
-63.089

@<SCITEGIC>MOL_PROPERTY
W(PB)
SciTegic.value.DoubleValue
-65.116

@<SCITEGIC>MOL_PROPERTY
W(SA)
SciTegic.value.DoubleValue
2.026

@<SCITEGIC>MOL_PROPERTY
Valence
SciTegic.value.DoubleValue
2.822

@<SCITEGIC>MOL_PROPERTY
Coulomb
SciTegic.value.DoubleValue
6.637

@<SCITEGIC>MOL_PROPERTY
VdW
SciTegic.value.DoubleValue
0.785

@<SCITEGIC>MOL_PROPERTY
VdW6
SciTegic.value.DoubleValue
-5.216

@<SCITEGIC>MOL_PROPERTY
VdW12
SciTegic.value.DoubleValue
6.001

@<SCITEGIC>MOL_PROPERTY
Bond
SciTegic.value.DoubleValue
0.080

@<SCITEGIC>MOL_PROPERTY
Angle
SciTegic.value.DoubleValue
2.678

@<SCITEGIC>MOL_PROPERTY
Pdih
SciTegic.value.DoubleValue
0.064

@<SCITEGIC>MOL_PROPERTY
Idih
SciTegic.value.DoubleValue
0.000

@<SCITEGIC>MOL_PROPERTY
Tether
SciTegic.value.DoubleValue
0.000

@<TRIPOS>MOLECULE
guest-s19_confgen4.mol2 : confsearch ligand conformer 117
          17          16           1
SMALL
USER_CHARGES
 
@<TRIPOS>ATOM
       1    C1      17.792373   21.333050   20.638058 C.2        1 MOL1         0.6173
       2    O1      17.938080   22.125064   19.727461 O.co2      1 MOL1        -0.6755
       3    O2      16.850294   21.376292   21.406830 O.co2      1 MOL1        -0.6755
       4    C2      18.823666   20.272443   20.798402 C.2        1 MOL1        -0.1504
       5    H1      19.638742   20.290312   20.078513 H          1 MOL1         0.0814
       6    C3      18.789453   19.327968   21.765811 C.2        1 MOL1        -0.1394
       7    H2      17.978706   19.302275   22.493686 H          1 MOL1         0.0817
       8    C4      19.843557   18.254045   21.923269 C.3        1 MOL1        -0.1849
       9    H3      20.169462   17.900004   20.935721 H          1 MOL1         0.0736
      10    H4      19.410461   17.386368   22.438973 H          1 MOL1         0.0736
      11    C5      21.059678   18.772564   22.717751 C.3        1 MOL1        -0.1866
      12    H5      21.496765   19.638207   22.200860 H          1 MOL1         0.0738
      13    H6      20.731501   19.124187   23.705794 H          1 MOL1         0.0738
      14    C6      22.134777   17.680893   22.890791 C.3        1 MOL1        -0.2879
      15    H7      21.732364   16.815556   23.433642 H          1 MOL1         0.0750
      16    H8      22.502511   17.333715   21.916278 H          1 MOL1         0.0750
      17    H9      22.991359   18.068094   23.457779 H          1 MOL1         0.0750
@<TRIPOS>BOND
    1     1     2    1
    2     1     3    2
    3     1     4    1
    4     4     5    1
    5     4     6    2
    6     6     7    1
    7     6     8    1
    8     8     9    1
    9     8    10    1
   10     8    11    1
   11    11    12    1
   12    11    13    1
   13    11    14    1
   14    14    15    1
   15    14    16    1
   16    14    17    1
@<TRIPOS>SUBSTRUCTURE
       1 MOL1            1 RESIDUE      1      MOL     
@<SCITEGIC>MOL_PROPERTY
VConf Rank
SciTegic.value.IntegerValue
117

@<SCITEGIC>MOL_PROPERTY
Conf_Id
SciTegic.value.IntegerValue
36

@<SCITEGIC>MOL_PROPERTY
Delta U+W
SciTegic.value.DoubleValue
0.000

@<SCITEGIC>MOL_PROPERTY
U+W
SciTegic.value.DoubleValue
-53.409

@<SCITEGIC>MOL_PROPERTY
Grad RMS
SciTegic.value.DoubleValue
0.000000

@<SCITEGIC>MOL_PROPERTY
U
SciTegic.value.DoubleValue
9.048

@<SCITEGIC>MOL_PROPERTY
W
SciTegic.value.DoubleValue
-62.457

@<SCITEGIC>MOL_PROPERTY
W(PB)
SciTegic.value.DoubleValue
-64.540

@<SCITEGIC>MOL_PROPERTY
W(SA)
SciTegic.value.DoubleValue
2.084

@<SCITEGIC>MOL_PROPERTY
Valence
SciTegic.value.DoubleValue
2.652

@<SCITEGIC>MOL_PROPERTY
Coulomb
SciTegic.value.DoubleValue
5.578

@<SCITEGIC>MOL_PROPERTY
VdW
SciTegic.value.DoubleValue
0.818

@<SCITEGIC>MOL_PROPERTY
VdW6
SciTegic.value.DoubleValue
-4.534

@<SCITEGIC>MOL_PROPERTY
VdW12
SciTegic.value.DoubleValue
5.352

@<SCITEGIC>MOL_PROPERTY
Bond
SciTegic.value.DoubleValue
0.063

@<SCITEGIC>MOL_PROPERTY
Angle
SciTegic.value.DoubleValue
2.579

@<SCITEGIC>MOL_PROPERTY
Pdih
SciTegic.value.DoubleValue
0.010

@<SCITEGIC>MOL_PROPERTY
Idih
SciTegic.value.DoubleValue
0.000

@<SCITEGIC>MOL_PROPERTY
Tether
SciTegic.value.DoubleValue
0.000

@<TRIPOS>MOLECULE
guest-s19_confgen4.mol2 : confsearch ligand conformer 118
          17          16           1
SMALL
USER_CHARGES
 
@<TRIPOS>ATOM
       1    C1      17.115596   18.158445   23.363582 C.2        1 MOL1         0.6173
       2    O1      16.284122   18.090584   22.477895 O.co2      1 MOL1        -0.6755
       3    O2      16.829194   18.100944   24.543570 O.co2      1 MOL1        -0.6755
       4    C2      18.552660   18.317486   23.011852 C.2        1 MOL1        -0.1504
       5    H1      19.243325   18.371424   23.850292 H          1 MOL1         0.0814
       6    C3      19.013785   18.396532   21.742915 C.2        1 MOL1        -0.1394
       7    H2      18.330353   18.345792   20.895496 H          1 MOL1         0.0817
       8    C4      20.476874   18.560129   21.393849 C.3        1 MOL1        -0.1849
       9    H3      20.660605   18.166301   20.385123 H          1 MOL1         0.0736
      10    H4      21.095345   17.964692   22.079235 H          1 MOL1         0.0736
      11    C5      20.907483   20.039881   21.456521 C.3        1 MOL1        -0.1866
      12    H5      20.288959   20.632989   20.768612 H          1 MOL1         0.0738
      13    H6      20.728111   20.434348   22.466363 H          1 MOL1         0.0738
      14    C6      22.395521   20.216182   21.092946 C.3        1 MOL1        -0.2879
      15    H7      22.596345   19.858262   20.074618 H          1 MOL1         0.0750
      16    H8      22.683113   21.274444   21.142982 H          1 MOL1         0.0750
      17    H9      23.038101   19.657299   21.785893 H          1 MOL1         0.0750
@<TRIPOS>BOND
    1     1     2    1
    2     1     3    2
    3     1     4    1
    4     4     5    1
    5     4     6    2
    6     6     7    1
    7     6     8    1
    8     8     9    1
    9     8    10    1
   10     8    11    1
   11    11    12    1
   12    11    13    1
   13    11    14    1
   14    14    15    1
   15    14    16    1
   16    14    17    1
@<TRIPOS>SUBSTRUCTURE
       1 MOL1            1 RESIDUE      1      MOL     
@<SCITEGIC>MOL_PROPERTY
VConf Rank
SciTegic.value.IntegerValue
118

@<SCITEGIC>MOL_PROPERTY
Conf_Id
SciTegic.value.IntegerValue
1

@<SCITEGIC>MOL_PROPERTY
Delta U+W
SciTegic.value.DoubleValue
0.030

@<SCITEGIC>MOL_PROPERTY
U+W
SciTegic.value.DoubleValue
-53.378

@<SCITEGIC>MOL_PROPERTY
Grad RMS
SciTegic.value.DoubleValue
0.000000

@<SCITEGIC>MOL_PROPERTY
U
SciTegic.value.DoubleValue
9.048

@<SCITEGIC>MOL_PROPERTY
W
SciTegic.value.DoubleValue
-62.426

@<SCITEGIC>MOL_PROPERTY
W(PB)
SciTegic.value.DoubleValue
-64.506

@<SCITEGIC>MOL_PROPERTY
W(SA)
SciTegic.value.DoubleValue
2.080

@<SCITEGIC>MOL_PROPERTY
Valence
SciTegic.value.DoubleValue
2.652

@<SCITEGIC>MOL_PROPERTY
Coulomb
SciTegic.value.DoubleValue
5.578

@<SCITEGIC>MOL_PROPERTY
VdW
SciTegic.value.DoubleValue
0.818

@<SCITEGIC>MOL_PROPERTY
VdW6
SciTegic.value.DoubleValue
-4.535

@<SCITEGIC>MOL_PROPERTY
VdW12
SciTegic.value.DoubleValue
5.352

@<SCITEGIC>MOL_PROPERTY
Bond
SciTegic.value.DoubleValue
0.063

@<SCITEGIC>MOL_PROPERTY
Angle
SciTegic.value.DoubleValue
2.579

@<SCITEGIC>MOL_PROPERTY
Pdih
SciTegic.value.DoubleValue
0.010

@<SCITEGIC>MOL_PROPERTY
Idih
SciTegic.value.DoubleValue
0.000

@<SCITEGIC>MOL_PROPERTY
Tether
SciTegic.value.DoubleValue
0.000

@<TRIPOS>MOLECULE
guest-s19_confgen4.mol2 : confsearch ligand conformer 119
          17          16           1
SMALL
USER_CHARGES
 
@<TRIPOS>ATOM
       1    C1      21.398706   17.434561   19.846618 C.2        1 MOL1         0.6173
       2    O1      20.456781   17.227769   19.104691 O.co2      1 MOL1        -0.6755
       3    O2      22.554375   17.269382   19.507567 O.co2      1 MOL1        -0.6755
       4    C2      21.150796   17.907441   21.235508 C.2        1 MOL1        -0.1504
       5    H1      22.035648   18.071901   21.846041 H          1 MOL1         0.0814
       6    C3      19.919096   18.134455   21.745769 C.2        1 MOL1        -0.1394
       7    H2      19.025925   17.976169   21.141790 H          1 MOL1         0.0817
       8    C4      19.674699   18.619492   23.159283 C.3        1 MOL1        -0.1849
       9    H3      20.360569   18.107843   23.847995 H          1 MOL1         0.0736
      10    H4      18.660002   18.344903   23.477534 H          1 MOL1         0.0736
      11    C5      19.863874   20.146130   23.297667 C.3        1 MOL1        -0.1866
      12    H5      19.778641   20.424025   24.357225 H          1 MOL1         0.0738
      13    H6      20.878810   20.423813   22.981085 H          1 MOL1         0.0738
      14    C6      18.827231   20.946970   22.481128 C.3        1 MOL1        -0.2879
      15    H7      17.804399   20.694545   22.789742 H          1 MOL1         0.0750
      16    H8      18.969429   22.025341   22.628791 H          1 MOL1         0.0750
      17    H9      18.922574   20.739058   21.407395 H          1 MOL1         0.0750
@<TRIPOS>BOND
    1     1     2    1
    2     1     3    2
    3     1     4    1
    4     4     5    1
    5     4     6    2
    6     6     7    1
    7     6     8    1
    8     8     9    1
    9     8    10    1
   10     8    11    1
   11    11    12    1
   12    11    13    1
   13    11    14    1
   14    14    15    1
   15    14    16    1
   16    14    17    1
@<TRIPOS>SUBSTRUCTURE
       1 MOL1            1 RESIDUE      1      MOL     
@<SCITEGIC>MOL_PROPERTY
VConf Rank
SciTegic.value.IntegerValue
119

@<SCITEGIC>MOL_PROPERTY
Conf_Id
SciTegic.value.IntegerValue
3

@<SCITEGIC>MOL_PROPERTY
Delta U+W
SciTegic.value.DoubleValue
0.531

@<SCITEGIC>MOL_PROPERTY
U+W
SciTegic.value.DoubleValue
-52.878

@<SCITEGIC>MOL_PROPERTY
Grad RMS
SciTegic.value.DoubleValue
0.000000

@<SCITEGIC>MOL_PROPERTY
U
SciTegic.value.DoubleValue
10.067

@<SCITEGIC>MOL_PROPERTY
W
SciTegic.value.DoubleValue
-62.945

@<SCITEGIC>MOL_PROPERTY
W(PB)
SciTegic.value.DoubleValue
-64.982

@<SCITEGIC>MOL_PROPERTY
W(SA)
SciTegic.value.DoubleValue
2.037

@<SCITEGIC>MOL_PROPERTY
Valence
SciTegic.value.DoubleValue
2.779

@<SCITEGIC>MOL_PROPERTY
Coulomb
SciTegic.value.DoubleValue
6.474

@<SCITEGIC>MOL_PROPERTY
VdW
SciTegic.value.DoubleValue
0.815

@<SCITEGIC>MOL_PROPERTY
VdW6
SciTegic.value.DoubleValue
-5.088

@<SCITEGIC>MOL_PROPERTY
VdW12
SciTegic.value.DoubleValue
5.902

@<SCITEGIC>MOL_PROPERTY
Bond
SciTegic.value.DoubleValue
0.078

@<SCITEGIC>MOL_PROPERTY
Angle
SciTegic.value.DoubleValue
2.651

@<SCITEGIC>MOL_PROPERTY
Pdih
SciTegic.value.DoubleValue
0.050

@<SCITEGIC>MOL_PROPERTY
Idih
SciTegic.value.DoubleValue
0.000

@<SCITEGIC>MOL_PROPERTY
Tether
SciTegic.value.DoubleValue
0.000

@<TRIPOS>MOLECULE
guest-s19_confgen4.mol2 : confsearch ligand conformer 120
          17          16           1
SMALL
USER_CHARGES
 
@<TRIPOS>ATOM
       1    C1      22.498332   18.851894   20.433475 C.2        1 MOL1         0.6173
       2    O1      22.698959   18.222952   19.412710 O.co2      1 MOL1        -0.6755
       3    O2      23.394300   19.214807   21.172382 O.co2      1 MOL1        -0.6755
       4    C2      21.087401   19.182941   20.770747 C.2        1 MOL1        -0.1504
       5    H1      20.336616   18.828808   20.068167 H          1 MOL1         0.0814
       6    C3      20.718382   19.873677   21.873604 C.2        1 MOL1        -0.1394
       7    H2      21.463861   20.228987   22.584613 H          1 MOL1         0.0817
       8    C4      19.280893   20.206775   22.215670 C.3        1 MOL1        -0.1849
       9    H3      18.637633   20.095229   21.332204 H          1 MOL1         0.0736
      10    H4      19.217658   21.263498   22.507811 H          1 MOL1         0.0736
      11    C5      18.735493   19.335117   23.368023 C.3        1 MOL1        -0.1866
      12    H5      19.379913   19.444071   24.251375 H          1 MOL1         0.0738
      13    H6      17.741756   19.704025   23.657147 H          1 MOL1         0.0738
      14    C6      18.626274   17.843907   22.984363 C.3        1 MOL1        -0.2879
      15    H7      19.612252   17.421795   22.750438 H          1 MOL1         0.0750
      16    H8      18.199388   17.262638   23.811866 H          1 MOL1         0.0750
      17    H9      17.979768   17.710602   22.107236 H          1 MOL1         0.0750
@<TRIPOS>BOND
    1     1     2    1
    2     1     3    2
    3     1     4    1
    4     4     5    1
    5     4     6    2
    6     6     7    1
    7     6     8    1
    8     8     9    1
    9     8    10    1
   10     8    11    1
   11    11    12    1
   12    11    13    1
   13    11    14    1
   14    14    15    1
   15    14    16    1
   16    14    17    1
@<TRIPOS>SUBSTRUCTURE
       1 MOL1            1 RESIDUE      1      MOL     
@<SCITEGIC>MOL_PROPERTY
VConf Rank
SciTegic.value.IntegerValue
120

@<SCITEGIC>MOL_PROPERTY
Conf_Id
SciTegic.value.IntegerValue
45

@<SCITEGIC>MOL_PROPERTY
Delta U+W
SciTegic.value.DoubleValue
0.562

@<SCITEGIC>MOL_PROPERTY
U+W
SciTegic.value.DoubleValue
-52.846

@<SCITEGIC>MOL_PROPERTY
Grad RMS
SciTegic.value.DoubleValue
0.000000

@<SCITEGIC>MOL_PROPERTY
U
SciTegic.value.DoubleValue
10.243

@<SCITEGIC>MOL_PROPERTY
W
SciTegic.value.DoubleValue
-63.089

@<SCITEGIC>MOL_PROPERTY
W(PB)
SciTegic.value.DoubleValue
-65.116

@<SCITEGIC>MOL_PROPERTY
W(SA)
SciTegic.value.DoubleValue
2.026

@<SCITEGIC>MOL_PROPERTY
Valence
SciTegic.value.DoubleValue
2.822

@<SCITEGIC>MOL_PROPERTY
Coulomb
SciTegic.value.DoubleValue
6.637

@<SCITEGIC>MOL_PROPERTY
VdW
SciTegic.value.DoubleValue
0.785

@<SCITEGIC>MOL_PROPERTY
VdW6
SciTegic.value.DoubleValue
-5.216

@<SCITEGIC>MOL_PROPERTY
VdW12
SciTegic.value.DoubleValue
6.001

@<SCITEGIC>MOL_PROPERTY
Bond
SciTegic.value.DoubleValue
0.080

@<SCITEGIC>MOL_PROPERTY
Angle
SciTegic.value.DoubleValue
2.678

@<SCITEGIC>MOL_PROPERTY
Pdih
SciTegic.value.DoubleValue
0.064

@<SCITEGIC>MOL_PROPERTY
Idih
SciTegic.value.DoubleValue
0.000

@<SCITEGIC>MOL_PROPERTY
Tether
SciTegic.value.DoubleValue
0.000

@<TRIPOS>MOLECULE
guest-s19_confgen4.mol2 : confsearch ligand conformer 121
          17          16           1
SMALL
USER_CHARGES
 
@<TRIPOS>ATOM
       1    C1      21.890948   16.546684   22.993425 C.2        1 MOL1         0.6173
       2    O1      21.546225   15.484391   23.473428 O.co2      1 MOL1        -0.6755
       3    O2      23.038612   16.948675   23.034253 O.co2      1 MOL1        -0.6755
       4    C2      20.845887   17.373245   22.331001 C.2        1 MOL1        -0.1504
       5    H1      19.841383   16.956260   22.329349 H          1 MOL1         0.0814
       6    C3      21.086244   18.574006   21.756991 C.2        1 MOL1        -0.1394
       7    H2      22.088454   19.002193   21.755042 H          1 MOL1         0.0817
       8    C4      20.017207   19.409350   21.087216 C.3        1 MOL1        -0.1849
       9    H3      19.321911   18.759685   20.538301 H          1 MOL1         0.0736
      10    H4      20.480150   20.071153   20.342845 H          1 MOL1         0.0736
      11    C5      19.238040   20.254516   22.115615 C.3        1 MOL1        -0.1866
      12    H5      18.770705   19.593536   22.858759 H          1 MOL1         0.0738
      13    H6      19.935285   20.904898   22.661894 H          1 MOL1         0.0738
      14    C6      18.152554   21.116135   21.439701 C.3        1 MOL1        -0.2879
      15    H7      18.596850   21.809577   20.713636 H          1 MOL1         0.0750
      16    H8      17.423969   20.487025   20.911666 H          1 MOL1         0.0750
      17    H9      17.609327   21.709707   22.186499 H          1 MOL1         0.0750
@<TRIPOS>BOND
    1     1     2    1
    2     1     3    2
    3     1     4    1
    4     4     5    1
    5     4     6    2
    6     6     7    1
    7     6     8    1
    8     8     9    1
    9     8    10    1
   10     8    11    1
   11    11    12    1
   12    11    13    1
   13    11    14    1
   14    14    15    1
   15    14    16    1
   16    14    17    1
@<TRIPOS>SUBSTRUCTURE
       1 MOL1            1 RESIDUE      1      MOL     
@<SCITEGIC>MOL_PROPERTY
VConf Rank
SciTegic.value.IntegerValue
121

@<SCITEGIC>MOL_PROPERTY
Conf_Id
SciTegic.value.IntegerValue
36

@<SCITEGIC>MOL_PROPERTY
Delta U+W
SciTegic.value.DoubleValue
0.000

@<SCITEGIC>MOL_PROPERTY
U+W
SciTegic.value.DoubleValue
-53.409

@<SCITEGIC>MOL_PROPERTY
Grad RMS
SciTegic.value.DoubleValue
0.000000

@<SCITEGIC>MOL_PROPERTY
U
SciTegic.value.DoubleValue
9.048

@<SCITEGIC>MOL_PROPERTY
W
SciTegic.value.DoubleValue
-62.457

@<SCITEGIC>MOL_PROPERTY
W(PB)
SciTegic.value.DoubleValue
-64.540

@<SCITEGIC>MOL_PROPERTY
W(SA)
SciTegic.value.DoubleValue
2.084

@<SCITEGIC>MOL_PROPERTY
Valence
SciTegic.value.DoubleValue
2.652

@<SCITEGIC>MOL_PROPERTY
Coulomb
SciTegic.value.DoubleValue
5.578

@<SCITEGIC>MOL_PROPERTY
VdW
SciTegic.value.DoubleValue
0.818

@<SCITEGIC>MOL_PROPERTY
VdW6
SciTegic.value.DoubleValue
-4.534

@<SCITEGIC>MOL_PROPERTY
VdW12
SciTegic.value.DoubleValue
5.352

@<SCITEGIC>MOL_PROPERTY
Bond
SciTegic.value.DoubleValue
0.063

@<SCITEGIC>MOL_PROPERTY
Angle
SciTegic.value.DoubleValue
2.579

@<SCITEGIC>MOL_PROPERTY
Pdih
SciTegic.value.DoubleValue
0.010

@<SCITEGIC>MOL_PROPERTY
Idih
SciTegic.value.DoubleValue
0.000

@<SCITEGIC>MOL_PROPERTY
Tether
SciTegic.value.DoubleValue
0.000

@<TRIPOS>MOLECULE
guest-s19_confgen4.mol2 : confsearch ligand conformer 122
          17          16           1
SMALL
USER_CHARGES
 
@<TRIPOS>ATOM
       1    C1      18.513784   16.399070   20.546937 C.2        1 MOL1         0.6173
       2    O1      18.850347   16.363079   19.378253 O.co2      1 MOL1        -0.6755
       3    O2      17.633411   15.695253   21.002230 O.co2      1 MOL1        -0.6755
       4    C2      19.195957   17.336577   21.479613 C.2        1 MOL1        -0.1504
       5    H1      18.847505   17.318585   22.509742 H          1 MOL1         0.0814
       6    C3      20.189539   18.176762   21.110874 C.2        1 MOL1        -0.1394
       7    H2      20.544869   18.204543   20.080950 H          1 MOL1         0.0817
       8    C4      20.876830   19.128487   22.065384 C.3        1 MOL1        -0.1849
       9    H3      21.882770   19.361972   21.691276 H          1 MOL1         0.0736
      10    H4      21.011167   18.647286   23.043753 H          1 MOL1         0.0736
      11    C5      20.072782   20.433973   22.233406 C.3        1 MOL1        -0.1866
      12    H5      19.941608   20.914490   21.253884 H          1 MOL1         0.0738
      13    H6      19.067319   20.202474   22.611574 H          1 MOL1         0.0738
      14    C6      20.771473   21.413374   23.197839 C.3        1 MOL1        -0.2879
      15    H7      21.768021   21.686561   22.826773 H          1 MOL1         0.0750
      16    H8      20.185218   22.335350   23.304591 H          1 MOL1         0.0750
      17    H9      20.886892   20.967896   24.194665 H          1 MOL1         0.0750
@<TRIPOS>BOND
    1     1     2    1
    2     1     3    2
    3     1     4    1
    4     4     5    1
    5     4     6    2
    6     6     7    1
    7     6     8    1
    8     8     9    1
    9     8    10    1
   10     8    11    1
   11    11    12    1
   12    11    13    1
   13    11    14    1
   14    14    15    1
   15    14    16    1
   16    14    17    1
@<TRIPOS>SUBSTRUCTURE
       1 MOL1            1 RESIDUE      1      MOL     
@<SCITEGIC>MOL_PROPERTY
VConf Rank
SciTegic.value.IntegerValue
122

@<SCITEGIC>MOL_PROPERTY
Conf_Id
SciTegic.value.IntegerValue
1

@<SCITEGIC>MOL_PROPERTY
Delta U+W
SciTegic.value.DoubleValue
0.030

@<SCITEGIC>MOL_PROPERTY
U+W
SciTegic.value.DoubleValue
-53.378

@<SCITEGIC>MOL_PROPERTY
Grad RMS
SciTegic.value.DoubleValue
0.000000

@<SCITEGIC>MOL_PROPERTY
U
SciTegic.value.DoubleValue
9.048

@<SCITEGIC>MOL_PROPERTY
W
SciTegic.value.DoubleValue
-62.426

@<SCITEGIC>MOL_PROPERTY
W(PB)
SciTegic.value.DoubleValue
-64.506

@<SCITEGIC>MOL_PROPERTY
W(SA)
SciTegic.value.DoubleValue
2.080

@<SCITEGIC>MOL_PROPERTY
Valence
SciTegic.value.DoubleValue
2.652

@<SCITEGIC>MOL_PROPERTY
Coulomb
SciTegic.value.DoubleValue
5.578

@<SCITEGIC>MOL_PROPERTY
VdW
SciTegic.value.DoubleValue
0.818

@<SCITEGIC>MOL_PROPERTY
VdW6
SciTegic.value.DoubleValue
-4.535

@<SCITEGIC>MOL_PROPERTY
VdW12
SciTegic.value.DoubleValue
5.352

@<SCITEGIC>MOL_PROPERTY
Bond
SciTegic.value.DoubleValue
0.063

@<SCITEGIC>MOL_PROPERTY
Angle
SciTegic.value.DoubleValue
2.579

@<SCITEGIC>MOL_PROPERTY
Pdih
SciTegic.value.DoubleValue
0.010

@<SCITEGIC>MOL_PROPERTY
Idih
SciTegic.value.DoubleValue
0.000

@<SCITEGIC>MOL_PROPERTY
Tether
SciTegic.value.DoubleValue
0.000

@<TRIPOS>MOLECULE
guest-s19_confgen4.mol2 : confsearch ligand conformer 123
          17          16           1
SMALL
USER_CHARGES
 
@<TRIPOS>ATOM
       1    C1      22.733141   18.470765   20.731427 C.2        1 MOL1         0.6173
       2    O1      22.818623   17.277613   20.953961 O.co2      1 MOL1        -0.6755
       3    O2      23.429692   19.041197   19.914582 O.co2      1 MOL1        -0.6755
       4    C2      21.742722   19.289598   21.481543 C.2        1 MOL1        -0.1504
       5    H1      21.718569   20.348624   21.235290 H          1 MOL1         0.0814
       6    C3      20.903934   18.788143   22.416404 C.2        1 MOL1        -0.1394
       7    H2      20.917347   17.728009   22.668463 H          1 MOL1         0.0817
       8    C4      19.895704   19.627121   23.173107 C.3        1 MOL1        -0.1849
       9    H3      20.347670   20.590997   23.443659 H          1 MOL1         0.0736
      10    H4      19.636011   19.134320   24.119680 H          1 MOL1         0.0736
      11    C5      18.611103   19.882382   22.354448 C.3        1 MOL1        -0.1866
      12    H5      17.965557   20.578913   22.906959 H          1 MOL1         0.0738
      13    H6      18.867645   20.376584   21.407147 H          1 MOL1         0.0738
      14    C6      17.824886   18.585290   22.067867 C.3        1 MOL1        -0.2879
      15    H7      17.546577   18.080266   23.002019 H          1 MOL1         0.0750
      16    H8      16.903016   18.807067   21.514805 H          1 MOL1         0.0750
      17    H9      18.419360   17.886907   21.464474 H          1 MOL1         0.0750
@<TRIPOS>BOND
    1     1     2    1
    2     1     3    2
    3     1     4    1
    4     4     5    1
    5     4     6    2
    6     6     7    1
    7     6     8    1
    8     8     9    1
    9     8    10    1
   10     8    11    1
   11    11    12    1
   12    11    13    1
   13    11    14    1
   14    14    15    1
   15    14    16    1
   16    14    17    1
@<TRIPOS>SUBSTRUCTURE
       1 MOL1            1 RESIDUE      1      MOL     
@<SCITEGIC>MOL_PROPERTY
VConf Rank
SciTegic.value.IntegerValue
123

@<SCITEGIC>MOL_PROPERTY
Conf_Id
SciTegic.value.IntegerValue
3

@<SCITEGIC>MOL_PROPERTY
Delta U+W
SciTegic.value.DoubleValue
0.531

@<SCITEGIC>MOL_PROPERTY
U+W
SciTegic.value.DoubleValue
-52.878

@<SCITEGIC>MOL_PROPERTY
Grad RMS
SciTegic.value.DoubleValue
0.000000

@<SCITEGIC>MOL_PROPERTY
U
SciTegic.value.DoubleValue
10.067

@<SCITEGIC>MOL_PROPERTY
W
SciTegic.value.DoubleValue
-62.945

@<SCITEGIC>MOL_PROPERTY
W(PB)
SciTegic.value.DoubleValue
-64.982

@<SCITEGIC>MOL_PROPERTY
W(SA)
SciTegic.value.DoubleValue
2.037

@<SCITEGIC>MOL_PROPERTY
Valence
SciTegic.value.DoubleValue
2.779

@<SCITEGIC>MOL_PROPERTY
Coulomb
SciTegic.value.DoubleValue
6.474

@<SCITEGIC>MOL_PROPERTY
VdW
SciTegic.value.DoubleValue
0.815

@<SCITEGIC>MOL_PROPERTY
VdW6
SciTegic.value.DoubleValue
-5.088

@<SCITEGIC>MOL_PROPERTY
VdW12
SciTegic.value.DoubleValue
5.902

@<SCITEGIC>MOL_PROPERTY
Bond
SciTegic.value.DoubleValue
0.078

@<SCITEGIC>MOL_PROPERTY
Angle
SciTegic.value.DoubleValue
2.651

@<SCITEGIC>MOL_PROPERTY
Pdih
SciTegic.value.DoubleValue
0.050

@<SCITEGIC>MOL_PROPERTY
Idih
SciTegic.value.DoubleValue
0.000

@<SCITEGIC>MOL_PROPERTY
Tether
SciTegic.value.DoubleValue
0.000

@<TRIPOS>MOLECULE
guest-s19_confgen4.mol2 : confsearch ligand conformer 124
          17          16           1
SMALL
USER_CHARGES
 
@<TRIPOS>ATOM
       1    C1      20.065729   16.641739   20.324514 C.2        1 MOL1         0.6173
       2    O1      19.483657   16.412096   19.282288 O.co2      1 MOL1        -0.6755
       3    O2      20.521712   15.764254   21.033419 O.co2      1 MOL1        -0.6755
       4    C2      20.217250   18.065991   20.727775 C.2        1 MOL1        -0.1504
       5    H1      19.786959   18.798946   20.049296 H          1 MOL1         0.0814
       6    C3      20.838793   18.466453   21.860427 C.2        1 MOL1        -0.1394
       7    H2      21.269461   17.738529   22.547572 H          1 MOL1         0.0817
       8    C4      20.989044   19.917078   22.269631 C.3        1 MOL1        -0.1849
       9    H3      20.815707   20.580602   21.411476 H          1 MOL1         0.0736
      10    H4      22.025040   20.094162   22.588007 H          1 MOL1         0.0736
      11    C5      20.037711   20.302103   23.423705 C.3        1 MOL1        -0.1866
      12    H5      20.208618   19.637123   24.281639 H          1 MOL1         0.0738
      13    H6      20.278255   21.319294   23.762321 H          1 MOL1         0.0738
      14    C6      18.551180   20.247760   23.011270 C.3        1 MOL1        -0.2879
      15    H7      18.255931   19.229418   22.726910 H          1 MOL1         0.0750
      16    H8      17.908086   20.564569   23.842491 H          1 MOL1         0.0750
      17    H9      18.355745   20.911602   22.159090 H          1 MOL1         0.0750
@<TRIPOS>BOND
    1     1     2    1
    2     1     3    2
    3     1     4    1
    4     4     5    1
    5     4     6    2
    6     6     7    1
    7     6     8    1
    8     8     9    1
    9     8    10    1
   10     8    11    1
   11    11    12    1
   12    11    13    1
   13    11    14    1
   14    14    15    1
   15    14    16    1
   16    14    17    1
@<TRIPOS>SUBSTRUCTURE
       1 MOL1            1 RESIDUE      1      MOL     
@<SCITEGIC>MOL_PROPERTY
VConf Rank
SciTegic.value.IntegerValue
124

@<SCITEGIC>MOL_PROPERTY
Conf_Id
SciTegic.value.IntegerValue
45

@<SCITEGIC>MOL_PROPERTY
Delta U+W
SciTegic.value.DoubleValue
0.562

@<SCITEGIC>MOL_PROPERTY
U+W
SciTegic.value.DoubleValue
-52.846

@<SCITEGIC>MOL_PROPERTY
Grad RMS
SciTegic.value.DoubleValue
0.000000

@<SCITEGIC>MOL_PROPERTY
U
SciTegic.value.DoubleValue
10.243

@<SCITEGIC>MOL_PROPERTY
W
SciTegic.value.DoubleValue
-63.089

@<SCITEGIC>MOL_PROPERTY
W(PB)
SciTegic.value.DoubleValue
-65.116

@<SCITEGIC>MOL_PROPERTY
W(SA)
SciTegic.value.DoubleValue
2.026

@<SCITEGIC>MOL_PROPERTY
Valence
SciTegic.value.DoubleValue
2.822

@<SCITEGIC>MOL_PROPERTY
Coulomb
SciTegic.value.DoubleValue
6.637

@<SCITEGIC>MOL_PROPERTY
VdW
SciTegic.value.DoubleValue
0.785

@<SCITEGIC>MOL_PROPERTY
VdW6
SciTegic.value.DoubleValue
-5.216

@<SCITEGIC>MOL_PROPERTY
VdW12
SciTegic.value.DoubleValue
6.001

@<SCITEGIC>MOL_PROPERTY
Bond
SciTegic.value.DoubleValue
0.080

@<SCITEGIC>MOL_PROPERTY
Angle
SciTegic.value.DoubleValue
2.678

@<SCITEGIC>MOL_PROPERTY
Pdih
SciTegic.value.DoubleValue
0.064

@<SCITEGIC>MOL_PROPERTY
Idih
SciTegic.value.DoubleValue
0.000

@<SCITEGIC>MOL_PROPERTY
Tether
SciTegic.value.DoubleValue
0.000

@<TRIPOS>MOLECULE
guest-s19_confgen4.mol2 : confsearch ligand conformer 125
          17          16           1
SMALL
USER_CHARGES
 
@<TRIPOS>ATOM
       1    C1      18.725615   21.328231   19.703327 C.2        1 MOL1         0.6173
       2    O1      17.809667   22.115386   19.841641 O.co2      1 MOL1        -0.6755
       3    O2      19.204403   21.055776   18.618466 O.co2      1 MOL1        -0.6755
       4    C2      19.269156   20.683533   20.929333 C.2        1 MOL1        -0.1504
       5    H1      18.796649   20.970788   21.865885 H          1 MOL1         0.0814
       6    C3      20.284033   19.789619   20.924130 C.2        1 MOL1        -0.1394
       7    H2      20.763016   19.492954   19.991211 H          1 MOL1         0.0817
       8    C4      20.829488   19.136877   22.175387 C.3        1 MOL1        -0.1849
       9    H3      20.850653   19.863259   22.999238 H          1 MOL1         0.0736
      10    H4      21.869414   18.827080   22.005191 H          1 MOL1         0.0736
      11    C5      19.986108   17.911587   22.583292 C.3        1 MOL1        -0.1866
      12    H5      18.946142   18.220601   22.758055 H          1 MOL1         0.0738
      13    H6      19.968133   17.185655   21.758509 H          1 MOL1         0.0738
      14    C6      20.541179   17.234843   23.852717 C.3        1 MOL1        -0.2879
      15    H7      21.570577   16.887292   23.694670 H          1 MOL1         0.0750
      16    H8      20.540841   17.931414   24.701378 H          1 MOL1         0.0750
      17    H9      19.928677   16.366143   24.127188 H          1 MOL1         0.0750
@<TRIPOS>BOND
    1     1     2    1
    2     1     3    2
    3     1     4    1
    4     4     5    1
    5     4     6    2
    6     6     7    1
    7     6     8    1
    8     8     9    1
    9     8    10    1
   10     8    11    1
   11    11    12    1
   12    11    13    1
   13    11    14    1
   14    14    15    1
   15    14    16    1
   16    14    17    1
@<TRIPOS>SUBSTRUCTURE
       1 MOL1            1 RESIDUE      1      MOL     
@<SCITEGIC>MOL_PROPERTY
VConf Rank
SciTegic.value.IntegerValue
125

@<SCITEGIC>MOL_PROPERTY
Conf_Id
SciTegic.value.IntegerValue
36

@<SCITEGIC>MOL_PROPERTY
Delta U+W
SciTegic.value.DoubleValue
0.000

@<SCITEGIC>MOL_PROPERTY
U+W
SciTegic.value.DoubleValue
-53.409

@<SCITEGIC>MOL_PROPERTY
Grad RMS
SciTegic.value.DoubleValue
0.000000

@<SCITEGIC>MOL_PROPERTY
U
SciTegic.value.DoubleValue
9.048

@<SCITEGIC>MOL_PROPERTY
W
SciTegic.value.DoubleValue
-62.457

@<SCITEGIC>MOL_PROPERTY
W(PB)
SciTegic.value.DoubleValue
-64.540

@<SCITEGIC>MOL_PROPERTY
W(SA)
SciTegic.value.DoubleValue
2.084

@<SCITEGIC>MOL_PROPERTY
Valence
SciTegic.value.DoubleValue
2.652

@<SCITEGIC>MOL_PROPERTY
Coulomb
SciTegic.value.DoubleValue
5.578

@<SCITEGIC>MOL_PROPERTY
VdW
SciTegic.value.DoubleValue
0.818

@<SCITEGIC>MOL_PROPERTY
VdW6
SciTegic.value.DoubleValue
-4.534

@<SCITEGIC>MOL_PROPERTY
VdW12
SciTegic.value.DoubleValue
5.352

@<SCITEGIC>MOL_PROPERTY
Bond
SciTegic.value.DoubleValue
0.063

@<SCITEGIC>MOL_PROPERTY
Angle
SciTegic.value.DoubleValue
2.579

@<SCITEGIC>MOL_PROPERTY
Pdih
SciTegic.value.DoubleValue
0.010

@<SCITEGIC>MOL_PROPERTY
Idih
SciTegic.value.DoubleValue
0.000

@<SCITEGIC>MOL_PROPERTY
Tether
SciTegic.value.DoubleValue
0.000

@<TRIPOS>MOLECULE
guest-s19_confgen4.mol2 : confsearch ligand conformer 126
          17          16           1
SMALL
USER_CHARGES
 
@<TRIPOS>ATOM
       1    C1      19.602602   16.056631   20.504031 C.2        1 MOL1         0.6173
       2    O1      19.017278   15.366691   21.317524 O.co2      1 MOL1        -0.6755
       3    O2      20.102047   15.604060   19.492378 O.co2      1 MOL1        -0.6755
       4    C2      19.724266   17.521579   20.734872 C.2        1 MOL1        -0.1504
       5    H1      20.258909   18.079813   19.969731 H          1 MOL1         0.0814
       6    C3      19.218802   18.158899   21.815342 C.2        1 MOL1        -0.1394
       7    H2      18.683296   17.608987   22.589037 H          1 MOL1         0.0817
       8    C4      19.348561   19.648989   22.043451 C.3        1 MOL1        -0.1849
       9    H3      18.532298   19.994217   22.692235 H          1 MOL1         0.0736
      10    H4      19.239125   20.185631   21.091167 H          1 MOL1         0.0736
      11    C5      20.704635   20.002890   22.687527 C.3        1 MOL1        -0.1866
      12    H5      20.810812   19.466661   23.640812 H          1 MOL1         0.0738
      13    H6      21.522475   19.661782   22.037648 H          1 MOL1         0.0738
      14    C6      20.840960   21.519217   22.931849 C.3        1 MOL1        -0.2879
      15    H7      20.052860   21.881220   23.605111 H          1 MOL1         0.0750
      16    H8      21.811108   21.751427   23.390129 H          1 MOL1         0.0750
      17    H9      20.769457   22.077042   21.988899 H          1 MOL1         0.0750
@<TRIPOS>BOND
    1     1     2    1
    2     1     3    2
    3     1     4    1
    4     4     5    1
    5     4     6    2
    6     6     7    1
    7     6     8    1
    8     8     9    1
    9     8    10    1
   10     8    11    1
   11    11    12    1
   12    11    13    1
   13    11    14    1
   14    14    15    1
   15    14    16    1
   16    14    17    1
@<TRIPOS>SUBSTRUCTURE
       1 MOL1            1 RESIDUE      1      MOL     
@<SCITEGIC>MOL_PROPERTY
VConf Rank
SciTegic.value.IntegerValue
126

@<SCITEGIC>MOL_PROPERTY
Conf_Id
SciTegic.value.IntegerValue
1

@<SCITEGIC>MOL_PROPERTY
Delta U+W
SciTegic.value.DoubleValue
0.030

@<SCITEGIC>MOL_PROPERTY
U+W
SciTegic.value.DoubleValue
-53.378

@<SCITEGIC>MOL_PROPERTY
Grad RMS
SciTegic.value.DoubleValue
0.000000

@<SCITEGIC>MOL_PROPERTY
U
SciTegic.value.DoubleValue
9.048

@<SCITEGIC>MOL_PROPERTY
W
SciTegic.value.DoubleValue
-62.426

@<SCITEGIC>MOL_PROPERTY
W(PB)
SciTegic.value.DoubleValue
-64.506

@<SCITEGIC>MOL_PROPERTY
W(SA)
SciTegic.value.DoubleValue
2.080

@<SCITEGIC>MOL_PROPERTY
Valence
SciTegic.value.DoubleValue
2.652

@<SCITEGIC>MOL_PROPERTY
Coulomb
SciTegic.value.DoubleValue
5.578

@<SCITEGIC>MOL_PROPERTY
VdW
SciTegic.value.DoubleValue
0.818

@<SCITEGIC>MOL_PROPERTY
VdW6
SciTegic.value.DoubleValue
-4.535

@<SCITEGIC>MOL_PROPERTY
VdW12
SciTegic.value.DoubleValue
5.352

@<SCITEGIC>MOL_PROPERTY
Bond
SciTegic.value.DoubleValue
0.063

@<SCITEGIC>MOL_PROPERTY
Angle
SciTegic.value.DoubleValue
2.579

@<SCITEGIC>MOL_PROPERTY
Pdih
SciTegic.value.DoubleValue
0.010

@<SCITEGIC>MOL_PROPERTY
Idih
SciTegic.value.DoubleValue
0.000

@<SCITEGIC>MOL_PROPERTY
Tether
SciTegic.value.DoubleValue
0.000

@<TRIPOS>MOLECULE
guest-s19_confgen4.mol2 : confsearch ligand conformer 127
          17          16           1
SMALL
USER_CHARGES
 
@<TRIPOS>ATOM
       1    C1      18.362341   19.862419   24.533040 C.2        1 MOL1         0.6173
       2    O1      18.802918   19.070965   25.345403 O.co2      1 MOL1        -0.6755
       3    O2      17.712598   20.839921   24.849481 O.co2      1 MOL1        -0.6755
       4    C2      18.613495   19.644109   23.082746 C.2        1 MOL1        -0.1504
       5    H1      18.191366   20.387666   22.410666 H          1 MOL1         0.0814
       6    C3      19.319876   18.602022   22.588716 C.2        1 MOL1        -0.1394
       7    H2      19.750085   17.853115   23.253288 H          1 MOL1         0.0817
       8    C4      19.574721   18.388472   21.111399 C.3        1 MOL1        -0.1849
       9    H3      18.665778   18.626886   20.542622 H          1 MOL1         0.0736
      10    H4      19.786923   17.328156   20.919059 H          1 MOL1         0.0736
      11    C5      20.742107   19.252340   20.585564 C.3        1 MOL1        -0.1866
      12    H5      20.811918   19.136475   19.495218 H          1 MOL1         0.0738
      13    H6      20.532074   20.314054   20.775503 H          1 MOL1         0.0738
      14    C6      22.095234   18.868241   21.221354 C.3        1 MOL1        -0.2879
      15    H7      22.332091   17.812959   21.033138 H          1 MOL1         0.0750
      16    H8      22.905797   19.477686   20.801269 H          1 MOL1         0.0750
      17    H9      22.082234   19.028315   22.307369 H          1 MOL1         0.0750
@<TRIPOS>BOND
    1     1     2    1
    2     1     3    2
    3     1     4    1
    4     4     5    1
    5     4     6    2
    6     6     7    1
    7     6     8    1
    8     8     9    1
    9     8    10    1
   10     8    11    1
   11    11    12    1
   12    11    13    1
   13    11    14    1
   14    14    15    1
   15    14    16    1
   16    14    17    1
@<TRIPOS>SUBSTRUCTURE
       1 MOL1            1 RESIDUE      1      MOL     
@<SCITEGIC>MOL_PROPERTY
VConf Rank
SciTegic.value.IntegerValue
127

@<SCITEGIC>MOL_PROPERTY
Conf_Id
SciTegic.value.IntegerValue
3

@<SCITEGIC>MOL_PROPERTY
Delta U+W
SciTegic.value.DoubleValue
0.531

@<SCITEGIC>MOL_PROPERTY
U+W
SciTegic.value.DoubleValue
-52.878

@<SCITEGIC>MOL_PROPERTY
Grad RMS
SciTegic.value.DoubleValue
0.000000

@<SCITEGIC>MOL_PROPERTY
U
SciTegic.value.DoubleValue
10.067

@<SCITEGIC>MOL_PROPERTY
W
SciTegic.value.DoubleValue
-62.945

@<SCITEGIC>MOL_PROPERTY
W(PB)
SciTegic.value.DoubleValue
-64.982

@<SCITEGIC>MOL_PROPERTY
W(SA)
SciTegic.value.DoubleValue
2.037

@<SCITEGIC>MOL_PROPERTY
Valence
SciTegic.value.DoubleValue
2.779

@<SCITEGIC>MOL_PROPERTY
Coulomb
SciTegic.value.DoubleValue
6.474

@<SCITEGIC>MOL_PROPERTY
VdW
SciTegic.value.DoubleValue
0.815

@<SCITEGIC>MOL_PROPERTY
VdW6
SciTegic.value.DoubleValue
-5.088

@<SCITEGIC>MOL_PROPERTY
VdW12
SciTegic.value.DoubleValue
5.902

@<SCITEGIC>MOL_PROPERTY
Bond
SciTegic.value.DoubleValue
0.078

@<SCITEGIC>MOL_PROPERTY
Angle
SciTegic.value.DoubleValue
2.651

@<SCITEGIC>MOL_PROPERTY
Pdih
SciTegic.value.DoubleValue
0.050

@<SCITEGIC>MOL_PROPERTY
Idih
SciTegic.value.DoubleValue
0.000

@<SCITEGIC>MOL_PROPERTY
Tether
SciTegic.value.DoubleValue
0.000

@<TRIPOS>MOLECULE
guest-s19_confgen4.mol2 : confsearch ligand conformer 128
          17          16           1
SMALL
USER_CHARGES
 
@<TRIPOS>ATOM
       1    C1      22.258281   19.605759   20.164068 C.2        1 MOL1         0.6173
       2    O1      23.414572   19.899050   20.398055 O.co2      1 MOL1        -0.6755
       3    O2      21.729010   19.813560   19.088364 O.co2      1 MOL1        -0.6755
       4    C2      21.477853   18.962794   21.255673 C.2        1 MOL1        -0.1504
       5    H1      22.011017   18.806096   22.190493 H          1 MOL1         0.0814
       6    C3      20.184117   18.586520   21.136300 C.2        1 MOL1        -0.1394
       7    H2      19.641367   18.743181   20.204422 H          1 MOL1         0.0817
       8    C4      19.391449   17.934664   22.250345 C.3        1 MOL1        -0.1849
       9    H3      20.064516   17.538703   23.022961 H          1 MOL1         0.0736
      10    H4      18.849072   17.069775   21.845618 H          1 MOL1         0.0736
      11    C5      18.377205   18.905517   22.893710 C.3        1 MOL1        -0.1866
      12    H5      17.705182   19.304121   22.121078 H          1 MOL1         0.0738
      13    H6      17.747009   18.348754   23.600863 H          1 MOL1         0.0738
      14    C6      19.061510   20.070852   23.639733 C.3        1 MOL1        -0.2879
      15    H7      19.650903   20.690258   22.951252 H          1 MOL1         0.0750
      16    H8      18.312825   20.716890   24.116149 H          1 MOL1         0.0750
      17    H9      19.732991   19.695226   24.422748 H          1 MOL1         0.0750
@<TRIPOS>BOND
    1     1     2    1
    2     1     3    2
    3     1     4    1
    4     4     5    1
    5     4     6    2
    6     6     7    1
    7     6     8    1
    8     8     9    1
    9     8    10    1
   10     8    11    1
   11    11    12    1
   12    11    13    1
   13    11    14    1
   14    14    15    1
   15    14    16    1
   16    14    17    1
@<TRIPOS>SUBSTRUCTURE
       1 MOL1            1 RESIDUE      1      MOL     
@<SCITEGIC>MOL_PROPERTY
VConf Rank
SciTegic.value.IntegerValue
128

@<SCITEGIC>MOL_PROPERTY
Conf_Id
SciTegic.value.IntegerValue
45

@<SCITEGIC>MOL_PROPERTY
Delta U+W
SciTegic.value.DoubleValue
0.562

@<SCITEGIC>MOL_PROPERTY
U+W
SciTegic.value.DoubleValue
-52.846

@<SCITEGIC>MOL_PROPERTY
Grad RMS
SciTegic.value.DoubleValue
0.000000

@<SCITEGIC>MOL_PROPERTY
U
SciTegic.value.DoubleValue
10.243

@<SCITEGIC>MOL_PROPERTY
W
SciTegic.value.DoubleValue
-63.089

@<SCITEGIC>MOL_PROPERTY
W(PB)
SciTegic.value.DoubleValue
-65.116

@<SCITEGIC>MOL_PROPERTY
W(SA)
SciTegic.value.DoubleValue
2.026

@<SCITEGIC>MOL_PROPERTY
Valence
SciTegic.value.DoubleValue
2.822

@<SCITEGIC>MOL_PROPERTY
Coulomb
SciTegic.value.DoubleValue
6.637

@<SCITEGIC>MOL_PROPERTY
VdW
SciTegic.value.DoubleValue
0.785

@<SCITEGIC>MOL_PROPERTY
VdW6
SciTegic.value.DoubleValue
-5.216

@<SCITEGIC>MOL_PROPERTY
VdW12
SciTegic.value.DoubleValue
6.001

@<SCITEGIC>MOL_PROPERTY
Bond
SciTegic.value.DoubleValue
0.080

@<SCITEGIC>MOL_PROPERTY
Angle
SciTegic.value.DoubleValue
2.678

@<SCITEGIC>MOL_PROPERTY
Pdih
SciTegic.value.DoubleValue
0.064

@<SCITEGIC>MOL_PROPERTY
Idih
SciTegic.value.DoubleValue
0.000

@<SCITEGIC>MOL_PROPERTY
Tether
SciTegic.value.DoubleValue
0.000

@<TRIPOS>MOLECULE
guest-s19_confgen4.mol2 : confsearch ligand conformer 129
          17          16           1
SMALL
USER_CHARGES
 
@<TRIPOS>ATOM
       1    C1      19.065632   19.638591   25.114499 C.2        1 MOL1         0.6173
       2    O1      18.223108   19.062613   25.774883 O.co2      1 MOL1        -0.6755
       3    O2      19.574597   20.687478   25.462615 O.co2      1 MOL1        -0.6755
       4    C2      19.477228   19.013175   23.828573 C.2        1 MOL1        -0.1504
       5    H1      18.984015   18.077087   23.576801 H          1 MOL1         0.0814
       6    C3      20.400591   19.542839   22.994341 C.2        1 MOL1        -0.1394
       7    H2      20.899140   20.481443   23.235678 H          1 MOL1         0.0817
       8    C4      20.811941   18.901431   21.687198 C.3        1 MOL1        -0.1849
       9    H3      20.857598   17.809899   21.802445 H          1 MOL1         0.0736
      10    H4      21.825145   19.229961   21.419108 H          1 MOL1         0.0736
      11    C5      19.834093   19.264435   20.550951 C.3        1 MOL1        -0.1866
      12    H5      18.820525   18.932622   20.815791 H          1 MOL1         0.0738
      13    H6      19.791702   20.356504   20.436254 H          1 MOL1         0.0738
      14    C6      20.251710   18.622094   19.212848 C.3        1 MOL1        -0.2879
      15    H7      21.250173   18.962315   18.908293 H          1 MOL1         0.0750
      16    H8      20.271787   17.527213   19.292026 H          1 MOL1         0.0750
      17    H9      19.544768   18.891337   18.417316 H          1 MOL1         0.0750
@<TRIPOS>BOND
    1     1     2    1
    2     1     3    2
    3     1     4    1
    4     4     5    1
    5     4     6    2
    6     6     7    1
    7     6     8    1
    8     8     9    1
    9     8    10    1
   10     8    11    1
   11    11    12    1
   12    11    13    1
   13    11    14    1
   14    14    15    1
   15    14    16    1
   16    14    17    1
@<TRIPOS>SUBSTRUCTURE
       1 MOL1            1 RESIDUE      1      MOL     
@<SCITEGIC>MOL_PROPERTY
VConf Rank
SciTegic.value.IntegerValue
129

@<SCITEGIC>MOL_PROPERTY
Conf_Id
SciTegic.value.IntegerValue
36

@<SCITEGIC>MOL_PROPERTY
Delta U+W
SciTegic.value.DoubleValue
0.000

@<SCITEGIC>MOL_PROPERTY
U+W
SciTegic.value.DoubleValue
-53.409

@<SCITEGIC>MOL_PROPERTY
Grad RMS
SciTegic.value.DoubleValue
0.000000

@<SCITEGIC>MOL_PROPERTY
U
SciTegic.value.DoubleValue
9.048

@<SCITEGIC>MOL_PROPERTY
W
SciTegic.value.DoubleValue
-62.457

@<SCITEGIC>MOL_PROPERTY
W(PB)
SciTegic.value.DoubleValue
-64.540

@<SCITEGIC>MOL_PROPERTY
W(SA)
SciTegic.value.DoubleValue
2.084

@<SCITEGIC>MOL_PROPERTY
Valence
SciTegic.value.DoubleValue
2.652

@<SCITEGIC>MOL_PROPERTY
Coulomb
SciTegic.value.DoubleValue
5.578

@<SCITEGIC>MOL_PROPERTY
VdW
SciTegic.value.DoubleValue
0.818

@<SCITEGIC>MOL_PROPERTY
VdW6
SciTegic.value.DoubleValue
-4.534

@<SCITEGIC>MOL_PROPERTY
VdW12
SciTegic.value.DoubleValue
5.352

@<SCITEGIC>MOL_PROPERTY
Bond
SciTegic.value.DoubleValue
0.063

@<SCITEGIC>MOL_PROPERTY
Angle
SciTegic.value.DoubleValue
2.579

@<SCITEGIC>MOL_PROPERTY
Pdih
SciTegic.value.DoubleValue
0.010

@<SCITEGIC>MOL_PROPERTY
Idih
SciTegic.value.DoubleValue
0.000

@<SCITEGIC>MOL_PROPERTY
Tether
SciTegic.value.DoubleValue
0.000

@<TRIPOS>MOLECULE
guest-s19_confgen4.mol2 : confsearch ligand conformer 130
          17          16           1
SMALL
USER_CHARGES
 
@<TRIPOS>ATOM
       1    C1      20.321572   18.549776   18.598880 C.2        1 MOL1         0.6173
       2    O1      21.309854   17.856859   18.445392 O.co2      1 MOL1        -0.6755
       3    O2      19.739466   19.083235   17.674607 O.co2      1 MOL1        -0.6755
       4    C2      19.782084   18.767364   19.968467 C.2        1 MOL1        -0.1504
       5    H1      18.897304   19.396299   20.035661 H          1 MOL1         0.0814
       6    C3      20.327901   18.237287   21.086586 C.2        1 MOL1        -0.1394
       7    H2      21.215642   17.607529   21.030955 H          1 MOL1         0.0817
       8    C4      19.774043   18.465058   22.476047 C.3        1 MOL1        -0.1849
       9    H3      20.069445   17.633945   23.130552 H          1 MOL1         0.0736
      10    H4      18.675873   18.465043   22.447254 H          1 MOL1         0.0736
      11    C5      20.279131   19.795347   23.071222 C.3        1 MOL1        -0.1866
      12    H5      21.377616   19.792081   23.100981 H          1 MOL1         0.0738
      13    H6      19.980847   20.628423   22.419630 H          1 MOL1         0.0738
      14    C6      19.726362   20.030522   24.491315 C.3        1 MOL1        -0.2879
      15    H7      20.036913   19.226977   25.171980 H          1 MOL1         0.0750
      16    H8      20.096295   20.980784   24.897865 H          1 MOL1         0.0750
      17    H9      18.629143   20.069204   24.484350 H          1 MOL1         0.0750
@<TRIPOS>BOND
    1     1     2    1
    2     1     3    2
    3     1     4    1
    4     4     5    1
    5     4     6    2
    6     6     7    1
    7     6     8    1
    8     8     9    1
    9     8    10    1
   10     8    11    1
   11    11    12    1
   12    11    13    1
   13    11    14    1
   14    14    15    1
   15    14    16    1
   16    14    17    1
@<TRIPOS>SUBSTRUCTURE
       1 MOL1            1 RESIDUE      1      MOL     
@<SCITEGIC>MOL_PROPERTY
VConf Rank
SciTegic.value.IntegerValue
130

@<SCITEGIC>MOL_PROPERTY
Conf_Id
SciTegic.value.IntegerValue
1

@<SCITEGIC>MOL_PROPERTY
Delta U+W
SciTegic.value.DoubleValue
0.030

@<SCITEGIC>MOL_PROPERTY
U+W
SciTegic.value.DoubleValue
-53.378

@<SCITEGIC>MOL_PROPERTY
Grad RMS
SciTegic.value.DoubleValue
0.000000

@<SCITEGIC>MOL_PROPERTY
U
SciTegic.value.DoubleValue
9.048

@<SCITEGIC>MOL_PROPERTY
W
SciTegic.value.DoubleValue
-62.426

@<SCITEGIC>MOL_PROPERTY
W(PB)
SciTegic.value.DoubleValue
-64.506

@<SCITEGIC>MOL_PROPERTY
W(SA)
SciTegic.value.DoubleValue
2.080

@<SCITEGIC>MOL_PROPERTY
Valence
SciTegic.value.DoubleValue
2.652

@<SCITEGIC>MOL_PROPERTY
Coulomb
SciTegic.value.DoubleValue
5.578

@<SCITEGIC>MOL_PROPERTY
VdW
SciTegic.value.DoubleValue
0.818

@<SCITEGIC>MOL_PROPERTY
VdW6
SciTegic.value.DoubleValue
-4.535

@<SCITEGIC>MOL_PROPERTY
VdW12
SciTegic.value.DoubleValue
5.352

@<SCITEGIC>MOL_PROPERTY
Bond
SciTegic.value.DoubleValue
0.063

@<SCITEGIC>MOL_PROPERTY
Angle
SciTegic.value.DoubleValue
2.579

@<SCITEGIC>MOL_PROPERTY
Pdih
SciTegic.value.DoubleValue
0.010

@<SCITEGIC>MOL_PROPERTY
Idih
SciTegic.value.DoubleValue
0.000

@<SCITEGIC>MOL_PROPERTY
Tether
SciTegic.value.DoubleValue
0.000

@<TRIPOS>MOLECULE
guest-s19_confgen4.mol2 : confsearch ligand conformer 131
          17          16           1
SMALL
USER_CHARGES
 
@<TRIPOS>ATOM
       1    C1      20.147585   19.229517   18.974156 C.2        1 MOL1         0.6173
       2    O1      20.167449   18.044013   18.700981 O.co2      1 MOL1        -0.6755
       3    O2      19.904607   20.091973   18.152607 O.co2      1 MOL1        -0.6755
       4    C2      20.433332   19.668070   20.367035 C.2        1 MOL1        -0.1504
       5    H1      20.400253   20.740742   20.543215 H          1 MOL1         0.0814
       6    C3      20.717450   18.819485   21.381021 C.2        1 MOL1        -0.1394
       7    H2      20.749884   17.742714   21.216376 H          1 MOL1         0.0817
       8    C4      21.003446   19.272997   22.797194 C.3        1 MOL1        -0.1849
       9    H3      21.629655   20.175175   22.775637 H          1 MOL1         0.0736
      10    H4      21.588599   18.506668   23.323149 H          1 MOL1         0.0736
      11    C5      19.712392   19.571749   23.590598 C.3        1 MOL1        -0.1866
      12    H5      19.981408   19.994839   24.568238 H          1 MOL1         0.0738
      13    H6      19.125294   20.339193   23.067363 H          1 MOL1         0.0738
      14    C6      18.846384   18.312411   23.806955 C.3        1 MOL1        -0.2879
      15    H7      19.409533   17.535419   24.340144 H          1 MOL1         0.0750
      16    H8      17.955914   18.553960   24.401617 H          1 MOL1         0.0750
      17    H9      18.508371   17.894873   22.849547 H          1 MOL1         0.0750
@<TRIPOS>BOND
    1     1     2    1
    2     1     3    2
    3     1     4    1
    4     4     5    1
    5     4     6    2
    6     6     7    1
    7     6     8    1
    8     8     9    1
    9     8    10    1
   10     8    11    1
   11    11    12    1
   12    11    13    1
   13    11    14    1
   14    14    15    1
   15    14    16    1
   16    14    17    1
@<TRIPOS>SUBSTRUCTURE
       1 MOL1            1 RESIDUE      1      MOL     
@<SCITEGIC>MOL_PROPERTY
VConf Rank
SciTegic.value.IntegerValue
131

@<SCITEGIC>MOL_PROPERTY
Conf_Id
SciTegic.value.IntegerValue
3

@<SCITEGIC>MOL_PROPERTY
Delta U+W
SciTegic.value.DoubleValue
0.531

@<SCITEGIC>MOL_PROPERTY
U+W
SciTegic.value.DoubleValue
-52.878

@<SCITEGIC>MOL_PROPERTY
Grad RMS
SciTegic.value.DoubleValue
0.000000

@<SCITEGIC>MOL_PROPERTY
U
SciTegic.value.DoubleValue
10.067

@<SCITEGIC>MOL_PROPERTY
W
SciTegic.value.DoubleValue
-62.945

@<SCITEGIC>MOL_PROPERTY
W(PB)
SciTegic.value.DoubleValue
-64.982

@<SCITEGIC>MOL_PROPERTY
W(SA)
SciTegic.value.DoubleValue
2.037

@<SCITEGIC>MOL_PROPERTY
Valence
SciTegic.value.DoubleValue
2.779

@<SCITEGIC>MOL_PROPERTY
Coulomb
SciTegic.value.DoubleValue
6.474

@<SCITEGIC>MOL_PROPERTY
VdW
SciTegic.value.DoubleValue
0.815

@<SCITEGIC>MOL_PROPERTY
VdW6
SciTegic.value.DoubleValue
-5.088

@<SCITEGIC>MOL_PROPERTY
VdW12
SciTegic.value.DoubleValue
5.902

@<SCITEGIC>MOL_PROPERTY
Bond
SciTegic.value.DoubleValue
0.078

@<SCITEGIC>MOL_PROPERTY
Angle
SciTegic.value.DoubleValue
2.651

@<SCITEGIC>MOL_PROPERTY
Pdih
SciTegic.value.DoubleValue
0.050

@<SCITEGIC>MOL_PROPERTY
Idih
SciTegic.value.DoubleValue
0.000

@<SCITEGIC>MOL_PROPERTY
Tether
SciTegic.value.DoubleValue
0.000

@<TRIPOS>MOLECULE
guest-s19_confgen4.mol2 : confsearch ligand conformer 132
          17          16           1
SMALL
USER_CHARGES
 
@<TRIPOS>ATOM
       1    C1      20.263737   16.100073   22.275059 C.2        1 MOL1         0.6173
       2    O1      19.622988   15.302519   22.931663 O.co2      1 MOL1        -0.6755
       3    O2      21.377062   15.859765   21.847034 O.co2      1 MOL1        -0.6755
       4    C2      19.636435   17.419569   21.993109 C.2        1 MOL1        -0.1504
       5    H1      18.640937   17.568641   22.404773 H          1 MOL1         0.0814
       6    C3      20.233862   18.400804   21.279077 C.2        1 MOL1        -0.1394
       7    H2      21.232615   18.261133   20.866158 H          1 MOL1         0.0817
       8    C4      19.593766   19.744124   20.996049 C.3        1 MOL1        -0.1849
       9    H3      18.509633   19.699379   21.167489 H          1 MOL1         0.0736
      10    H4      19.724929   19.986752   19.933064 H          1 MOL1         0.0736
      11    C5      20.207457   20.876918   21.847712 C.3        1 MOL1        -0.1866
      12    H5      21.292362   20.920654   21.678813 H          1 MOL1         0.0738
      13    H6      19.798525   21.839767   21.511714 H          1 MOL1         0.0738
      14    C6      19.921951   20.707916   23.355278 C.3        1 MOL1        -0.2879
      15    H7      20.372281   19.784795   23.742710 H          1 MOL1         0.0750
      16    H8      20.338358   21.549508   23.923780 H          1 MOL1         0.0750
      17    H9      18.841982   20.669405   23.548349 H          1 MOL1         0.0750
@<TRIPOS>BOND
    1     1     2    1
    2     1     3    2
    3     1     4    1
    4     4     5    1
    5     4     6    2
    6     6     7    1
    7     6     8    1
    8     8     9    1
    9     8    10    1
   10     8    11    1
   11    11    12    1
   12    11    13    1
   13    11    14    1
   14    14    15    1
   15    14    16    1
   16    14    17    1
@<TRIPOS>SUBSTRUCTURE
       1 MOL1            1 RESIDUE      1      MOL     
@<SCITEGIC>MOL_PROPERTY
VConf Rank
SciTegic.value.IntegerValue
132

@<SCITEGIC>MOL_PROPERTY
Conf_Id
SciTegic.value.IntegerValue
45

@<SCITEGIC>MOL_PROPERTY
Delta U+W
SciTegic.value.DoubleValue
0.562

@<SCITEGIC>MOL_PROPERTY
U+W
SciTegic.value.DoubleValue
-52.846

@<SCITEGIC>MOL_PROPERTY
Grad RMS
SciTegic.value.DoubleValue
0.000000

@<SCITEGIC>MOL_PROPERTY
U
SciTegic.value.DoubleValue
10.243

@<SCITEGIC>MOL_PROPERTY
W
SciTegic.value.DoubleValue
-63.089

@<SCITEGIC>MOL_PROPERTY
W(PB)
SciTegic.value.DoubleValue
-65.116

@<SCITEGIC>MOL_PROPERTY
W(SA)
SciTegic.value.DoubleValue
2.026

@<SCITEGIC>MOL_PROPERTY
Valence
SciTegic.value.DoubleValue
2.822

@<SCITEGIC>MOL_PROPERTY
Coulomb
SciTegic.value.DoubleValue
6.637

@<SCITEGIC>MOL_PROPERTY
VdW
SciTegic.value.DoubleValue
0.785

@<SCITEGIC>MOL_PROPERTY
VdW6
SciTegic.value.DoubleValue
-5.216

@<SCITEGIC>MOL_PROPERTY
VdW12
SciTegic.value.DoubleValue
6.001

@<SCITEGIC>MOL_PROPERTY
Bond
SciTegic.value.DoubleValue
0.080

@<SCITEGIC>MOL_PROPERTY
Angle
SciTegic.value.DoubleValue
2.678

@<SCITEGIC>MOL_PROPERTY
Pdih
SciTegic.value.DoubleValue
0.064

@<SCITEGIC>MOL_PROPERTY
Idih
SciTegic.value.DoubleValue
0.000

@<SCITEGIC>MOL_PROPERTY
Tether
SciTegic.value.DoubleValue
0.000

@<TRIPOS>MOLECULE
guest-s19_confgen4.mol2 : confsearch ligand conformer 133
          17          16           1
SMALL
USER_CHARGES
 
@<TRIPOS>ATOM
       1    C1      21.767292   18.514041   19.108863 C.2        1 MOL1         0.6173
       2    O1      22.198064   17.460179   18.682818 O.co2      1 MOL1        -0.6755
       3    O2      22.117552   19.595046   18.673961 O.co2      1 MOL1        -0.6755
       4    C2      20.767814   18.453561   20.209566 C.2        1 MOL1        -0.1504
       5    H1      20.498352   17.456950   20.551714 H          1 MOL1         0.0814
       6    C3      20.206714   19.544457   20.778950 C.2        1 MOL1        -0.1394
       7    H2      20.471268   20.547739   20.445470 H          1 MOL1         0.0817
       8    C4      19.192505   19.474279   21.899527 C.3        1 MOL1        -0.1849
       9    H3      18.510011   18.629134   21.735997 H          1 MOL1         0.0736
      10    H4      18.573519   20.381581   21.892729 H          1 MOL1         0.0736
      11    C5      19.880880   19.329387   23.272174 C.3        1 MOL1        -0.1866
      12    H5      20.497338   18.419749   23.282073 H          1 MOL1         0.0738
      13    H6      20.561390   20.176848   23.434303 H          1 MOL1         0.0738
      14    C6      18.854077   19.266637   24.420766 C.3        1 MOL1        -0.2879
      15    H7      18.244746   20.179367   24.453479 H          1 MOL1         0.0750
      16    H8      18.180142   18.408520   24.298770 H          1 MOL1         0.0750
      17    H9      19.362088   19.163562   25.388459 H          1 MOL1         0.0750
@<TRIPOS>BOND
    1     1     2    1
    2     1     3    2
    3     1     4    1
    4     4     5    1
    5     4     6    2
    6     6     7    1
    7     6     8    1
    8     8     9    1
    9     8    10    1
   10     8    11    1
   11    11    12    1
   12    11    13    1
   13    11    14    1
   14    14    15    1
   15    14    16    1
   16    14    17    1
@<TRIPOS>SUBSTRUCTURE
       1 MOL1            1 RESIDUE      1      MOL     
@<SCITEGIC>MOL_PROPERTY
VConf Rank
SciTegic.value.IntegerValue
133

@<SCITEGIC>MOL_PROPERTY
Conf_Id
SciTegic.value.IntegerValue
36

@<SCITEGIC>MOL_PROPERTY
Delta U+W
SciTegic.value.DoubleValue
0.000

@<SCITEGIC>MOL_PROPERTY
U+W
SciTegic.value.DoubleValue
-53.409

@<SCITEGIC>MOL_PROPERTY
Grad RMS
SciTegic.value.DoubleValue
0.000000

@<SCITEGIC>MOL_PROPERTY
U
SciTegic.value.DoubleValue
9.048

@<SCITEGIC>MOL_PROPERTY
W
SciTegic.value.DoubleValue
-62.457

@<SCITEGIC>MOL_PROPERTY
W(PB)
SciTegic.value.DoubleValue
-64.540

@<SCITEGIC>MOL_PROPERTY
W(SA)
SciTegic.value.DoubleValue
2.084

@<SCITEGIC>MOL_PROPERTY
Valence
SciTegic.value.DoubleValue
2.652

@<SCITEGIC>MOL_PROPERTY
Coulomb
SciTegic.value.DoubleValue
5.578

@<SCITEGIC>MOL_PROPERTY
VdW
SciTegic.value.DoubleValue
0.818

@<SCITEGIC>MOL_PROPERTY
VdW6
SciTegic.value.DoubleValue
-4.534

@<SCITEGIC>MOL_PROPERTY
VdW12
SciTegic.value.DoubleValue
5.352

@<SCITEGIC>MOL_PROPERTY
Bond
SciTegic.value.DoubleValue
0.063

@<SCITEGIC>MOL_PROPERTY
Angle
SciTegic.value.DoubleValue
2.579

@<SCITEGIC>MOL_PROPERTY
Pdih
SciTegic.value.DoubleValue
0.010

@<SCITEGIC>MOL_PROPERTY
Idih
SciTegic.value.DoubleValue
0.000

@<SCITEGIC>MOL_PROPERTY
Tether
SciTegic.value.DoubleValue
0.000

@<TRIPOS>MOLECULE
guest-s19_confgen4.mol2 : confsearch ligand conformer 134
          17          16           1
SMALL
USER_CHARGES
 
@<TRIPOS>ATOM
       1    C1      20.911485   22.339163   21.722742 C.2        1 MOL1         0.6173
       2    O1      19.890054   22.977924   21.552279 O.co2      1 MOL1        -0.6755
       3    O2      22.020143   22.825645   21.613578 O.co2      1 MOL1        -0.6755
       4    C2      20.825504   20.897918   22.082719 C.2        1 MOL1        -0.1504
       5    H1      21.775000   20.385789   22.220890 H          1 MOL1         0.0814
       6    C3      19.660981   20.227521   22.236144 C.2        1 MOL1        -0.1394
       7    H2      18.703979   20.730333   22.097936 H          1 MOL1         0.0817
       8    C4      19.582341   18.761147   22.600565 C.3        1 MOL1        -0.1849
       9    H3      18.620400   18.554566   23.088807 H          1 MOL1         0.0736
      10    H4      20.363615   18.513543   23.332077 H          1 MOL1         0.0736
      11    C5      19.732192   17.863766   21.355066 C.3        1 MOL1        -0.1866
      12    H5      18.948411   18.111791   20.625863 H          1 MOL1         0.0738
      13    H6      20.696022   18.066295   20.867649 H          1 MOL1         0.0738
      14    C6      19.643867   16.367497   21.716873 C.3        1 MOL1        -0.2879
      15    H7      18.675818   16.131102   22.177773 H          1 MOL1         0.0750
      16    H8      19.752497   15.745408   20.818911 H          1 MOL1         0.0750
      17    H9      20.437183   16.086324   22.421874 H          1 MOL1         0.0750
@<TRIPOS>BOND
    1     1     2    1
    2     1     3    2
    3     1     4    1
    4     4     5    1
    5     4     6    2
    6     6     7    1
    7     6     8    1
    8     8     9    1
    9     8    10    1
   10     8    11    1
   11    11    12    1
   12    11    13    1
   13    11    14    1
   14    14    15    1
   15    14    16    1
   16    14    17    1
@<TRIPOS>SUBSTRUCTURE
       1 MOL1            1 RESIDUE      1      MOL     
@<SCITEGIC>MOL_PROPERTY
VConf Rank
SciTegic.value.IntegerValue
134

@<SCITEGIC>MOL_PROPERTY
Conf_Id
SciTegic.value.IntegerValue
1

@<SCITEGIC>MOL_PROPERTY
Delta U+W
SciTegic.value.DoubleValue
0.030

@<SCITEGIC>MOL_PROPERTY
U+W
SciTegic.value.DoubleValue
-53.378

@<SCITEGIC>MOL_PROPERTY
Grad RMS
SciTegic.value.DoubleValue
0.000000

@<SCITEGIC>MOL_PROPERTY
U
SciTegic.value.DoubleValue
9.048

@<SCITEGIC>MOL_PROPERTY
W
SciTegic.value.DoubleValue
-62.426

@<SCITEGIC>MOL_PROPERTY
W(PB)
SciTegic.value.DoubleValue
-64.506

@<SCITEGIC>MOL_PROPERTY
W(SA)
SciTegic.value.DoubleValue
2.080

@<SCITEGIC>MOL_PROPERTY
Valence
SciTegic.value.DoubleValue
2.652

@<SCITEGIC>MOL_PROPERTY
Coulomb
SciTegic.value.DoubleValue
5.578

@<SCITEGIC>MOL_PROPERTY
VdW
SciTegic.value.DoubleValue
0.818

@<SCITEGIC>MOL_PROPERTY
VdW6
SciTegic.value.DoubleValue
-4.535

@<SCITEGIC>MOL_PROPERTY
VdW12
SciTegic.value.DoubleValue
5.352

@<SCITEGIC>MOL_PROPERTY
Bond
SciTegic.value.DoubleValue
0.063

@<SCITEGIC>MOL_PROPERTY
Angle
SciTegic.value.DoubleValue
2.579

@<SCITEGIC>MOL_PROPERTY
Pdih
SciTegic.value.DoubleValue
0.010

@<SCITEGIC>MOL_PROPERTY
Idih
SciTegic.value.DoubleValue
0.000

@<SCITEGIC>MOL_PROPERTY
Tether
SciTegic.value.DoubleValue
0.000

@<TRIPOS>MOLECULE
guest-s19_confgen4.mol2 : confsearch ligand conformer 135
          17          16           1
SMALL
USER_CHARGES
 
@<TRIPOS>ATOM
       1    C1      22.456136   19.546501   20.223242 C.2        1 MOL1         0.6173
       2    O1      23.360955   19.341821   21.010547 O.co2      1 MOL1        -0.6755
       3    O2      22.622422   19.573094   19.019310 O.co2      1 MOL1        -0.6755
       4    C2      21.077589   19.780731   20.732003 C.2        1 MOL1        -0.1504
       5    H1      20.316295   19.958195   19.975895 H          1 MOL1         0.0814
       6    C3      20.747738   19.778234   22.043558 C.2        1 MOL1        -0.1394
       7    H2      21.501926   19.598147   22.809305 H          1 MOL1         0.0817
       8    C4      19.341566   20.013588   22.553757 C.3        1 MOL1        -0.1849
       9    H3      18.867878   20.815483   21.971426 H          1 MOL1         0.0736
      10    H4      19.376345   20.369027   23.592385 H          1 MOL1         0.0736
      11    C5      18.466400   18.743585   22.471662 C.3        1 MOL1        -0.1866
      12    H5      17.435550   18.998939   22.753258 H          1 MOL1         0.0738
      13    H6      18.428675   18.386225   21.433251 H          1 MOL1         0.0738
      14    C6      18.975657   17.613875   23.392056 C.3        1 MOL1        -0.2879
      15    H7      19.009707   17.944952   24.438179 H          1 MOL1         0.0750
      16    H8      18.312873   16.740786   23.334266 H          1 MOL1         0.0750
      17    H9      19.983843   17.290618   23.101733 H          1 MOL1         0.0750
@<TRIPOS>BOND
    1     1     2    1
    2     1     3    2
    3     1     4    1
    4     4     5    1
    5     4     6    2
    6     6     7    1
    7     6     8    1
    8     8     9    1
    9     8    10    1
   10     8    11    1
   11    11    12    1
   12    11    13    1
   13    11    14    1
   14    14    15    1
   15    14    16    1
   16    14    17    1
@<TRIPOS>SUBSTRUCTURE
       1 MOL1            1 RESIDUE      1      MOL     
@<SCITEGIC>MOL_PROPERTY
VConf Rank
SciTegic.value.IntegerValue
135

@<SCITEGIC>MOL_PROPERTY
Conf_Id
SciTegic.value.IntegerValue
3

@<SCITEGIC>MOL_PROPERTY
Delta U+W
SciTegic.value.DoubleValue
0.531

@<SCITEGIC>MOL_PROPERTY
U+W
SciTegic.value.DoubleValue
-52.878

@<SCITEGIC>MOL_PROPERTY
Grad RMS
SciTegic.value.DoubleValue
0.000000

@<SCITEGIC>MOL_PROPERTY
U
SciTegic.value.DoubleValue
10.067

@<SCITEGIC>MOL_PROPERTY
W
SciTegic.value.DoubleValue
-62.945

@<SCITEGIC>MOL_PROPERTY
W(PB)
SciTegic.value.DoubleValue
-64.982

@<SCITEGIC>MOL_PROPERTY
W(SA)
SciTegic.value.DoubleValue
2.037

@<SCITEGIC>MOL_PROPERTY
Valence
SciTegic.value.DoubleValue
2.779

@<SCITEGIC>MOL_PROPERTY
Coulomb
SciTegic.value.DoubleValue
6.474

@<SCITEGIC>MOL_PROPERTY
VdW
SciTegic.value.DoubleValue
0.815

@<SCITEGIC>MOL_PROPERTY
VdW6
SciTegic.value.DoubleValue
-5.088

@<SCITEGIC>MOL_PROPERTY
VdW12
SciTegic.value.DoubleValue
5.902

@<SCITEGIC>MOL_PROPERTY
Bond
SciTegic.value.DoubleValue
0.078

@<SCITEGIC>MOL_PROPERTY
Angle
SciTegic.value.DoubleValue
2.651

@<SCITEGIC>MOL_PROPERTY
Pdih
SciTegic.value.DoubleValue
0.050

@<SCITEGIC>MOL_PROPERTY
Idih
SciTegic.value.DoubleValue
0.000

@<SCITEGIC>MOL_PROPERTY
Tether
SciTegic.value.DoubleValue
0.000

@<TRIPOS>MOLECULE
guest-s19_confgen4.mol2 : confsearch ligand conformer 136
          17          16           1
SMALL
USER_CHARGES
 
@<TRIPOS>ATOM
       1    C1      18.020262   18.980572   19.779773 C.2        1 MOL1         0.6173
       2    O1      17.418186   19.880905   19.227792 O.co2      1 MOL1        -0.6755
       3    O2      17.662982   17.818604   19.728499 O.co2      1 MOL1        -0.6755
       4    C2      19.246278   19.340010   20.542506 C.2        1 MOL1        -0.1504
       5    H1      19.508892   20.395337   20.547511 H          1 MOL1         0.0814
       6    C3      20.011112   18.443056   21.205897 C.2        1 MOL1        -0.1394
       7    H2      19.753142   17.384302   21.209093 H          1 MOL1         0.0817
       8    C4      21.257195   18.812442   21.983823 C.3        1 MOL1        -0.1849
       9    H3      21.616277   19.807713   21.688467 H          1 MOL1         0.0736
      10    H4      22.061106   18.109501   21.727680 H          1 MOL1         0.0736
      11    C5      21.027429   18.775713   23.510593 C.3        1 MOL1        -0.1866
      12    H5      20.665682   17.781223   23.806546 H          1 MOL1         0.0738
      13    H6      21.988690   18.924776   24.021432 H          1 MOL1         0.0738
      14    C6      20.031877   19.854712   23.987527 C.3        1 MOL1        -0.2879
      15    H7      19.038590   19.699911   23.546538 H          1 MOL1         0.0750
      16    H8      19.923456   19.824358   25.079402 H          1 MOL1         0.0750
      17    H9      20.377724   20.858588   23.708752 H          1 MOL1         0.0750
@<TRIPOS>BOND
    1     1     2    1
    2     1     3    2
    3     1     4    1
    4     4     5    1
    5     4     6    2
    6     6     7    1
    7     6     8    1
    8     8     9    1
    9     8    10    1
   10     8    11    1
   11    11    12    1
   12    11    13    1
   13    11    14    1
   14    14    15    1
   15    14    16    1
   16    14    17    1
@<TRIPOS>SUBSTRUCTURE
       1 MOL1            1 RESIDUE      1      MOL     
@<SCITEGIC>MOL_PROPERTY
VConf Rank
SciTegic.value.IntegerValue
136

@<SCITEGIC>MOL_PROPERTY
Conf_Id
SciTegic.value.IntegerValue
45

@<SCITEGIC>MOL_PROPERTY
Delta U+W
SciTegic.value.DoubleValue
0.562

@<SCITEGIC>MOL_PROPERTY
U+W
SciTegic.value.DoubleValue
-52.846

@<SCITEGIC>MOL_PROPERTY
Grad RMS
SciTegic.value.DoubleValue
0.000000

@<SCITEGIC>MOL_PROPERTY
U
SciTegic.value.DoubleValue
10.243

@<SCITEGIC>MOL_PROPERTY
W
SciTegic.value.DoubleValue
-63.089

@<SCITEGIC>MOL_PROPERTY
W(PB)
SciTegic.value.DoubleValue
-65.116

@<SCITEGIC>MOL_PROPERTY
W(SA)
SciTegic.value.DoubleValue
2.026

@<SCITEGIC>MOL_PROPERTY
Valence
SciTegic.value.DoubleValue
2.822

@<SCITEGIC>MOL_PROPERTY
Coulomb
SciTegic.value.DoubleValue
6.637

@<SCITEGIC>MOL_PROPERTY
VdW
SciTegic.value.DoubleValue
0.785

@<SCITEGIC>MOL_PROPERTY
VdW6
SciTegic.value.DoubleValue
-5.216

@<SCITEGIC>MOL_PROPERTY
VdW12
SciTegic.value.DoubleValue
6.001

@<SCITEGIC>MOL_PROPERTY
Bond
SciTegic.value.DoubleValue
0.080

@<SCITEGIC>MOL_PROPERTY
Angle
SciTegic.value.DoubleValue
2.678

@<SCITEGIC>MOL_PROPERTY
Pdih
SciTegic.value.DoubleValue
0.064

@<SCITEGIC>MOL_PROPERTY
Idih
SciTegic.value.DoubleValue
0.000

@<SCITEGIC>MOL_PROPERTY
Tether
SciTegic.value.DoubleValue
0.000

@<TRIPOS>MOLECULE
guest-s19_confgen4.mol2 : confsearch ligand conformer 137
          17          16           1
SMALL
USER_CHARGES
 
@<TRIPOS>ATOM
       1    C1      22.704047   21.124892   21.896465 C.2        1 MOL1         0.6173
       2    O1      22.880204   22.175019   21.310030 O.co2      1 MOL1        -0.6755
       3    O2      23.607973   20.500664   22.419582 O.co2      1 MOL1        -0.6755
       4    C2      21.313079   20.600853   21.965394 C.2        1 MOL1        -0.1504
       5    H1      20.552892   21.206890   21.477805 H          1 MOL1         0.0814
       6    C3      20.972080   19.447004   22.583000 C.2        1 MOL1        -0.1394
       7    H2      21.726060   18.830911   23.072609 H          1 MOL1         0.0817
       8    C4      19.555238   18.919991   22.646665 C.3        1 MOL1        -0.1849
       9    H3      18.851245   19.751427   22.787793 H          1 MOL1         0.0736
      10    H4      19.445246   18.265485   23.521828 H          1 MOL1         0.0736
      11    C5      19.188407   18.138598   21.368434 C.3        1 MOL1        -0.1866
      12    H5      19.293895   18.793312   20.492202 H          1 MOL1         0.0738
      13    H6      19.892644   17.306367   21.230557 H          1 MOL1         0.0738
      14    C6      17.748689   17.589947   21.429431 C.3        1 MOL1        -0.2879
      15    H7      17.624332   16.906322   22.279504 H          1 MOL1         0.0750
      16    H8      17.021621   18.405686   21.536095 H          1 MOL1         0.0750
      17    H9      17.506098   17.037665   20.512226 H          1 MOL1         0.0750
@<TRIPOS>BOND
    1     1     2    1
    2     1     3    2
    3     1     4    1
    4     4     5    1
    5     4     6    2
    6     6     7    1
    7     6     8    1
    8     8     9    1
    9     8    10    1
   10     8    11    1
   11    11    12    1
   12    11    13    1
   13    11    14    1
   14    14    15    1
   15    14    16    1
   16    14    17    1
@<TRIPOS>SUBSTRUCTURE
       1 MOL1            1 RESIDUE      1      MOL     
@<SCITEGIC>MOL_PROPERTY
VConf Rank
SciTegic.value.IntegerValue
137

@<SCITEGIC>MOL_PROPERTY
Conf_Id
SciTegic.value.IntegerValue
36

@<SCITEGIC>MOL_PROPERTY
Delta U+W
SciTegic.value.DoubleValue
0.000

@<SCITEGIC>MOL_PROPERTY
U+W
SciTegic.value.DoubleValue
-53.409

@<SCITEGIC>MOL_PROPERTY
Grad RMS
SciTegic.value.DoubleValue
0.000000

@<SCITEGIC>MOL_PROPERTY
U
SciTegic.value.DoubleValue
9.048

@<SCITEGIC>MOL_PROPERTY
W
SciTegic.value.DoubleValue
-62.457

@<SCITEGIC>MOL_PROPERTY
W(PB)
SciTegic.value.DoubleValue
-64.540

@<SCITEGIC>MOL_PROPERTY
W(SA)
SciTegic.value.DoubleValue
2.084

@<SCITEGIC>MOL_PROPERTY
Valence
SciTegic.value.DoubleValue
2.652

@<SCITEGIC>MOL_PROPERTY
Coulomb
SciTegic.value.DoubleValue
5.578

@<SCITEGIC>MOL_PROPERTY
VdW
SciTegic.value.DoubleValue
0.818

@<SCITEGIC>MOL_PROPERTY
VdW6
SciTegic.value.DoubleValue
-4.534

@<SCITEGIC>MOL_PROPERTY
VdW12
SciTegic.value.DoubleValue
5.352

@<SCITEGIC>MOL_PROPERTY
Bond
SciTegic.value.DoubleValue
0.063

@<SCITEGIC>MOL_PROPERTY
Angle
SciTegic.value.DoubleValue
2.579

@<SCITEGIC>MOL_PROPERTY
Pdih
SciTegic.value.DoubleValue
0.010

@<SCITEGIC>MOL_PROPERTY
Idih
SciTegic.value.DoubleValue
0.000

@<SCITEGIC>MOL_PROPERTY
Tether
SciTegic.value.DoubleValue
0.000

@<TRIPOS>MOLECULE
guest-s19_confgen4.mol2 : confsearch ligand conformer 138
          17          16           1
SMALL
USER_CHARGES
 
@<TRIPOS>ATOM
       1    C1      22.550351   20.921984   20.648432 C.2        1 MOL1         0.6173
       2    O1      22.744022   20.520453   19.516328 O.co2      1 MOL1        -0.6755
       3    O2      23.307944   21.683717   21.217220 O.co2      1 MOL1        -0.6755
       4    C2      21.339214   20.476267   21.389140 C.2        1 MOL1        -0.1504
       5    H1      21.226110   20.872125   22.395824 H          1 MOL1         0.0814
       6    C3      20.413363   19.631428   20.881073 C.2        1 MOL1        -0.1394
       7    H2      20.517957   19.227161   19.874394 H          1 MOL1         0.0817
       8    C4      19.185289   19.181598   21.641813 C.3        1 MOL1        -0.1849
       9    H3      18.398617   18.891960   20.932134 H          1 MOL1         0.0736
      10    H4      18.782256   20.016170   22.231609 H          1 MOL1         0.0736
      11    C5      19.504379   17.993243   22.571873 C.3        1 MOL1        -0.1866
      12    H5      19.905276   17.159069   21.979418 H          1 MOL1         0.0738
      13    H6      20.288479   18.282686   23.285294 H          1 MOL1         0.0738
      14    C6      18.255468   17.522729   23.344119 C.3        1 MOL1        -0.2879
      15    H7      17.466121   17.197206   22.653904 H          1 MOL1         0.0750
      16    H8      18.501888   16.677499   23.999859 H          1 MOL1         0.0750
      17    H9      17.852758   18.330437   23.969312 H          1 MOL1         0.0750
@<TRIPOS>BOND
    1     1     2    1
    2     1     3    2
    3     1     4    1
    4     4     5    1
    5     4     6    2
    6     6     7    1
    7     6     8    1
    8     8     9    1
    9     8    10    1
   10     8    11    1
   11    11    12    1
   12    11    13    1
   13    11    14    1
   14    14    15    1
   15    14    16    1
   16    14    17    1
@<TRIPOS>SUBSTRUCTURE
       1 MOL1            1 RESIDUE      1      MOL     
@<SCITEGIC>MOL_PROPERTY
VConf Rank
SciTegic.value.IntegerValue
138

@<SCITEGIC>MOL_PROPERTY
Conf_Id
SciTegic.value.IntegerValue
1

@<SCITEGIC>MOL_PROPERTY
Delta U+W
SciTegic.value.DoubleValue
0.030

@<SCITEGIC>MOL_PROPERTY
U+W
SciTegic.value.DoubleValue
-53.378

@<SCITEGIC>MOL_PROPERTY
Grad RMS
SciTegic.value.DoubleValue
0.000000

@<SCITEGIC>MOL_PROPERTY
U
SciTegic.value.DoubleValue
9.048

@<SCITEGIC>MOL_PROPERTY
W
SciTegic.value.DoubleValue
-62.426

@<SCITEGIC>MOL_PROPERTY
W(PB)
SciTegic.value.DoubleValue
-64.506

@<SCITEGIC>MOL_PROPERTY
W(SA)
SciTegic.value.DoubleValue
2.080

@<SCITEGIC>MOL_PROPERTY
Valence
SciTegic.value.DoubleValue
2.652

@<SCITEGIC>MOL_PROPERTY
Coulomb
SciTegic.value.DoubleValue
5.578

@<SCITEGIC>MOL_PROPERTY
VdW
SciTegic.value.DoubleValue
0.818

@<SCITEGIC>MOL_PROPERTY
VdW6
SciTegic.value.DoubleValue
-4.535

@<SCITEGIC>MOL_PROPERTY
VdW12
SciTegic.value.DoubleValue
5.352

@<SCITEGIC>MOL_PROPERTY
Bond
SciTegic.value.DoubleValue
0.063

@<SCITEGIC>MOL_PROPERTY
Angle
SciTegic.value.DoubleValue
2.579

@<SCITEGIC>MOL_PROPERTY
Pdih
SciTegic.value.DoubleValue
0.010

@<SCITEGIC>MOL_PROPERTY
Idih
SciTegic.value.DoubleValue
0.000

@<SCITEGIC>MOL_PROPERTY
Tether
SciTegic.value.DoubleValue
0.000

@<TRIPOS>MOLECULE
guest-s19_confgen4.mol2 : confsearch ligand conformer 139
          17          16           1
SMALL
USER_CHARGES
 
@<TRIPOS>ATOM
       1    C1      20.906743   21.607950   20.515112 C.2        1 MOL1         0.6173
       2    O1      20.916432   22.422809   21.418635 O.co2      1 MOL1        -0.6755
       3    O2      21.449157   21.803007   19.444808 O.co2      1 MOL1        -0.6755
       4    C2      20.203923   20.309941   20.703014 C.2        1 MOL1        -0.1504
       5    H1      20.232638   19.627669   19.856586 H          1 MOL1         0.0814
       6    C3      19.560439   19.958953   21.839554 C.2        1 MOL1        -0.1394
       7    H2      19.528347   20.633490   22.694872 H          1 MOL1         0.0817
       8    C4      18.850531   18.634304   22.024892 C.3        1 MOL1        -0.1849
       9    H3      18.313105   18.372370   21.103431 H          1 MOL1         0.0736
      10    H4      18.086915   18.726962   22.808855 H          1 MOL1         0.0736
      11    C5      19.824471   17.491012   22.385290 C.3        1 MOL1        -0.1866
      12    H5      19.272509   16.541183   22.403028 H          1 MOL1         0.0738
      13    H6      20.589089   17.395039   21.601979 H          1 MOL1         0.0738
      14    C6      20.506060   17.704027   23.753783 C.3        1 MOL1        -0.2879
      15    H7      19.760291   17.790167   24.554753 H          1 MOL1         0.0750
      16    H8      21.164114   16.858622   23.992866 H          1 MOL1         0.0750
      17    H9      21.116790   18.616293   23.754375 H          1 MOL1         0.0750
@<TRIPOS>BOND
    1     1     2    1
    2     1     3    2
    3     1     4    1
    4     4     5    1
    5     4     6    2
    6     6     7    1
    7     6     8    1
    8     8     9    1
    9     8    10    1
   10     8    11    1
   11    11    12    1
   12    11    13    1
   13    11    14    1
   14    14    15    1
   15    14    16    1
   16    14    17    1
@<TRIPOS>SUBSTRUCTURE
       1 MOL1            1 RESIDUE      1      MOL     
@<SCITEGIC>MOL_PROPERTY
VConf Rank
SciTegic.value.IntegerValue
139

@<SCITEGIC>MOL_PROPERTY
Conf_Id
SciTegic.value.IntegerValue
3

@<SCITEGIC>MOL_PROPERTY
Delta U+W
SciTegic.value.DoubleValue
0.531

@<SCITEGIC>MOL_PROPERTY
U+W
SciTegic.value.DoubleValue
-52.878

@<SCITEGIC>MOL_PROPERTY
Grad RMS
SciTegic.value.DoubleValue
0.000000

@<SCITEGIC>MOL_PROPERTY
U
SciTegic.value.DoubleValue
10.067

@<SCITEGIC>MOL_PROPERTY
W
SciTegic.value.DoubleValue
-62.945

@<SCITEGIC>MOL_PROPERTY
W(PB)
SciTegic.value.DoubleValue
-64.982

@<SCITEGIC>MOL_PROPERTY
W(SA)
SciTegic.value.DoubleValue
2.037

@<SCITEGIC>MOL_PROPERTY
Valence
SciTegic.value.DoubleValue
2.779

@<SCITEGIC>MOL_PROPERTY
Coulomb
SciTegic.value.DoubleValue
6.474

@<SCITEGIC>MOL_PROPERTY
VdW
SciTegic.value.DoubleValue
0.815

@<SCITEGIC>MOL_PROPERTY
VdW6
SciTegic.value.DoubleValue
-5.088

@<SCITEGIC>MOL_PROPERTY
VdW12
SciTegic.value.DoubleValue
5.902

@<SCITEGIC>MOL_PROPERTY
Bond
SciTegic.value.DoubleValue
0.078

@<SCITEGIC>MOL_PROPERTY
Angle
SciTegic.value.DoubleValue
2.651

@<SCITEGIC>MOL_PROPERTY
Pdih
SciTegic.value.DoubleValue
0.050

@<SCITEGIC>MOL_PROPERTY
Idih
SciTegic.value.DoubleValue
0.000

@<SCITEGIC>MOL_PROPERTY
Tether
SciTegic.value.DoubleValue
0.000

@<TRIPOS>MOLECULE
guest-s19_confgen4.mol2 : confsearch ligand conformer 140
          17          16           1
SMALL
USER_CHARGES
 
@<TRIPOS>ATOM
       1    C1      20.001141   20.523684   24.739173 C.2        1 MOL1         0.6173
       2    O1      20.921929   21.064831   25.319767 O.co2      1 MOL1        -0.6755
       3    O2      18.990380   20.152340   25.305665 O.co2      1 MOL1        -0.6755
       4    C2      20.138434   20.320665   23.271520 C.2        1 MOL1        -0.1504
       5    H1      21.066137   20.675684   22.828760 H          1 MOL1         0.0814
       6    C3      19.195680   19.731798   22.500784 C.2        1 MOL1        -0.1394
       7    H2      18.264887   19.369933   22.936900 H          1 MOL1         0.0817
       8    C4      19.339536   19.524049   21.007304 C.3        1 MOL1        -0.1849
       9    H3      20.132022   20.167913   20.602158 H          1 MOL1         0.0736
      10    H4      18.410389   19.834706   20.511130 H          1 MOL1         0.0736
      11    C5      19.632045   18.051308   20.645866 C.3        1 MOL1        -0.1866
      12    H5      18.841130   17.406240   21.053051 H          1 MOL1         0.0738
      13    H6      19.598970   17.936904   19.553613 H          1 MOL1         0.0738
      14    C6      21.007634   17.575531   21.159889 C.3        1 MOL1        -0.2879
      15    H7      21.056130   17.614529   22.255873 H          1 MOL1         0.0750
      16    H8      21.197684   16.539344   20.851564 H          1 MOL1         0.0750
      17    H9      21.814751   18.202262   20.758813 H          1 MOL1         0.0750
@<TRIPOS>BOND
    1     1     2    1
    2     1     3    2
    3     1     4    1
    4     4     5    1
    5     4     6    2
    6     6     7    1
    7     6     8    1
    8     8     9    1
    9     8    10    1
   10     8    11    1
   11    11    12    1
   12    11    13    1
   13    11    14    1
   14    14    15    1
   15    14    16    1
   16    14    17    1
@<TRIPOS>SUBSTRUCTURE
       1 MOL1            1 RESIDUE      1      MOL     
@<SCITEGIC>MOL_PROPERTY
VConf Rank
SciTegic.value.IntegerValue
140

@<SCITEGIC>MOL_PROPERTY
Conf_Id
SciTegic.value.IntegerValue
45

@<SCITEGIC>MOL_PROPERTY
Delta U+W
SciTegic.value.DoubleValue
0.562

@<SCITEGIC>MOL_PROPERTY
U+W
SciTegic.value.DoubleValue
-52.846

@<SCITEGIC>MOL_PROPERTY
Grad RMS
SciTegic.value.DoubleValue
0.000000

@<SCITEGIC>MOL_PROPERTY
U
SciTegic.value.DoubleValue
10.243

@<SCITEGIC>MOL_PROPERTY
W
SciTegic.value.DoubleValue
-63.089

@<SCITEGIC>MOL_PROPERTY
W(PB)
SciTegic.value.DoubleValue
-65.116

@<SCITEGIC>MOL_PROPERTY
W(SA)
SciTegic.value.DoubleValue
2.026

@<SCITEGIC>MOL_PROPERTY
Valence
SciTegic.value.DoubleValue
2.822

@<SCITEGIC>MOL_PROPERTY
Coulomb
SciTegic.value.DoubleValue
6.637

@<SCITEGIC>MOL_PROPERTY
VdW
SciTegic.value.DoubleValue
0.785

@<SCITEGIC>MOL_PROPERTY
VdW6
SciTegic.value.DoubleValue
-5.216

@<SCITEGIC>MOL_PROPERTY
VdW12
SciTegic.value.DoubleValue
6.001

@<SCITEGIC>MOL_PROPERTY
Bond
SciTegic.value.DoubleValue
0.080

@<SCITEGIC>MOL_PROPERTY
Angle
SciTegic.value.DoubleValue
2.678

@<SCITEGIC>MOL_PROPERTY
Pdih
SciTegic.value.DoubleValue
0.064

@<SCITEGIC>MOL_PROPERTY
Idih
SciTegic.value.DoubleValue
0.000

@<SCITEGIC>MOL_PROPERTY
Tether
SciTegic.value.DoubleValue
0.000

@<TRIPOS>MOLECULE
guest-s19_confgen4.mol2 : confsearch ligand conformer 141
          17          16           1
SMALL
USER_CHARGES
 
@<TRIPOS>ATOM
       1    C1      19.079275   18.883539   18.674996 C.2        1 MOL1         0.6173
       2    O1      19.441887   18.089855   17.828662 O.co2      1 MOL1        -0.6755
       3    O2      18.464011   19.898754   18.408196 O.co2      1 MOL1        -0.6755
       4    C2      19.413034   18.577564   20.092439 C.2        1 MOL1        -0.1504
       5    H1      19.963871   17.655183   20.261848 H          1 MOL1         0.0814
       6    C3      19.074227   19.370195   21.134567 C.2        1 MOL1        -0.1394
       7    H2      18.524413   20.297726   20.975936 H          1 MOL1         0.0817
       8    C4      19.419451   19.052783   22.573076 C.3        1 MOL1        -0.1849
       9    H3      19.318645   17.973978   22.754255 H          1 MOL1         0.0736
      10    H4      18.703652   19.550081   23.241442 H          1 MOL1         0.0736
      11    C5      20.851777   19.507371   22.920648 C.3        1 MOL1        -0.1866
      12    H5      21.569607   19.007469   22.255533 H          1 MOL1         0.0738
      13    H6      20.949524   20.586995   22.740578 H          1 MOL1         0.0738
      14    C6      21.208134   19.195882   24.388133 C.3        1 MOL1        -0.2879
      15    H7      20.524204   19.709867   25.076240 H          1 MOL1         0.0750
      16    H8      21.148157   18.117714   24.586607 H          1 MOL1         0.0750
      17    H9      22.229880   19.526080   24.616464 H          1 MOL1         0.0750
@<TRIPOS>BOND
    1     1     2    1
    2     1     3    2
    3     1     4    1
    4     4     5    1
    5     4     6    2
    6     6     7    1
    7     6     8    1
    8     8     9    1
    9     8    10    1
   10     8    11    1
   11    11    12    1
   12    11    13    1
   13    11    14    1
   14    14    15    1
   15    14    16    1
   16    14    17    1
@<TRIPOS>SUBSTRUCTURE
       1 MOL1            1 RESIDUE      1      MOL     
@<SCITEGIC>MOL_PROPERTY
VConf Rank
SciTegic.value.IntegerValue
141

@<SCITEGIC>MOL_PROPERTY
Conf_Id
SciTegic.value.IntegerValue
36

@<SCITEGIC>MOL_PROPERTY
Delta U+W
SciTegic.value.DoubleValue
0.000

@<SCITEGIC>MOL_PROPERTY
U+W
SciTegic.value.DoubleValue
-53.409

@<SCITEGIC>MOL_PROPERTY
Grad RMS
SciTegic.value.DoubleValue
0.000000

@<SCITEGIC>MOL_PROPERTY
U
SciTegic.value.DoubleValue
9.048

@<SCITEGIC>MOL_PROPERTY
W
SciTegic.value.DoubleValue
-62.457

@<SCITEGIC>MOL_PROPERTY
W(PB)
SciTegic.value.DoubleValue
-64.540

@<SCITEGIC>MOL_PROPERTY
W(SA)
SciTegic.value.DoubleValue
2.084

@<SCITEGIC>MOL_PROPERTY
Valence
SciTegic.value.DoubleValue
2.652

@<SCITEGIC>MOL_PROPERTY
Coulomb
SciTegic.value.DoubleValue
5.578

@<SCITEGIC>MOL_PROPERTY
VdW
SciTegic.value.DoubleValue
0.818

@<SCITEGIC>MOL_PROPERTY
VdW6
SciTegic.value.DoubleValue
-4.534

@<SCITEGIC>MOL_PROPERTY
VdW12
SciTegic.value.DoubleValue
5.352

@<SCITEGIC>MOL_PROPERTY
Bond
SciTegic.value.DoubleValue
0.063

@<SCITEGIC>MOL_PROPERTY
Angle
SciTegic.value.DoubleValue
2.579

@<SCITEGIC>MOL_PROPERTY
Pdih
SciTegic.value.DoubleValue
0.010

@<SCITEGIC>MOL_PROPERTY
Idih
SciTegic.value.DoubleValue
0.000

@<SCITEGIC>MOL_PROPERTY
Tether
SciTegic.value.DoubleValue
0.000

@<TRIPOS>MOLECULE
guest-s19_confgen4.mol2 : confsearch ligand conformer 142
          17          16           1
SMALL
USER_CHARGES
 
@<TRIPOS>ATOM
       1    C1      22.115961   21.619101   21.152139 C.2        1 MOL1         0.6173
       2    O1      23.021068   21.581636   21.964402 O.co2      1 MOL1        -0.6755
       3    O2      21.956170   22.547913   20.384362 O.co2      1 MOL1        -0.6755
       4    C2      21.150366   20.489558   21.075190 C.2        1 MOL1        -0.1504
       5    H1      20.365958   20.585805   20.327961 H          1 MOL1         0.0814
       6    C3      21.206673   19.394553   21.866946 C.2        1 MOL1        -0.1394
       7    H2      21.987054   19.288880   22.620346 H          1 MOL1         0.0817
       8    C4      20.219494   18.250984   21.783475 C.3        1 MOL1        -0.1849
       9    H3      20.686674   17.333192   22.165297 H          1 MOL1         0.0736
      10    H4      19.958748   18.055767   20.734329 H          1 MOL1         0.0736
      11    C5      18.940102   18.553036   22.590282 C.3        1 MOL1        -0.1866
      12    H5      19.203243   18.745801   23.639646 H          1 MOL1         0.0738
      13    H6      18.469165   19.468862   22.206822 H          1 MOL1         0.0738
      14    C6      17.932468   17.388153   22.517842 C.3        1 MOL1        -0.2879
      15    H7      18.367775   16.466092   22.924955 H          1 MOL1         0.0750
      16    H8      17.029631   17.621161   23.097258 H          1 MOL1         0.0750
      17    H9      17.628941   17.195238   21.480494 H          1 MOL1         0.0750
@<TRIPOS>BOND
    1     1     2    1
    2     1     3    2
    3     1     4    1
    4     4     5    1
    5     4     6    2
    6     6     7    1
    7     6     8    1
    8     8     9    1
    9     8    10    1
   10     8    11    1
   11    11    12    1
   12    11    13    1
   13    11    14    1
   14    14    15    1
   15    14    16    1
   16    14    17    1
@<TRIPOS>SUBSTRUCTURE
       1 MOL1            1 RESIDUE      1      MOL     
@<SCITEGIC>MOL_PROPERTY
VConf Rank
SciTegic.value.IntegerValue
142

@<SCITEGIC>MOL_PROPERTY
Conf_Id
SciTegic.value.IntegerValue
1

@<SCITEGIC>MOL_PROPERTY
Delta U+W
SciTegic.value.DoubleValue
0.030

@<SCITEGIC>MOL_PROPERTY
U+W
SciTegic.value.DoubleValue
-53.378

@<SCITEGIC>MOL_PROPERTY
Grad RMS
SciTegic.value.DoubleValue
0.000000

@<SCITEGIC>MOL_PROPERTY
U
SciTegic.value.DoubleValue
9.048

@<SCITEGIC>MOL_PROPERTY
W
SciTegic.value.DoubleValue
-62.426

@<SCITEGIC>MOL_PROPERTY
W(PB)
SciTegic.value.DoubleValue
-64.506

@<SCITEGIC>MOL_PROPERTY
W(SA)
SciTegic.value.DoubleValue
2.080

@<SCITEGIC>MOL_PROPERTY
Valence
SciTegic.value.DoubleValue
2.652

@<SCITEGIC>MOL_PROPERTY
Coulomb
SciTegic.value.DoubleValue
5.578

@<SCITEGIC>MOL_PROPERTY
VdW
SciTegic.value.DoubleValue
0.818

@<SCITEGIC>MOL_PROPERTY
VdW6
SciTegic.value.DoubleValue
-4.535

@<SCITEGIC>MOL_PROPERTY
VdW12
SciTegic.value.DoubleValue
5.352

@<SCITEGIC>MOL_PROPERTY
Bond
SciTegic.value.DoubleValue
0.063

@<SCITEGIC>MOL_PROPERTY
Angle
SciTegic.value.DoubleValue
2.579

@<SCITEGIC>MOL_PROPERTY
Pdih
SciTegic.value.DoubleValue
0.010

@<SCITEGIC>MOL_PROPERTY
Idih
SciTegic.value.DoubleValue
0.000

@<SCITEGIC>MOL_PROPERTY
Tether
SciTegic.value.DoubleValue
0.000

@<TRIPOS>MOLECULE
guest-s19_confgen4.mol2 : confsearch ligand conformer 143
          17          16           1
SMALL
USER_CHARGES
 
@<TRIPOS>ATOM
       1    C1      21.970714   18.138967   24.236900 C.2        1 MOL1         0.6173
       2    O1      23.006760   18.634121   23.834569 O.co2      1 MOL1        -0.6755
       3    O2      21.838119   17.714215   25.368190 O.co2      1 MOL1        -0.6755
       4    C2      20.801849   18.034363   23.322075 C.2        1 MOL1        -0.1504
       5    H1      19.907808   17.581181   23.744067 H          1 MOL1         0.0814
       6    C3      20.806888   18.466137   22.040462 C.2        1 MOL1        -0.1394
       7    H2      21.696131   18.924752   21.608584 H          1 MOL1         0.0817
       8    C4      19.611986   18.359837   21.116382 C.3        1 MOL1        -0.1849
       9    H3      19.117970   17.389831   21.263231 H          1 MOL1         0.0736
      10    H4      19.946703   18.377700   20.070467 H          1 MOL1         0.0736
      11    C5      18.586266   19.490784   21.349659 C.3        1 MOL1        -0.1866
      12    H5      17.698338   19.303767   20.730174 H          1 MOL1         0.0738
      13    H6      18.248522   19.474681   22.395172 H          1 MOL1         0.0738
      14    C6      19.154954   20.884659   21.008461 C.3        1 MOL1        -0.2879
      15    H7      19.487650   20.927934   19.963192 H          1 MOL1         0.0750
      16    H8      18.390744   21.659207   21.153256 H          1 MOL1         0.0750
      17    H9      20.010152   21.131663   21.650992 H          1 MOL1         0.0750
@<TRIPOS>BOND
    1     1     2    1
    2     1     3    2
    3     1     4    1
    4     4     5    1
    5     4     6    2
    6     6     7    1
    7     6     8    1
    8     8     9    1
    9     8    10    1
   10     8    11    1
   11    11    12    1
   12    11    13    1
   13    11    14    1
   14    14    15    1
   15    14    16    1
   16    14    17    1
@<TRIPOS>SUBSTRUCTURE
       1 MOL1            1 RESIDUE      1      MOL     
@<SCITEGIC>MOL_PROPERTY
VConf Rank
SciTegic.value.IntegerValue
143

@<SCITEGIC>MOL_PROPERTY
Conf_Id
SciTegic.value.IntegerValue
3

@<SCITEGIC>MOL_PROPERTY
Delta U+W
SciTegic.value.DoubleValue
0.531

@<SCITEGIC>MOL_PROPERTY
U+W
SciTegic.value.DoubleValue
-52.878

@<SCITEGIC>MOL_PROPERTY
Grad RMS
SciTegic.value.DoubleValue
0.000000

@<SCITEGIC>MOL_PROPERTY
U
SciTegic.value.DoubleValue
10.067

@<SCITEGIC>MOL_PROPERTY
W
SciTegic.value.DoubleValue
-62.945

@<SCITEGIC>MOL_PROPERTY
W(PB)
SciTegic.value.DoubleValue
-64.982

@<SCITEGIC>MOL_PROPERTY
W(SA)
SciTegic.value.DoubleValue
2.037

@<SCITEGIC>MOL_PROPERTY
Valence
SciTegic.value.DoubleValue
2.779

@<SCITEGIC>MOL_PROPERTY
Coulomb
SciTegic.value.DoubleValue
6.474

@<SCITEGIC>MOL_PROPERTY
VdW
SciTegic.value.DoubleValue
0.815

@<SCITEGIC>MOL_PROPERTY
VdW6
SciTegic.value.DoubleValue
-5.088

@<SCITEGIC>MOL_PROPERTY
VdW12
SciTegic.value.DoubleValue
5.902

@<SCITEGIC>MOL_PROPERTY
Bond
SciTegic.value.DoubleValue
0.078

@<SCITEGIC>MOL_PROPERTY
Angle
SciTegic.value.DoubleValue
2.651

@<SCITEGIC>MOL_PROPERTY
Pdih
SciTegic.value.DoubleValue
0.050

@<SCITEGIC>MOL_PROPERTY
Idih
SciTegic.value.DoubleValue
0.000

@<SCITEGIC>MOL_PROPERTY
Tether
SciTegic.value.DoubleValue
0.000

@<TRIPOS>MOLECULE
guest-s19_confgen4.mol2 : confsearch ligand conformer 144
          17          16           1
SMALL
USER_CHARGES
 
@<TRIPOS>ATOM
       1    C1      18.119812   20.313743   20.028463 C.2        1 MOL1         0.6173
       2    O1      18.254097   20.414447   18.824467 O.co2      1 MOL1        -0.6755
       3    O2      17.356515   21.012437   20.668505 O.co2      1 MOL1        -0.6755
       4    C2      18.932908   19.281629   20.726808 C.2        1 MOL1        -0.1504
       5    H1      19.594041   18.692286   20.095710 H          1 MOL1         0.0814
       6    C3      18.886821   19.061372   22.060580 C.2        1 MOL1        -0.1394
       7    H2      18.229928   19.649789   22.700717 H          1 MOL1         0.0817
       8    C4      19.717879   18.011711   22.769021 C.3        1 MOL1        -0.1849
       9    H3      20.106312   17.276867   22.050785 H          1 MOL1         0.0736
      10    H4      19.074303   17.451814   23.460639 H          1 MOL1         0.0736
      11    C5      20.889048   18.629589   23.563853 C.3        1 MOL1        -0.1866
      12    H5      20.501585   19.366742   24.280747 H          1 MOL1         0.0738
      13    H6      21.375580   17.842037   24.155669 H          1 MOL1         0.0738
      14    C6      21.940971   19.294849   22.650772 C.3        1 MOL1        -0.2879
      15    H7      21.505613   20.131514   22.089070 H          1 MOL1         0.0750
      16    H8      22.775659   19.687461   23.245766 H          1 MOL1         0.0750
      17    H9      22.347805   18.573433   21.930261 H          1 MOL1         0.0750
@<TRIPOS>BOND
    1     1     2    1
    2     1     3    2
    3     1     4    1
    4     4     5    1
    5     4     6    2
    6     6     7    1
    7     6     8    1
    8     8     9    1
    9     8    10    1
   10     8    11    1
   11    11    12    1
   12    11    13    1
   13    11    14    1
   14    14    15    1
   15    14    16    1
   16    14    17    1
@<TRIPOS>SUBSTRUCTURE
       1 MOL1            1 RESIDUE      1      MOL     
@<SCITEGIC>MOL_PROPERTY
VConf Rank
SciTegic.value.IntegerValue
144

@<SCITEGIC>MOL_PROPERTY
Conf_Id
SciTegic.value.IntegerValue
45

@<SCITEGIC>MOL_PROPERTY
Delta U+W
SciTegic.value.DoubleValue
0.562

@<SCITEGIC>MOL_PROPERTY
U+W
SciTegic.value.DoubleValue
-52.846

@<SCITEGIC>MOL_PROPERTY
Grad RMS
SciTegic.value.DoubleValue
0.000000

@<SCITEGIC>MOL_PROPERTY
U
SciTegic.value.DoubleValue
10.243

@<SCITEGIC>MOL_PROPERTY
W
SciTegic.value.DoubleValue
-63.089

@<SCITEGIC>MOL_PROPERTY
W(PB)
SciTegic.value.DoubleValue
-65.116

@<SCITEGIC>MOL_PROPERTY
W(SA)
SciTegic.value.DoubleValue
2.026

@<SCITEGIC>MOL_PROPERTY
Valence
SciTegic.value.DoubleValue
2.822

@<SCITEGIC>MOL_PROPERTY
Coulomb
SciTegic.value.DoubleValue
6.637

@<SCITEGIC>MOL_PROPERTY
VdW
SciTegic.value.DoubleValue
0.785

@<SCITEGIC>MOL_PROPERTY
VdW6
SciTegic.value.DoubleValue
-5.216

@<SCITEGIC>MOL_PROPERTY
VdW12
SciTegic.value.DoubleValue
6.001

@<SCITEGIC>MOL_PROPERTY
Bond
SciTegic.value.DoubleValue
0.080

@<SCITEGIC>MOL_PROPERTY
Angle
SciTegic.value.DoubleValue
2.678

@<SCITEGIC>MOL_PROPERTY
Pdih
SciTegic.value.DoubleValue
0.064

@<SCITEGIC>MOL_PROPERTY
Idih
SciTegic.value.DoubleValue
0.000

@<SCITEGIC>MOL_PROPERTY
Tether
SciTegic.value.DoubleValue
0.000

@<TRIPOS>MOLECULE
guest-s19_confgen4.mol2 : confsearch ligand conformer 145
          17          16           1
SMALL
USER_CHARGES
 
@<TRIPOS>ATOM
       1    C1      20.564493   15.893057   21.105308 C.2        1 MOL1         0.6173
       2    O1      21.366536   15.111715   21.578526 O.co2      1 MOL1        -0.6755
       3    O2      19.966671   15.678650   20.067506 O.co2      1 MOL1        -0.6755
       4    C2      20.318947   17.159651   21.846664 C.2        1 MOL1        -0.1504
       5    H1      20.885285   17.288801   22.766169 H          1 MOL1         0.0814
       6    C3      19.456592   18.117641   21.437171 C.2        1 MOL1        -0.1394
       7    H2      18.885863   17.999555   20.516249 H          1 MOL1         0.0817
       8    C4      19.214294   19.404013   22.195970 C.3        1 MOL1        -0.1849
       9    H3      19.216890   19.208583   23.276993 H          1 MOL1         0.0736
      10    H4      18.216760   19.793112   21.951196 H          1 MOL1         0.0736
      11    C5      20.280123   20.465961   21.856426 C.3        1 MOL1        -0.1866
      12    H5      21.278524   20.079794   22.104682 H          1 MOL1         0.0738
      13    H6      20.274199   20.661201   20.775032 H          1 MOL1         0.0738
      14    C6      20.034762   21.783583   22.618789 C.3        1 MOL1        -0.2879
      15    H7      19.054900   22.208365   22.364107 H          1 MOL1         0.0750
      16    H8      20.066578   21.621223   23.704175 H          1 MOL1         0.0750
      17    H9      20.802334   22.526132   22.364656 H          1 MOL1         0.0750
@<TRIPOS>BOND
    1     1     2    1
    2     1     3    2
    3     1     4    1
    4     4     5    1
    5     4     6    2
    6     6     7    1
    7     6     8    1
    8     8     9    1
    9     8    10    1
   10     8    11    1
   11    11    12    1
   12    11    13    1
   13    11    14    1
   14    14    15    1
   15    14    16    1
   16    14    17    1
@<TRIPOS>SUBSTRUCTURE
       1 MOL1            1 RESIDUE      1      MOL     
@<SCITEGIC>MOL_PROPERTY
VConf Rank
SciTegic.value.IntegerValue
145

@<SCITEGIC>MOL_PROPERTY
Conf_Id
SciTegic.value.IntegerValue
36

@<SCITEGIC>MOL_PROPERTY
Delta U+W
SciTegic.value.DoubleValue
0.000

@<SCITEGIC>MOL_PROPERTY
U+W
SciTegic.value.DoubleValue
-53.409

@<SCITEGIC>MOL_PROPERTY
Grad RMS
SciTegic.value.DoubleValue
0.000000

@<SCITEGIC>MOL_PROPERTY
U
SciTegic.value.DoubleValue
9.048

@<SCITEGIC>MOL_PROPERTY
W
SciTegic.value.DoubleValue
-62.457

@<SCITEGIC>MOL_PROPERTY
W(PB)
SciTegic.value.DoubleValue
-64.540

@<SCITEGIC>MOL_PROPERTY
W(SA)
SciTegic.value.DoubleValue
2.084

@<SCITEGIC>MOL_PROPERTY
Valence
SciTegic.value.DoubleValue
2.652

@<SCITEGIC>MOL_PROPERTY
Coulomb
SciTegic.value.DoubleValue
5.578

@<SCITEGIC>MOL_PROPERTY
VdW
SciTegic.value.DoubleValue
0.818

@<SCITEGIC>MOL_PROPERTY
VdW6
SciTegic.value.DoubleValue
-4.534

@<SCITEGIC>MOL_PROPERTY
VdW12
SciTegic.value.DoubleValue
5.352

@<SCITEGIC>MOL_PROPERTY
Bond
SciTegic.value.DoubleValue
0.063

@<SCITEGIC>MOL_PROPERTY
Angle
SciTegic.value.DoubleValue
2.579

@<SCITEGIC>MOL_PROPERTY
Pdih
SciTegic.value.DoubleValue
0.010

@<SCITEGIC>MOL_PROPERTY
Idih
SciTegic.value.DoubleValue
0.000

@<SCITEGIC>MOL_PROPERTY
Tether
SciTegic.value.DoubleValue
0.000

@<TRIPOS>MOLECULE
guest-s19_confgen4.mol2 : confsearch ligand conformer 146
          17          16           1
SMALL
USER_CHARGES
 
@<TRIPOS>ATOM
       1    C1      20.611766   18.702271   25.210209 C.2        1 MOL1         0.6173
       2    O1      19.824311   19.419150   25.798761 O.co2      1 MOL1        -0.6755
       3    O2      21.544674   18.152936   25.763036 O.co2      1 MOL1        -0.6755
       4    C2      20.445501   18.471466   23.749645 C.2        1 MOL1        -0.1504
       5    H1      21.182871   17.820846   23.285005 H          1 MOL1         0.0814
       6    C3      19.455580   19.018384   23.008011 C.2        1 MOL1        -0.1394
       7    H2      18.712792   19.673425   23.462942 H          1 MOL1         0.0817
       8    C4      19.294696   18.780005   21.522571 C.3        1 MOL1        -0.1849
       9    H3      18.244894   18.931467   21.237331 H          1 MOL1         0.0736
      10    H4      19.536534   17.735898   21.281407 H          1 MOL1         0.0736
      11    C5      20.194370   19.725829   20.700973 C.3        1 MOL1        -0.1866
      12    H5      19.949134   20.769471   20.942297 H          1 MOL1         0.0738
      13    H6      21.245554   19.572654   20.982237 H          1 MOL1         0.0738
      14    C6      20.029308   19.495451   19.185320 C.3        1 MOL1        -0.2879
      15    H7      18.992328   19.673155   18.871433 H          1 MOL1         0.0750
      16    H8      20.676543   20.176752   18.617829 H          1 MOL1         0.0750
      17    H9      20.298637   18.466570   18.912739 H          1 MOL1         0.0750
@<TRIPOS>BOND
    1     1     2    1
    2     1     3    2
    3     1     4    1
    4     4     5    1
    5     4     6    2
    6     6     7    1
    7     6     8    1
    8     8     9    1
    9     8    10    1
   10     8    11    1
   11    11    12    1
   12    11    13    1
   13    11    14    1
   14    14    15    1
   15    14    16    1
   16    14    17    1
@<TRIPOS>SUBSTRUCTURE
       1 MOL1            1 RESIDUE      1      MOL     
@<SCITEGIC>MOL_PROPERTY
VConf Rank
SciTegic.value.IntegerValue
146

@<SCITEGIC>MOL_PROPERTY
Conf_Id
SciTegic.value.IntegerValue
1

@<SCITEGIC>MOL_PROPERTY
Delta U+W
SciTegic.value.DoubleValue
0.030

@<SCITEGIC>MOL_PROPERTY
U+W
SciTegic.value.DoubleValue
-53.378

@<SCITEGIC>MOL_PROPERTY
Grad RMS
SciTegic.value.DoubleValue
0.000000

@<SCITEGIC>MOL_PROPERTY
U
SciTegic.value.DoubleValue
9.048

@<SCITEGIC>MOL_PROPERTY
W
SciTegic.value.DoubleValue
-62.426

@<SCITEGIC>MOL_PROPERTY
W(PB)
SciTegic.value.DoubleValue
-64.506

@<SCITEGIC>MOL_PROPERTY
W(SA)
SciTegic.value.DoubleValue
2.080

@<SCITEGIC>MOL_PROPERTY
Valence
SciTegic.value.DoubleValue
2.652

@<SCITEGIC>MOL_PROPERTY
Coulomb
SciTegic.value.DoubleValue
5.578

@<SCITEGIC>MOL_PROPERTY
VdW
SciTegic.value.DoubleValue
0.818

@<SCITEGIC>MOL_PROPERTY
VdW6
SciTegic.value.DoubleValue
-4.535

@<SCITEGIC>MOL_PROPERTY
VdW12
SciTegic.value.DoubleValue
5.352

@<SCITEGIC>MOL_PROPERTY
Bond
SciTegic.value.DoubleValue
0.063

@<SCITEGIC>MOL_PROPERTY
Angle
SciTegic.value.DoubleValue
2.579

@<SCITEGIC>MOL_PROPERTY
Pdih
SciTegic.value.DoubleValue
0.010

@<SCITEGIC>MOL_PROPERTY
Idih
SciTegic.value.DoubleValue
0.000

@<SCITEGIC>MOL_PROPERTY
Tether
SciTegic.value.DoubleValue
0.000

@<TRIPOS>MOLECULE
guest-s19_confgen4.mol2 : confsearch ligand conformer 147
          17          16           1
SMALL
USER_CHARGES
 
@<TRIPOS>ATOM
       1    C1      19.865939   21.904027   20.806666 C.2        1 MOL1         0.6173
       2    O1      19.143784   21.683724   19.852517 O.co2      1 MOL1        -0.6755
       3    O2      20.097187   23.025794   21.214065 O.co2      1 MOL1        -0.6755
       4    C2      20.508461   20.767502   21.520506 C.2        1 MOL1        -0.1504
       5    H1      21.142051   21.033608   22.363425 H          1 MOL1         0.0814
       6    C3      20.339410   19.470147   21.178047 C.2        1 MOL1        -0.1394
       7    H2      19.704134   19.192110   20.337383 H          1 MOL1         0.0817
       8    C4      20.993632   18.318364   21.911807 C.3        1 MOL1        -0.1849
       9    H3      22.027476   18.585472   22.169384 H          1 MOL1         0.0736
      10    H4      21.059060   17.443948   21.250437 H          1 MOL1         0.0736
      11    C5      20.233664   17.935210   23.200684 C.3        1 MOL1        -0.1866
      12    H5      20.807859   17.171088   23.742506 H          1 MOL1         0.0738
      13    H6      20.167656   18.807929   23.865088 H          1 MOL1         0.0738
      14    C6      18.817522   17.392491   22.913088 C.3        1 MOL1        -0.2879
      15    H7      18.859898   16.511066   22.260065 H          1 MOL1         0.0750
      16    H8      18.319777   17.099205   23.846437 H          1 MOL1         0.0750
      17    H9      18.194049   18.152114   22.423727 H          1 MOL1         0.0750
@<TRIPOS>BOND
    1     1     2    1
    2     1     3    2
    3     1     4    1
    4     4     5    1
    5     4     6    2
    6     6     7    1
    7     6     8    1
    8     8     9    1
    9     8    10    1
   10     8    11    1
   11    11    12    1
   12    11    13    1
   13    11    14    1
   14    14    15    1
   15    14    16    1
   16    14    17    1
@<TRIPOS>SUBSTRUCTURE
       1 MOL1            1 RESIDUE      1      MOL     
@<SCITEGIC>MOL_PROPERTY
VConf Rank
SciTegic.value.IntegerValue
147

@<SCITEGIC>MOL_PROPERTY
Conf_Id
SciTegic.value.IntegerValue
3

@<SCITEGIC>MOL_PROPERTY
Delta U+W
SciTegic.value.DoubleValue
0.531

@<SCITEGIC>MOL_PROPERTY
U+W
SciTegic.value.DoubleValue
-52.878

@<SCITEGIC>MOL_PROPERTY
Grad RMS
SciTegic.value.DoubleValue
0.000000

@<SCITEGIC>MOL_PROPERTY
U
SciTegic.value.DoubleValue
10.067

@<SCITEGIC>MOL_PROPERTY
W
SciTegic.value.DoubleValue
-62.945

@<SCITEGIC>MOL_PROPERTY
W(PB)
SciTegic.value.DoubleValue
-64.982

@<SCITEGIC>MOL_PROPERTY
W(SA)
SciTegic.value.DoubleValue
2.037

@<SCITEGIC>MOL_PROPERTY
Valence
SciTegic.value.DoubleValue
2.779

@<SCITEGIC>MOL_PROPERTY
Coulomb
SciTegic.value.DoubleValue
6.474

@<SCITEGIC>MOL_PROPERTY
VdW
SciTegic.value.DoubleValue
0.815

@<SCITEGIC>MOL_PROPERTY
VdW6
SciTegic.value.DoubleValue
-5.088

@<SCITEGIC>MOL_PROPERTY
VdW12
SciTegic.value.DoubleValue
5.902

@<SCITEGIC>MOL_PROPERTY
Bond
SciTegic.value.DoubleValue
0.078

@<SCITEGIC>MOL_PROPERTY
Angle
SciTegic.value.DoubleValue
2.651

@<SCITEGIC>MOL_PROPERTY
Pdih
SciTegic.value.DoubleValue
0.050

@<SCITEGIC>MOL_PROPERTY
Idih
SciTegic.value.DoubleValue
0.000

@<SCITEGIC>MOL_PROPERTY
Tether
SciTegic.value.DoubleValue
0.000

@<TRIPOS>MOLECULE
guest-s19_confgen4.mol2 : confsearch ligand conformer 148
          17          16           1
SMALL
USER_CHARGES
 
@<TRIPOS>ATOM
       1    C1      19.784403   21.668916   23.651168 C.2        1 MOL1         0.6173
       2    O1      20.521237   22.105815   24.513708 O.co2      1 MOL1        -0.6755
       3    O2      18.631134   22.034147   23.520683 O.co2      1 MOL1        -0.6755
       4    C2      20.341210   20.646216   22.724818 C.2        1 MOL1        -0.1504
       5    H1      21.377574   20.365097   22.896941 H          1 MOL1         0.0814
       6    C3      19.635933   20.073504   21.722735 C.2        1 MOL1        -0.1394
       7    H2      18.595972   20.346697   21.545633 H          1 MOL1         0.0817
       8    C4      20.204761   19.030574   20.783018 C.3        1 MOL1        -0.1849
       9    H3      21.302633   19.034417   20.820446 H          1 MOL1         0.0736
      10    H4      19.933614   19.291750   19.751380 H          1 MOL1         0.0736
      11    C5      19.679907   17.611980   21.094924 C.3        1 MOL1        -0.1866
      12    H5      18.581616   17.607852   21.060292 H          1 MOL1         0.0738
      13    H6      20.021178   16.922918   20.310115 H          1 MOL1         0.0738
      14    C6      20.159228   17.089505   22.466092 C.3        1 MOL1        -0.2879
      15    H7      19.782595   17.718265   23.283320 H          1 MOL1         0.0750
      16    H8      19.800287   16.066244   22.636281 H          1 MOL1         0.0750
      17    H9      21.255595   17.077824   22.520279 H          1 MOL1         0.0750
@<TRIPOS>BOND
    1     1     2    1
    2     1     3    2
    3     1     4    1
    4     4     5    1
    5     4     6    2
    6     6     7    1
    7     6     8    1
    8     8     9    1
    9     8    10    1
   10     8    11    1
   11    11    12    1
   12    11    13    1
   13    11    14    1
   14    14    15    1
   15    14    16    1
   16    14    17    1
@<TRIPOS>SUBSTRUCTURE
       1 MOL1            1 RESIDUE      1      MOL     
@<SCITEGIC>MOL_PROPERTY
VConf Rank
SciTegic.value.IntegerValue
148

@<SCITEGIC>MOL_PROPERTY
Conf_Id
SciTegic.value.IntegerValue
45

@<SCITEGIC>MOL_PROPERTY
Delta U+W
SciTegic.value.DoubleValue
0.562

@<SCITEGIC>MOL_PROPERTY
U+W
SciTegic.value.DoubleValue
-52.846

@<SCITEGIC>MOL_PROPERTY
Grad RMS
SciTegic.value.DoubleValue
0.000000

@<SCITEGIC>MOL_PROPERTY
U
SciTegic.value.DoubleValue
10.243

@<SCITEGIC>MOL_PROPERTY
W
SciTegic.value.DoubleValue
-63.089

@<SCITEGIC>MOL_PROPERTY
W(PB)
SciTegic.value.DoubleValue
-65.116

@<SCITEGIC>MOL_PROPERTY
W(SA)
SciTegic.value.DoubleValue
2.026

@<SCITEGIC>MOL_PROPERTY
Valence
SciTegic.value.DoubleValue
2.822

@<SCITEGIC>MOL_PROPERTY
Coulomb
SciTegic.value.DoubleValue
6.637

@<SCITEGIC>MOL_PROPERTY
VdW
SciTegic.value.DoubleValue
0.785

@<SCITEGIC>MOL_PROPERTY
VdW6
SciTegic.value.DoubleValue
-5.216

@<SCITEGIC>MOL_PROPERTY
VdW12
SciTegic.value.DoubleValue
6.001

@<SCITEGIC>MOL_PROPERTY
Bond
SciTegic.value.DoubleValue
0.080

@<SCITEGIC>MOL_PROPERTY
Angle
SciTegic.value.DoubleValue
2.678

@<SCITEGIC>MOL_PROPERTY
Pdih
SciTegic.value.DoubleValue
0.064

@<SCITEGIC>MOL_PROPERTY
Idih
SciTegic.value.DoubleValue
0.000

@<SCITEGIC>MOL_PROPERTY
Tether
SciTegic.value.DoubleValue
0.000

@<TRIPOS>MOLECULE
guest-s19_confgen4.mol2 : confsearch ligand conformer 149
          17          16           1
SMALL
USER_CHARGES
 
@<TRIPOS>ATOM
       1    C1      20.705295   20.787513   24.756498 C.2        1 MOL1         0.6173
       2    O1      21.577121   21.607442   24.969427 O.co2      1 MOL1        -0.6755
       3    O2      20.063248   20.259971   25.645244 O.co2      1 MOL1        -0.6755
       4    C2      20.428505   20.430715   23.338667 C.2        1 MOL1        -0.1504
       5    H1      21.037459   20.938202   22.593993 H          1 MOL1         0.0814
       6    C3      19.489852   19.535317   22.956205 C.2        1 MOL1        -0.1394
       7    H2      18.875795   19.019358   23.694104 H          1 MOL1         0.0817
       8    C4      19.216132   19.176486   21.512060 C.3        1 MOL1        -0.1849
       9    H3      19.291320   20.072948   20.881575 H          1 MOL1         0.0736
      10    H4      18.185313   18.810430   21.413051 H          1 MOL1         0.0736
      11    C5      20.197155   18.099699   21.004972 C.3        1 MOL1        -0.1866
      12    H5      21.228863   18.466050   21.099444 H          1 MOL1         0.0738
      13    H6      20.118638   17.203381   21.635859 H          1 MOL1         0.0738
      14    C6      19.918757   17.721491   19.536306 C.3        1 MOL1        -0.2879
      15    H7      18.902906   17.321782   19.419207 H          1 MOL1         0.0750
      16    H8      20.021383   18.595222   18.879421 H          1 MOL1         0.0750
      17    H9      20.626010   16.955028   19.193586 H          1 MOL1         0.0750
@<TRIPOS>BOND
    1     1     2    1
    2     1     3    2
    3     1     4    1
    4     4     5    1
    5     4     6    2
    6     6     7    1
    7     6     8    1
    8     8     9    1
    9     8    10    1
   10     8    11    1
   11    11    12    1
   12    11    13    1
   13    11    14    1
   14    14    15    1
   15    14    16    1
   16    14    17    1
@<TRIPOS>SUBSTRUCTURE
       1 MOL1            1 RESIDUE      1      MOL     
@<SCITEGIC>MOL_PROPERTY
VConf Rank
SciTegic.value.IntegerValue
149

@<SCITEGIC>MOL_PROPERTY
Conf_Id
SciTegic.value.IntegerValue
36

@<SCITEGIC>MOL_PROPERTY
Delta U+W
SciTegic.value.DoubleValue
0.000

@<SCITEGIC>MOL_PROPERTY
U+W
SciTegic.value.DoubleValue
-53.409

@<SCITEGIC>MOL_PROPERTY
Grad RMS
SciTegic.value.DoubleValue
0.000000

@<SCITEGIC>MOL_PROPERTY
U
SciTegic.value.DoubleValue
9.048

@<SCITEGIC>MOL_PROPERTY
W
SciTegic.value.DoubleValue
-62.457

@<SCITEGIC>MOL_PROPERTY
W(PB)
SciTegic.value.DoubleValue
-64.540

@<SCITEGIC>MOL_PROPERTY
W(SA)
SciTegic.value.DoubleValue
2.084

@<SCITEGIC>MOL_PROPERTY
Valence
SciTegic.value.DoubleValue
2.652

@<SCITEGIC>MOL_PROPERTY
Coulomb
SciTegic.value.DoubleValue
5.578

@<SCITEGIC>MOL_PROPERTY
VdW
SciTegic.value.DoubleValue
0.818

@<SCITEGIC>MOL_PROPERTY
VdW6
SciTegic.value.DoubleValue
-4.534

@<SCITEGIC>MOL_PROPERTY
VdW12
SciTegic.value.DoubleValue
5.352

@<SCITEGIC>MOL_PROPERTY
Bond
SciTegic.value.DoubleValue
0.063

@<SCITEGIC>MOL_PROPERTY
Angle
SciTegic.value.DoubleValue
2.579

@<SCITEGIC>MOL_PROPERTY
Pdih
SciTegic.value.DoubleValue
0.010

@<SCITEGIC>MOL_PROPERTY
Idih
SciTegic.value.DoubleValue
0.000

@<SCITEGIC>MOL_PROPERTY
Tether
SciTegic.value.DoubleValue
0.000

@<TRIPOS>MOLECULE
guest-s19_confgen4.mol2 : confsearch ligand conformer 150
          17          16           1
SMALL
USER_CHARGES
 
@<TRIPOS>ATOM
       1    C1      20.522399   21.239188   24.465928 C.2        1 MOL1         0.6173
       2    O1      19.448460   21.755637   24.711550 O.co2      1 MOL1        -0.6755
       3    O2      21.568798   21.633399   24.942743 O.co2      1 MOL1        -0.6755
       4    C2      20.582985   20.071584   23.545497 C.2        1 MOL1        -0.1504
       5    H1      21.573033   19.657525   23.368664 H          1 MOL1         0.0814
       6    C3      19.500053   19.529294   22.943614 C.2        1 MOL1        -0.1394
       7    H2      18.503718   19.937612   23.112041 H          1 MOL1         0.0817
       8    C4      19.570591   18.342862   22.007323 C.3        1 MOL1        -0.1849
       9    H3      18.603847   17.821566   22.000693 H          1 MOL1         0.0736
      10    H4      20.312915   17.620004   22.372341 H          1 MOL1         0.0736
      11    C5      19.931185   18.779810   20.572727 C.3        1 MOL1        -0.1866
      12    H5      19.186139   19.501077   20.209069 H          1 MOL1         0.0738
      13    H6      20.900221   19.297990   20.576968 H          1 MOL1         0.0738
      14    C6      19.995998   17.577058   19.610067 C.3        1 MOL1        -0.2879
      15    H7      19.029106   17.059078   19.562661 H          1 MOL1         0.0750
      16    H8      20.253530   17.907324   18.595310 H          1 MOL1         0.0750
      17    H9      20.756515   16.854726   19.934546 H          1 MOL1         0.0750
@<TRIPOS>BOND
    1     1     2    1
    2     1     3    2
    3     1     4    1
    4     4     5    1
    5     4     6    2
    6     6     7    1
    7     6     8    1
    8     8     9    1
    9     8    10    1
   10     8    11    1
   11    11    12    1
   12    11    13    1
   13    11    14    1
   14    14    15    1
   15    14    16    1
   16    14    17    1
@<TRIPOS>SUBSTRUCTURE
       1 MOL1            1 RESIDUE      1      MOL     
@<SCITEGIC>MOL_PROPERTY
VConf Rank
SciTegic.value.IntegerValue
150

@<SCITEGIC>MOL_PROPERTY
Conf_Id
SciTegic.value.IntegerValue
1

@<SCITEGIC>MOL_PROPERTY
Delta U+W
SciTegic.value.DoubleValue
0.030

@<SCITEGIC>MOL_PROPERTY
U+W
SciTegic.value.DoubleValue
-53.378

@<SCITEGIC>MOL_PROPERTY
Grad RMS
SciTegic.value.DoubleValue
0.000000

@<SCITEGIC>MOL_PROPERTY
U
SciTegic.value.DoubleValue
9.048

@<SCITEGIC>MOL_PROPERTY
W
SciTegic.value.DoubleValue
-62.426

@<SCITEGIC>MOL_PROPERTY
W(PB)
SciTegic.value.DoubleValue
-64.506

@<SCITEGIC>MOL_PROPERTY
W(SA)
SciTegic.value.DoubleValue
2.080

@<SCITEGIC>MOL_PROPERTY
Valence
SciTegic.value.DoubleValue
2.652

@<SCITEGIC>MOL_PROPERTY
Coulomb
SciTegic.value.DoubleValue
5.578

@<SCITEGIC>MOL_PROPERTY
VdW
SciTegic.value.DoubleValue
0.818

@<SCITEGIC>MOL_PROPERTY
VdW6
SciTegic.value.DoubleValue
-4.535

@<SCITEGIC>MOL_PROPERTY
VdW12
SciTegic.value.DoubleValue
5.352

@<SCITEGIC>MOL_PROPERTY
Bond
SciTegic.value.DoubleValue
0.063

@<SCITEGIC>MOL_PROPERTY
Angle
SciTegic.value.DoubleValue
2.579

@<SCITEGIC>MOL_PROPERTY
Pdih
SciTegic.value.DoubleValue
0.010

@<SCITEGIC>MOL_PROPERTY
Idih
SciTegic.value.DoubleValue
0.000

@<SCITEGIC>MOL_PROPERTY
Tether
SciTegic.value.DoubleValue
0.000

@<TRIPOS>MOLECULE
guest-s19_confgen4.mol2 : confsearch ligand conformer 151
          17          16           1
SMALL
USER_CHARGES
 
@<TRIPOS>ATOM
       1    C1      19.225039   19.918223   24.911141 C.2        1 MOL1         0.6173
       2    O1      19.073698   18.824646   25.422635 O.co2      1 MOL1        -0.6755
       3    O2      19.334633   20.940554   25.559708 O.co2      1 MOL1        -0.6755
       4    C2      19.278013   20.035707   23.428750 C.2        1 MOL1        -0.1504
       5    H1      19.414138   21.040988   23.036780 H          1 MOL1         0.0814
       6    C3      19.171270   18.984104   22.585114 C.2        1 MOL1        -0.1394
       7    H2      19.038044   17.972231   22.967163 H          1 MOL1         0.0817
       8    C4      19.230007   19.110935   21.077308 C.3        1 MOL1        -0.1849
       9    H3      18.670426   20.001468   20.760535 H          1 MOL1         0.0736
      10    H4      18.728400   18.252279   20.611053 H          1 MOL1         0.0736
      11    C5      20.679042   19.210183   20.551943 C.3        1 MOL1        -0.1866
      12    H5      20.656583   19.405692   19.471005 H          1 MOL1         0.0738
      13    H6      21.183205   20.069293   21.015815 H          1 MOL1         0.0738
      14    C6      21.492980   17.925347   20.815407 C.3        1 MOL1        -0.2879
      15    H7      21.013734   17.054443   20.349578 H          1 MOL1         0.0750
      16    H8      22.504948   18.017731   20.400325 H          1 MOL1         0.0750
      17    H9      21.587397   17.729974   21.891574 H          1 MOL1         0.0750
@<TRIPOS>BOND
    1     1     2    1
    2     1     3    2
    3     1     4    1
    4     4     5    1
    5     4     6    2
    6     6     7    1
    7     6     8    1
    8     8     9    1
    9     8    10    1
   10     8    11    1
   11    11    12    1
   12    11    13    1
   13    11    14    1
   14    14    15    1
   15    14    16    1
   16    14    17    1
@<TRIPOS>SUBSTRUCTURE
       1 MOL1            1 RESIDUE      1      MOL     
@<SCITEGIC>MOL_PROPERTY
VConf Rank
SciTegic.value.IntegerValue
151

@<SCITEGIC>MOL_PROPERTY
Conf_Id
SciTegic.value.IntegerValue
3

@<SCITEGIC>MOL_PROPERTY
Delta U+W
SciTegic.value.DoubleValue
0.531

@<SCITEGIC>MOL_PROPERTY
U+W
SciTegic.value.DoubleValue
-52.878

@<SCITEGIC>MOL_PROPERTY
Grad RMS
SciTegic.value.DoubleValue
0.000000

@<SCITEGIC>MOL_PROPERTY
U
SciTegic.value.DoubleValue
10.067

@<SCITEGIC>MOL_PROPERTY
W
SciTegic.value.DoubleValue
-62.945

@<SCITEGIC>MOL_PROPERTY
W(PB)
SciTegic.value.DoubleValue
-64.982

@<SCITEGIC>MOL_PROPERTY
W(SA)
SciTegic.value.DoubleValue
2.037

@<SCITEGIC>MOL_PROPERTY
Valence
SciTegic.value.DoubleValue
2.779

@<SCITEGIC>MOL_PROPERTY
Coulomb
SciTegic.value.DoubleValue
6.474

@<SCITEGIC>MOL_PROPERTY
VdW
SciTegic.value.DoubleValue
0.815

@<SCITEGIC>MOL_PROPERTY
VdW6
SciTegic.value.DoubleValue
-5.088

@<SCITEGIC>MOL_PROPERTY
VdW12
SciTegic.value.DoubleValue
5.902

@<SCITEGIC>MOL_PROPERTY
Bond
SciTegic.value.DoubleValue
0.078

@<SCITEGIC>MOL_PROPERTY
Angle
SciTegic.value.DoubleValue
2.651

@<SCITEGIC>MOL_PROPERTY
Pdih
SciTegic.value.DoubleValue
0.050

@<SCITEGIC>MOL_PROPERTY
Idih
SciTegic.value.DoubleValue
0.000

@<SCITEGIC>MOL_PROPERTY
Tether
SciTegic.value.DoubleValue
0.000

@<TRIPOS>MOLECULE
guest-s19_confgen4.mol2 : confsearch ligand conformer 152
          17          16           1
SMALL
USER_CHARGES
 
@<TRIPOS>ATOM
       1    C1      22.123241   21.012583   21.153519 C.2        1 MOL1         0.6173
       2    O1      22.137335   22.228007   21.171538 O.co2      1 MOL1        -0.6755
       3    O2      22.840873   20.354614   20.423773 O.co2      1 MOL1        -0.6755
       4    C2      21.181050   20.322380   22.075457 C.2        1 MOL1        -0.1504
       5    H1      20.569342   20.969598   22.699659 H          1 MOL1         0.0814
       6    C3      21.057987   18.977990   22.159454 C.2        1 MOL1        -0.1394
       7    H2      21.664376   18.322274   21.535077 H          1 MOL1         0.0817
       8    C4      20.095884   18.278315   23.097082 C.3        1 MOL1        -0.1849
       9    H3      19.757342   18.964062   23.885676 H          1 MOL1         0.0736
      10    H4      20.623487   17.462009   23.608248 H          1 MOL1         0.0736
      11    C5      18.872728   17.696734   22.354911 C.3        1 MOL1        -0.1866
      12    H5      19.210585   17.012655   21.564121 H          1 MOL1         0.0738
      13    H6      18.279620   17.095443   23.057670 H          1 MOL1         0.0738
      14    C6      17.971770   18.792053   21.745500 C.3        1 MOL1        -0.2879
      15    H7      18.513123   19.374636   20.988804 H          1 MOL1         0.0750
      16    H8      17.094191   18.344762   21.261091 H          1 MOL1         0.0750
      17    H9      17.615944   19.483606   22.520249 H          1 MOL1         0.0750
@<TRIPOS>BOND
    1     1     2    1
    2     1     3    2
    3     1     4    1
    4     4     5    1
    5     4     6    2
    6     6     7    1
    7     6     8    1
    8     8     9    1
    9     8    10    1
   10     8    11    1
   11    11    12    1
   12    11    13    1
   13    11    14    1
   14    14    15    1
   15    14    16    1
   16    14    17    1
@<TRIPOS>SUBSTRUCTURE
       1 MOL1            1 RESIDUE      1      MOL     
@<SCITEGIC>MOL_PROPERTY
VConf Rank
SciTegic.value.IntegerValue
152

@<SCITEGIC>MOL_PROPERTY
Conf_Id
SciTegic.value.IntegerValue
45

@<SCITEGIC>MOL_PROPERTY
Delta U+W
SciTegic.value.DoubleValue
0.562

@<SCITEGIC>MOL_PROPERTY
U+W
SciTegic.value.DoubleValue
-52.846

@<SCITEGIC>MOL_PROPERTY
Grad RMS
SciTegic.value.DoubleValue
0.000000

@<SCITEGIC>MOL_PROPERTY
U
SciTegic.value.DoubleValue
10.243

@<SCITEGIC>MOL_PROPERTY
W
SciTegic.value.DoubleValue
-63.089

@<SCITEGIC>MOL_PROPERTY
W(PB)
SciTegic.value.DoubleValue
-65.116

@<SCITEGIC>MOL_PROPERTY
W(SA)
SciTegic.value.DoubleValue
2.026

@<SCITEGIC>MOL_PROPERTY
Valence
SciTegic.value.DoubleValue
2.822

@<SCITEGIC>MOL_PROPERTY
Coulomb
SciTegic.value.DoubleValue
6.637

@<SCITEGIC>MOL_PROPERTY
VdW
SciTegic.value.DoubleValue
0.785

@<SCITEGIC>MOL_PROPERTY
VdW6
SciTegic.value.DoubleValue
-5.216

@<SCITEGIC>MOL_PROPERTY
VdW12
SciTegic.value.DoubleValue
6.001

@<SCITEGIC>MOL_PROPERTY
Bond
SciTegic.value.DoubleValue
0.080

@<SCITEGIC>MOL_PROPERTY
Angle
SciTegic.value.DoubleValue
2.678

@<SCITEGIC>MOL_PROPERTY
Pdih
SciTegic.value.DoubleValue
0.064

@<SCITEGIC>MOL_PROPERTY
Idih
SciTegic.value.DoubleValue
0.000

@<SCITEGIC>MOL_PROPERTY
Tether
SciTegic.value.DoubleValue
0.000

@<TRIPOS>MOLECULE
guest-s19_confgen4.mol2 : confsearch ligand conformer 153
          17          16           1
SMALL
USER_CHARGES
 
@<TRIPOS>ATOM
       1    C1      18.219170   19.634565   19.091488 C.2        1 MOL1         0.6173
       2    O1      17.014481   19.693139   18.939841 O.co2      1 MOL1        -0.6755
       3    O2      18.997805   19.532457   18.162135 O.co2      1 MOL1        -0.6755
       4    C2      18.740520   19.693689   20.483917 C.2        1 MOL1        -0.1504
       5    H1      17.991837   19.784966   21.267532 H          1 MOL1         0.0814
       6    C3      20.054374   19.638159   20.799810 C.2        1 MOL1        -0.1394
       7    H2      20.812763   19.544336   20.022754 H          1 MOL1         0.0817
       8    C4      20.576167   19.696751   22.218801 C.3        1 MOL1        -0.1849
       9    H3      19.983598   20.410093   22.807710 H          1 MOL1         0.0736
      10    H4      21.607511   20.074520   22.216130 H          1 MOL1         0.0736
      11    C5      20.536753   18.308483   22.889752 C.3        1 MOL1        -0.1866
      12    H5      19.504798   17.930893   22.897013 H          1 MOL1         0.0738
      13    H6      21.131766   17.597300   22.300053 H          1 MOL1         0.0738
      14    C6      21.075890   18.357868   24.333503 C.3        1 MOL1        -0.2879
      15    H7      22.118195   18.702370   24.352208 H          1 MOL1         0.0750
      16    H8      20.478216   19.039439   24.952925 H          1 MOL1         0.0750
      17    H9      21.039904   17.362009   24.794045 H          1 MOL1         0.0750
@<TRIPOS>BOND
    1     1     2    1
    2     1     3    2
    3     1     4    1
    4     4     5    1
    5     4     6    2
    6     6     7    1
    7     6     8    1
    8     8     9    1
    9     8    10    1
   10     8    11    1
   11    11    12    1
   12    11    13    1
   13    11    14    1
   14    14    15    1
   15    14    16    1
   16    14    17    1
@<TRIPOS>SUBSTRUCTURE
       1 MOL1            1 RESIDUE      1      MOL     
@<SCITEGIC>MOL_PROPERTY
VConf Rank
SciTegic.value.IntegerValue
153

@<SCITEGIC>MOL_PROPERTY
Conf_Id
SciTegic.value.IntegerValue
36

@<SCITEGIC>MOL_PROPERTY
Delta U+W
SciTegic.value.DoubleValue
0.000

@<SCITEGIC>MOL_PROPERTY
U+W
SciTegic.value.DoubleValue
-53.409

@<SCITEGIC>MOL_PROPERTY
Grad RMS
SciTegic.value.DoubleValue
0.000000

@<SCITEGIC>MOL_PROPERTY
U
SciTegic.value.DoubleValue
9.048

@<SCITEGIC>MOL_PROPERTY
W
SciTegic.value.DoubleValue
-62.457

@<SCITEGIC>MOL_PROPERTY
W(PB)
SciTegic.value.DoubleValue
-64.540

@<SCITEGIC>MOL_PROPERTY
W(SA)
SciTegic.value.DoubleValue
2.084

@<SCITEGIC>MOL_PROPERTY
Valence
SciTegic.value.DoubleValue
2.652

@<SCITEGIC>MOL_PROPERTY
Coulomb
SciTegic.value.DoubleValue
5.578

@<SCITEGIC>MOL_PROPERTY
VdW
SciTegic.value.DoubleValue
0.818

@<SCITEGIC>MOL_PROPERTY
VdW6
SciTegic.value.DoubleValue
-4.534

@<SCITEGIC>MOL_PROPERTY
VdW12
SciTegic.value.DoubleValue
5.352

@<SCITEGIC>MOL_PROPERTY
Bond
SciTegic.value.DoubleValue
0.063

@<SCITEGIC>MOL_PROPERTY
Angle
SciTegic.value.DoubleValue
2.579

@<SCITEGIC>MOL_PROPERTY
Pdih
SciTegic.value.DoubleValue
0.010

@<SCITEGIC>MOL_PROPERTY
Idih
SciTegic.value.DoubleValue
0.000

@<SCITEGIC>MOL_PROPERTY
Tether
SciTegic.value.DoubleValue
0.000

@<TRIPOS>MOLECULE
guest-s19_confgen4.mol2 : confsearch ligand conformer 154
          17          16           1
SMALL
USER_CHARGES
 
@<TRIPOS>ATOM
       1    C1      22.362031   16.671860   21.951320 C.2        1 MOL1         0.6173
       2    O1      22.013251   15.855473   22.783340 O.co2      1 MOL1        -0.6755
       3    O2      23.462554   16.659348   21.435182 O.co2      1 MOL1        -0.6755
       4    C2      21.417090   17.741247   21.529824 C.2        1 MOL1        -0.1504
       5    H1      21.791236   18.437924   20.783120 H          1 MOL1         0.0814
       6    C3      20.164036   17.876189   22.020470 C.2        1 MOL1        -0.1394
       7    H2      19.779832   17.185080   22.770489 H          1 MOL1         0.0817
       8    C4      19.209934   18.967834   21.587758 C.3        1 MOL1        -0.1849
       9    H3      18.175174   18.638967   21.753602 H          1 MOL1         0.0736
      10    H4      19.311109   19.149182   20.509016 H          1 MOL1         0.0736
      11    C5      19.465726   20.277120   22.361941 C.3        1 MOL1        -0.1866
      12    H5      19.361837   20.093684   23.440423 H          1 MOL1         0.0738
      13    H6      20.499471   20.609764   22.193779 H          1 MOL1         0.0738
      14    C6      18.491033   21.392318   21.933183 C.3        1 MOL1        -0.2879
      15    H7      17.450039   21.097811   22.120340 H          1 MOL1         0.0750
      16    H8      18.688175   22.315065   22.494256 H          1 MOL1         0.0750
      17    H9      18.596964   21.616867   20.863701 H          1 MOL1         0.0750
@<TRIPOS>BOND
    1     1     2    1
    2     1     3    2
    3     1     4    1
    4     4     5    1
    5     4     6    2
    6     6     7    1
    7     6     8    1
    8     8     9    1
    9     8    10    1
   10     8    11    1
   11    11    12    1
   12    11    13    1
   13    11    14    1
   14    14    15    1
   15    14    16    1
   16    14    17    1
@<TRIPOS>SUBSTRUCTURE
       1 MOL1            1 RESIDUE      1      MOL     
@<SCITEGIC>MOL_PROPERTY
VConf Rank
SciTegic.value.IntegerValue
154

@<SCITEGIC>MOL_PROPERTY
Conf_Id
SciTegic.value.IntegerValue
1

@<SCITEGIC>MOL_PROPERTY
Delta U+W
SciTegic.value.DoubleValue
0.030

@<SCITEGIC>MOL_PROPERTY
U+W
SciTegic.value.DoubleValue
-53.378

@<SCITEGIC>MOL_PROPERTY
Grad RMS
SciTegic.value.DoubleValue
0.000000

@<SCITEGIC>MOL_PROPERTY
U
SciTegic.value.DoubleValue
9.048

@<SCITEGIC>MOL_PROPERTY
W
SciTegic.value.DoubleValue
-62.426

@<SCITEGIC>MOL_PROPERTY
W(PB)
SciTegic.value.DoubleValue
-64.506

@<SCITEGIC>MOL_PROPERTY
W(SA)
SciTegic.value.DoubleValue
2.080

@<SCITEGIC>MOL_PROPERTY
Valence
SciTegic.value.DoubleValue
2.652

@<SCITEGIC>MOL_PROPERTY
Coulomb
SciTegic.value.DoubleValue
5.578

@<SCITEGIC>MOL_PROPERTY
VdW
SciTegic.value.DoubleValue
0.818

@<SCITEGIC>MOL_PROPERTY
VdW6
SciTegic.value.DoubleValue
-4.535

@<SCITEGIC>MOL_PROPERTY
VdW12
SciTegic.value.DoubleValue
5.352

@<SCITEGIC>MOL_PROPERTY
Bond
SciTegic.value.DoubleValue
0.063

@<SCITEGIC>MOL_PROPERTY
Angle
SciTegic.value.DoubleValue
2.579

@<SCITEGIC>MOL_PROPERTY
Pdih
SciTegic.value.DoubleValue
0.010

@<SCITEGIC>MOL_PROPERTY
Idih
SciTegic.value.DoubleValue
0.000

@<SCITEGIC>MOL_PROPERTY
Tether
SciTegic.value.DoubleValue
0.000

@<TRIPOS>MOLECULE
guest-s19_confgen4.mol2 : confsearch ligand conformer 155
          17          16           1
SMALL
USER_CHARGES
 
@<TRIPOS>ATOM
       1    C1      21.934523   21.461120   21.615288 C.2        1 MOL1         0.6173
       2    O1      22.667216   21.329854   22.577770 O.co2      1 MOL1        -0.6755
       3    O2      22.215514   22.162390   20.662883 O.co2      1 MOL1        -0.6755
       4    C2      20.630663   20.744995   21.580583 C.2        1 MOL1        -0.1504
       5    H1      20.023892   20.906410   20.692588 H          1 MOL1         0.0814
       6    C3      20.190695   19.932277   22.567955 C.2        1 MOL1        -0.1394
       7    H2      20.792050   19.760834   23.460467 H          1 MOL1         0.0817
       8    C4      18.864012   19.203590   22.523877 C.3        1 MOL1        -0.1849
       9    H3      18.093048   19.866970   22.109065 H          1 MOL1         0.0736
      10    H4      18.539642   18.957556   23.543949 H          1 MOL1         0.0736
      11    C5      18.930164   17.913164   21.677718 C.3        1 MOL1        -0.1866
      12    H5      17.921266   17.486146   21.594456 H          1 MOL1         0.0738
      13    H6      19.253298   18.156331   20.656012 H          1 MOL1         0.0738
      14    C6      19.876968   16.855840   22.284627 C.3        1 MOL1        -0.2879
      15    H7      19.565394   16.587850   23.302590 H          1 MOL1         0.0750
      16    H8      19.874032   15.941369   21.677468 H          1 MOL1         0.0750
      17    H9      20.909178   17.227103   22.328536 H          1 MOL1         0.0750
@<TRIPOS>BOND
    1     1     2    1
    2     1     3    2
    3     1     4    1
    4     4     5    1
    5     4     6    2
    6     6     7    1
    7     6     8    1
    8     8     9    1
    9     8    10    1
   10     8    11    1
   11    11    12    1
   12    11    13    1
   13    11    14    1
   14    14    15    1
   15    14    16    1
   16    14    17    1
@<TRIPOS>SUBSTRUCTURE
       1 MOL1            1 RESIDUE      1      MOL     
@<SCITEGIC>MOL_PROPERTY
VConf Rank
SciTegic.value.IntegerValue
155

@<SCITEGIC>MOL_PROPERTY
Conf_Id
SciTegic.value.IntegerValue
3

@<SCITEGIC>MOL_PROPERTY
Delta U+W
SciTegic.value.DoubleValue
0.531

@<SCITEGIC>MOL_PROPERTY
U+W
SciTegic.value.DoubleValue
-52.878

@<SCITEGIC>MOL_PROPERTY
Grad RMS
SciTegic.value.DoubleValue
0.000000

@<SCITEGIC>MOL_PROPERTY
U
SciTegic.value.DoubleValue
10.067

@<SCITEGIC>MOL_PROPERTY
W
SciTegic.value.DoubleValue
-62.945

@<SCITEGIC>MOL_PROPERTY
W(PB)
SciTegic.value.DoubleValue
-64.982

@<SCITEGIC>MOL_PROPERTY
W(SA)
SciTegic.value.DoubleValue
2.037

@<SCITEGIC>MOL_PROPERTY
Valence
SciTegic.value.DoubleValue
2.779

@<SCITEGIC>MOL_PROPERTY
Coulomb
SciTegic.value.DoubleValue
6.474

@<SCITEGIC>MOL_PROPERTY
VdW
SciTegic.value.DoubleValue
0.815

@<SCITEGIC>MOL_PROPERTY
VdW6
SciTegic.value.DoubleValue
-5.088

@<SCITEGIC>MOL_PROPERTY
VdW12
SciTegic.value.DoubleValue
5.902

@<SCITEGIC>MOL_PROPERTY
Bond
SciTegic.value.DoubleValue
0.078

@<SCITEGIC>MOL_PROPERTY
Angle
SciTegic.value.DoubleValue
2.651

@<SCITEGIC>MOL_PROPERTY
Pdih
SciTegic.value.DoubleValue
0.050

@<SCITEGIC>MOL_PROPERTY
Idih
SciTegic.value.DoubleValue
0.000

@<SCITEGIC>MOL_PROPERTY
Tether
SciTegic.value.DoubleValue
0.000

@<TRIPOS>MOLECULE
guest-s19_confgen4.mol2 : confsearch ligand conformer 156
          17          16           1
SMALL
USER_CHARGES
 
@<TRIPOS>ATOM
       1    C1      18.574360   20.145375   24.537685 C.2        1 MOL1         0.6173
       2    O1      17.997047   19.536853   25.417566 O.co2      1 MOL1        -0.6755
       3    O2      18.378952   21.325121   24.313045 O.co2      1 MOL1        -0.6755
       4    C2      19.560552   19.393655   23.715242 C.2        1 MOL1        -0.1504
       5    H1      19.686704   18.343671   23.968868 H          1 MOL1         0.0814
       6    C3      20.272018   19.941903   22.703893 C.2        1 MOL1        -0.1394
       7    H2      20.149067   20.992221   22.440769 H          1 MOL1         0.0817
       8    C4      21.273292   19.173318   21.866598 C.3        1 MOL1        -0.1849
       9    H3      21.563278   18.241039   22.370091 H          1 MOL1         0.0736
      10    H4      22.192002   19.767416   21.771580 H          1 MOL1         0.0736
      11    C5      20.734700   18.854658   20.454670 C.3        1 MOL1        -0.1866
      12    H5      20.441908   19.786504   19.951287 H          1 MOL1         0.0738
      13    H6      21.542257   18.413912   19.854009 H          1 MOL1         0.0738
      14    C6      19.538285   17.879617   20.481444 C.3        1 MOL1        -0.2879
      15    H7      18.685703   18.313387   21.019962 H          1 MOL1         0.0750
      16    H8      19.207839   17.645878   19.461132 H          1 MOL1         0.0750
      17    H9      19.810914   16.937191   20.973988 H          1 MOL1         0.0750
@<TRIPOS>BOND
    1     1     2    1
    2     1     3    2
    3     1     4    1
    4     4     5    1
    5     4     6    2
    6     6     7    1
    7     6     8    1
    8     8     9    1
    9     8    10    1
   10     8    11    1
   11    11    12    1
   12    11    13    1
   13    11    14    1
   14    14    15    1
   15    14    16    1
   16    14    17    1
@<TRIPOS>SUBSTRUCTURE
       1 MOL1            1 RESIDUE      1      MOL     
@<SCITEGIC>MOL_PROPERTY
VConf Rank
SciTegic.value.IntegerValue
156

@<SCITEGIC>MOL_PROPERTY
Conf_Id
SciTegic.value.IntegerValue
45

@<SCITEGIC>MOL_PROPERTY
Delta U+W
SciTegic.value.DoubleValue
0.562

@<SCITEGIC>MOL_PROPERTY
U+W
SciTegic.value.DoubleValue
-52.846

@<SCITEGIC>MOL_PROPERTY
Grad RMS
SciTegic.value.DoubleValue
0.000000

@<SCITEGIC>MOL_PROPERTY
U
SciTegic.value.DoubleValue
10.243

@<SCITEGIC>MOL_PROPERTY
W
SciTegic.value.DoubleValue
-63.089

@<SCITEGIC>MOL_PROPERTY
W(PB)
SciTegic.value.DoubleValue
-65.116

@<SCITEGIC>MOL_PROPERTY
W(SA)
SciTegic.value.DoubleValue
2.026

@<SCITEGIC>MOL_PROPERTY
Valence
SciTegic.value.DoubleValue
2.822

@<SCITEGIC>MOL_PROPERTY
Coulomb
SciTegic.value.DoubleValue
6.637

@<SCITEGIC>MOL_PROPERTY
VdW
SciTegic.value.DoubleValue
0.785

@<SCITEGIC>MOL_PROPERTY
VdW6
SciTegic.value.DoubleValue
-5.216

@<SCITEGIC>MOL_PROPERTY
VdW12
SciTegic.value.DoubleValue
6.001

@<SCITEGIC>MOL_PROPERTY
Bond
SciTegic.value.DoubleValue
0.080

@<SCITEGIC>MOL_PROPERTY
Angle
SciTegic.value.DoubleValue
2.678

@<SCITEGIC>MOL_PROPERTY
Pdih
SciTegic.value.DoubleValue
0.064

@<SCITEGIC>MOL_PROPERTY
Idih
SciTegic.value.DoubleValue
0.000

@<SCITEGIC>MOL_PROPERTY
Tether
SciTegic.value.DoubleValue
0.000

@<TRIPOS>MOLECULE
guest-s19_confgen4.mol2 : confsearch ligand conformer 157
          17          16           1
SMALL
USER_CHARGES
 
@<TRIPOS>ATOM
       1    C1      19.906774   16.795395   19.468639 C.2        1 MOL1         0.6173
       2    O1      19.906724   15.583120   19.558605 O.co2      1 MOL1        -0.6755
       3    O2      20.105029   17.380018   18.420162 O.co2      1 MOL1        -0.6755
       4    C2      19.649317   17.576831   20.708492 C.2        1 MOL1        -0.1504
       5    H1      19.479934   16.993403   21.610617 H          1 MOL1         0.0814
       6    C3      19.621385   18.928159   20.755582 C.2        1 MOL1        -0.1394
       7    H2      19.792124   19.522526   19.858169 H          1 MOL1         0.0817
       8    C4      19.360963   19.715298   22.021216 C.3        1 MOL1        -0.1849
       9    H3      18.595748   19.210599   22.626638 H          1 MOL1         0.0736
      10    H4      18.954347   20.702477   21.763285 H          1 MOL1         0.0736
      11    C5      20.649940   19.888619   22.850379 C.3        1 MOL1        -0.1866
      12    H5      21.055797   18.901736   23.112872 H          1 MOL1         0.0738
      13    H6      21.413042   20.395429   22.243431 H          1 MOL1         0.0738
      14    C6      20.394848   20.698142   24.137674 C.3        1 MOL1        -0.2879
      15    H7      20.018050   21.702171   23.902343 H          1 MOL1         0.0750
      16    H8      19.657281   20.196286   24.777651 H          1 MOL1         0.0750
      17    H9      21.322446   20.810830   24.713863 H          1 MOL1         0.0750
@<TRIPOS>BOND
    1     1     2    1
    2     1     3    2
    3     1     4    1
    4     4     5    1
    5     4     6    2
    6     6     7    1
    7     6     8    1
    8     8     9    1
    9     8    10    1
   10     8    11    1
   11    11    12    1
   12    11    13    1
   13    11    14    1
   14    14    15    1
   15    14    16    1
   16    14    17    1
@<TRIPOS>SUBSTRUCTURE
       1 MOL1            1 RESIDUE      1      MOL     
@<SCITEGIC>MOL_PROPERTY
VConf Rank
SciTegic.value.IntegerValue
157

@<SCITEGIC>MOL_PROPERTY
Conf_Id
SciTegic.value.IntegerValue
36

@<SCITEGIC>MOL_PROPERTY
Delta U+W
SciTegic.value.DoubleValue
0.000

@<SCITEGIC>MOL_PROPERTY
U+W
SciTegic.value.DoubleValue
-53.409

@<SCITEGIC>MOL_PROPERTY
Grad RMS
SciTegic.value.DoubleValue
0.000000

@<SCITEGIC>MOL_PROPERTY
U
SciTegic.value.DoubleValue
9.048

@<SCITEGIC>MOL_PROPERTY
W
SciTegic.value.DoubleValue
-62.457

@<SCITEGIC>MOL_PROPERTY
W(PB)
SciTegic.value.DoubleValue
-64.540

@<SCITEGIC>MOL_PROPERTY
W(SA)
SciTegic.value.DoubleValue
2.084

@<SCITEGIC>MOL_PROPERTY
Valence
SciTegic.value.DoubleValue
2.652

@<SCITEGIC>MOL_PROPERTY
Coulomb
SciTegic.value.DoubleValue
5.578

@<SCITEGIC>MOL_PROPERTY
VdW
SciTegic.value.DoubleValue
0.818

@<SCITEGIC>MOL_PROPERTY
VdW6
SciTegic.value.DoubleValue
-4.534

@<SCITEGIC>MOL_PROPERTY
VdW12
SciTegic.value.DoubleValue
5.352

@<SCITEGIC>MOL_PROPERTY
Bond
SciTegic.value.DoubleValue
0.063

@<SCITEGIC>MOL_PROPERTY
Angle
SciTegic.value.DoubleValue
2.579

@<SCITEGIC>MOL_PROPERTY
Pdih
SciTegic.value.DoubleValue
0.010

@<SCITEGIC>MOL_PROPERTY
Idih
SciTegic.value.DoubleValue
0.000

@<SCITEGIC>MOL_PROPERTY
Tether
SciTegic.value.DoubleValue
0.000

@<TRIPOS>MOLECULE
guest-s19_confgen4.mol2 : confsearch ligand conformer 158
          17          16           1
SMALL
USER_CHARGES
 
@<TRIPOS>ATOM
       1    C1      19.223735   15.911369   22.706299 C.2        1 MOL1         0.6173
       2    O1      19.315769   15.816054   23.915777 O.co2      1 MOL1        -0.6755
       3    O2      19.084488   14.948803   21.977064 O.co2      1 MOL1        -0.6755
       4    C2      19.279876   17.254629   22.068598 C.2        1 MOL1        -0.1504
       5    H1      19.191532   17.269479   20.984677 H          1 MOL1         0.0814
       6    C3      19.432402   18.409444   22.755783 C.2        1 MOL1        -0.1394
       7    H2      19.524071   18.405902   23.841765 H          1 MOL1         0.0817
       8    C4      19.490388   19.771402   22.099318 C.3        1 MOL1        -0.1849
       9    H3      19.175969   20.539927   22.818274 H          1 MOL1         0.0736
      10    H4      18.779147   19.815921   21.263279 H          1 MOL1         0.0736
      11    C5      20.911405   20.090341   21.591375 C.3        1 MOL1        -0.1866
      12    H5      21.620574   20.047325   22.429705 H          1 MOL1         0.0738
      13    H6      21.225947   19.324528   20.868773 H          1 MOL1         0.0738
      14    C6      20.980998   21.481028   20.929051 C.3        1 MOL1        -0.2879
      15    H7      20.701469   22.269433   21.640185 H          1 MOL1         0.0750
      16    H8      21.998671   21.689976   20.574353 H          1 MOL1         0.0750
      17    H9      20.303049   21.540170   20.067469 H          1 MOL1         0.0750
@<TRIPOS>BOND
    1     1     2    1
    2     1     3    2
    3     1     4    1
    4     4     5    1
    5     4     6    2
    6     6     7    1
    7     6     8    1
    8     8     9    1
    9     8    10    1
   10     8    11    1
   11    11    12    1
   12    11    13    1
   13    11    14    1
   14    14    15    1
   15    14    16    1
   16    14    17    1
@<TRIPOS>SUBSTRUCTURE
       1 MOL1            1 RESIDUE      1      MOL     
@<SCITEGIC>MOL_PROPERTY
VConf Rank
SciTegic.value.IntegerValue
158

@<SCITEGIC>MOL_PROPERTY
Conf_Id
SciTegic.value.IntegerValue
1

@<SCITEGIC>MOL_PROPERTY
Delta U+W
SciTegic.value.DoubleValue
0.030

@<SCITEGIC>MOL_PROPERTY
U+W
SciTegic.value.DoubleValue
-53.378

@<SCITEGIC>MOL_PROPERTY
Grad RMS
SciTegic.value.DoubleValue
0.000000

@<SCITEGIC>MOL_PROPERTY
U
SciTegic.value.DoubleValue
9.048

@<SCITEGIC>MOL_PROPERTY
W
SciTegic.value.DoubleValue
-62.426

@<SCITEGIC>MOL_PROPERTY
W(PB)
SciTegic.value.DoubleValue
-64.506

@<SCITEGIC>MOL_PROPERTY
W(SA)
SciTegic.value.DoubleValue
2.080

@<SCITEGIC>MOL_PROPERTY
Valence
SciTegic.value.DoubleValue
2.652

@<SCITEGIC>MOL_PROPERTY
Coulomb
SciTegic.value.DoubleValue
5.578

@<SCITEGIC>MOL_PROPERTY
VdW
SciTegic.value.DoubleValue
0.818

@<SCITEGIC>MOL_PROPERTY
VdW6
SciTegic.value.DoubleValue
-4.535

@<SCITEGIC>MOL_PROPERTY
VdW12
SciTegic.value.DoubleValue
5.352

@<SCITEGIC>MOL_PROPERTY
Bond
SciTegic.value.DoubleValue
0.063

@<SCITEGIC>MOL_PROPERTY
Angle
SciTegic.value.DoubleValue
2.579

@<SCITEGIC>MOL_PROPERTY
Pdih
SciTegic.value.DoubleValue
0.010

@<SCITEGIC>MOL_PROPERTY
Idih
SciTegic.value.DoubleValue
0.000

@<SCITEGIC>MOL_PROPERTY
Tether
SciTegic.value.DoubleValue
0.000

@<TRIPOS>MOLECULE
guest-s19_confgen4.mol2 : confsearch ligand conformer 159
          17          16           1
SMALL
USER_CHARGES
 
@<TRIPOS>ATOM
       1    C1      18.742203   21.892565   22.149634 C.2        1 MOL1         0.6173
       2    O1      19.288709   22.415296   21.196468 O.co2      1 MOL1        -0.6755
       3    O2      17.750352   22.356489   22.677664 O.co2      1 MOL1        -0.6755
       4    C2      19.295181   20.631633   22.713866 C.2        1 MOL1        -0.1504
       5    H1      18.759916   20.217680   23.565273 H          1 MOL1         0.0814
       6    C3      20.390127   20.004650   22.227068 C.2        1 MOL1        -0.1394
       7    H2      20.932006   20.408838   21.372318 H          1 MOL1         0.0817
       8    C4      20.944907   18.719297   22.804218 C.3        1 MOL1        -0.1849
       9    H3      20.897708   18.757486   23.900958 H          1 MOL1         0.0736
      10    H4      22.008287   18.623343   22.546709 H          1 MOL1         0.0736
      11    C5      20.178922   17.473410   22.307637 C.3        1 MOL1        -0.1866
      12    H5      20.553792   16.586656   22.837064 H          1 MOL1         0.0738
      13    H6      19.114667   17.565954   22.564978 H          1 MOL1         0.0738
      14    C6      20.328924   17.254039   20.787081 C.3        1 MOL1        -0.2879
      15    H7      21.385204   17.146115   20.508207 H          1 MOL1         0.0750
      16    H8      19.801163   16.343678   20.474642 H          1 MOL1         0.0750
      17    H9      19.909489   18.096672   20.222046 H          1 MOL1         0.0750
@<TRIPOS>BOND
    1     1     2    1
    2     1     3    2
    3     1     4    1
    4     4     5    1
    5     4     6    2
    6     6     7    1
    7     6     8    1
    8     8     9    1
    9     8    10    1
   10     8    11    1
   11    11    12    1
   12    11    13    1
   13    11    14    1
   14    14    15    1
   15    14    16    1
   16    14    17    1
@<TRIPOS>SUBSTRUCTURE
       1 MOL1            1 RESIDUE      1      MOL     
@<SCITEGIC>MOL_PROPERTY
VConf Rank
SciTegic.value.IntegerValue
159

@<SCITEGIC>MOL_PROPERTY
Conf_Id
SciTegic.value.IntegerValue
3

@<SCITEGIC>MOL_PROPERTY
Delta U+W
SciTegic.value.DoubleValue
0.531

@<SCITEGIC>MOL_PROPERTY
U+W
SciTegic.value.DoubleValue
-52.878

@<SCITEGIC>MOL_PROPERTY
Grad RMS
SciTegic.value.DoubleValue
0.000000

@<SCITEGIC>MOL_PROPERTY
U
SciTegic.value.DoubleValue
10.067

@<SCITEGIC>MOL_PROPERTY
W
SciTegic.value.DoubleValue
-62.945

@<SCITEGIC>MOL_PROPERTY
W(PB)
SciTegic.value.DoubleValue
-64.982

@<SCITEGIC>MOL_PROPERTY
W(SA)
SciTegic.value.DoubleValue
2.037

@<SCITEGIC>MOL_PROPERTY
Valence
SciTegic.value.DoubleValue
2.779

@<SCITEGIC>MOL_PROPERTY
Coulomb
SciTegic.value.DoubleValue
6.474

@<SCITEGIC>MOL_PROPERTY
VdW
SciTegic.value.DoubleValue
0.815

@<SCITEGIC>MOL_PROPERTY
VdW6
SciTegic.value.DoubleValue
-5.088

@<SCITEGIC>MOL_PROPERTY
VdW12
SciTegic.value.DoubleValue
5.902

@<SCITEGIC>MOL_PROPERTY
Bond
SciTegic.value.DoubleValue
0.078

@<SCITEGIC>MOL_PROPERTY
Angle
SciTegic.value.DoubleValue
2.651

@<SCITEGIC>MOL_PROPERTY
Pdih
SciTegic.value.DoubleValue
0.050

@<SCITEGIC>MOL_PROPERTY
Idih
SciTegic.value.DoubleValue
0.000

@<SCITEGIC>MOL_PROPERTY
Tether
SciTegic.value.DoubleValue
0.000

@<TRIPOS>MOLECULE
guest-s19_confgen4.mol2 : confsearch ligand conformer 160
          17          16           1
SMALL
USER_CHARGES
 
@<TRIPOS>ATOM
       1    C1      19.953451   20.238420   24.873110 C.2        1 MOL1         0.6173
       2    O1      19.264748   19.934203   25.827532 O.co2      1 MOL1        -0.6755
       3    O2      20.518784   21.312001   24.782167 O.co2      1 MOL1        -0.6755
       4    C2      20.098632   19.236154   23.782947 C.2        1 MOL1        -0.1504
       5    H1      19.567492   18.298260   23.927694 H          1 MOL1         0.0814
       6    C3      20.830698   19.440460   22.664053 C.2        1 MOL1        -0.1394
       7    H2      21.363023   20.378659   22.509353 H          1 MOL1         0.0817
       8    C4      20.974348   18.419202   21.554670 C.3        1 MOL1        -0.1849
       9    H3      20.680280   17.421343   21.907576 H          1 MOL1         0.0736
      10    H4      22.032880   18.343378   21.272233 H          1 MOL1         0.0736
      11    C5      20.147876   18.791795   20.304357 C.3        1 MOL1        -0.1866
      12    H5      20.439558   19.790988   19.952228 H          1 MOL1         0.0738
      13    H6      20.388721   18.090643   19.493446 H          1 MOL1         0.0738
      14    C6      18.626882   18.755537   20.565306 C.3        1 MOL1        -0.2879
      15    H7      18.337966   19.491364   21.326976 H          1 MOL1         0.0750
      16    H8      18.071992   18.986722   19.646874 H          1 MOL1         0.0750
      17    H9      18.311546   17.762593   20.911308 H          1 MOL1         0.0750
@<TRIPOS>BOND
    1     1     2    1
    2     1     3    2
    3     1     4    1
    4     4     5    1
    5     4     6    2
    6     6     7    1
    7     6     8    1
    8     8     9    1
    9     8    10    1
   10     8    11    1
   11    11    12    1
   12    11    13    1
   13    11    14    1
   14    14    15    1
   15    14    16    1
   16    14    17    1
@<TRIPOS>SUBSTRUCTURE
       1 MOL1            1 RESIDUE      1      MOL     
@<SCITEGIC>MOL_PROPERTY
VConf Rank
SciTegic.value.IntegerValue
160

@<SCITEGIC>MOL_PROPERTY
Conf_Id
SciTegic.value.IntegerValue
45

@<SCITEGIC>MOL_PROPERTY
Delta U+W
SciTegic.value.DoubleValue
0.562

@<SCITEGIC>MOL_PROPERTY
U+W
SciTegic.value.DoubleValue
-52.846

@<SCITEGIC>MOL_PROPERTY
Grad RMS
SciTegic.value.DoubleValue
0.000000

@<SCITEGIC>MOL_PROPERTY
U
SciTegic.value.DoubleValue
10.243

@<SCITEGIC>MOL_PROPERTY
W
SciTegic.value.DoubleValue
-63.089

@<SCITEGIC>MOL_PROPERTY
W(PB)
SciTegic.value.DoubleValue
-65.116

@<SCITEGIC>MOL_PROPERTY
W(SA)
SciTegic.value.DoubleValue
2.026

@<SCITEGIC>MOL_PROPERTY
Valence
SciTegic.value.DoubleValue
2.822

@<SCITEGIC>MOL_PROPERTY
Coulomb
SciTegic.value.DoubleValue
6.637

@<SCITEGIC>MOL_PROPERTY
VdW
SciTegic.value.DoubleValue
0.785

@<SCITEGIC>MOL_PROPERTY
VdW6
SciTegic.value.DoubleValue
-5.216

@<SCITEGIC>MOL_PROPERTY
VdW12
SciTegic.value.DoubleValue
6.001

@<SCITEGIC>MOL_PROPERTY
Bond
SciTegic.value.DoubleValue
0.080

@<SCITEGIC>MOL_PROPERTY
Angle
SciTegic.value.DoubleValue
2.678

@<SCITEGIC>MOL_PROPERTY
Pdih
SciTegic.value.DoubleValue
0.064

@<SCITEGIC>MOL_PROPERTY
Idih
SciTegic.value.DoubleValue
0.000

@<SCITEGIC>MOL_PROPERTY
Tether
SciTegic.value.DoubleValue
0.000

@<TRIPOS>MOLECULE
guest-s19_confgen4.mol2 : confsearch ligand conformer 161
          17          16           1
SMALL
USER_CHARGES
 
@<TRIPOS>ATOM
       1    C1      20.532541   19.043898   25.242411 C.2        1 MOL1         0.6173
       2    O1      20.671124   19.967874   26.020079 O.co2      1 MOL1        -0.6755
       3    O2      20.798263   17.892126   25.530868 O.co2      1 MOL1        -0.6755
       4    C2      20.012299   19.360160   23.884660 C.2        1 MOL1        -0.1504
       5    H1      19.794859   20.408255   23.691984 H          1 MOL1         0.0814
       6    C3      19.810117   18.433755   22.920304 C.2        1 MOL1        -0.1394
       7    H2      20.026882   17.381224   23.101863 H          1 MOL1         0.0817
       8    C4      19.282718   18.764100   21.541189 C.3        1 MOL1        -0.1849
       9    H3      18.510612   19.542437   21.610852 H          1 MOL1         0.0736
      10    H4      18.795554   17.878280   21.111792 H          1 MOL1         0.0736
      11    C5      20.414179   19.235621   20.604984 C.3        1 MOL1        -0.1866
      12    H5      20.899935   20.124436   21.031138 H          1 MOL1         0.0738
      13    H6      21.184155   18.454692   20.535311 H          1 MOL1         0.0738
      14    C6      19.886261   19.565372   19.194277 C.3        1 MOL1        -0.2879
      15    H7      19.423203   18.683752   18.731940 H          1 MOL1         0.0750
      16    H8      19.136234   20.366254   19.232784 H          1 MOL1         0.0750
      17    H9      20.704815   19.898801   18.543181 H          1 MOL1         0.0750
@<TRIPOS>BOND
    1     1     2    1
    2     1     3    2
    3     1     4    1
    4     4     5    1
    5     4     6    2
    6     6     7    1
    7     6     8    1
    8     8     9    1
    9     8    10    1
   10     8    11    1
   11    11    12    1
   12    11    13    1
   13    11    14    1
   14    14    15    1
   15    14    16    1
   16    14    17    1
@<TRIPOS>SUBSTRUCTURE
       1 MOL1            1 RESIDUE      1      MOL     
@<SCITEGIC>MOL_PROPERTY
VConf Rank
SciTegic.value.IntegerValue
161

@<SCITEGIC>MOL_PROPERTY
Conf_Id
SciTegic.value.IntegerValue
36

@<SCITEGIC>MOL_PROPERTY
Delta U+W
SciTegic.value.DoubleValue
0.000

@<SCITEGIC>MOL_PROPERTY
U+W
SciTegic.value.DoubleValue
-53.409

@<SCITEGIC>MOL_PROPERTY
Grad RMS
SciTegic.value.DoubleValue
0.000000

@<SCITEGIC>MOL_PROPERTY
U
SciTegic.value.DoubleValue
9.048

@<SCITEGIC>MOL_PROPERTY
W
SciTegic.value.DoubleValue
-62.457

@<SCITEGIC>MOL_PROPERTY
W(PB)
SciTegic.value.DoubleValue
-64.540

@<SCITEGIC>MOL_PROPERTY
W(SA)
SciTegic.value.DoubleValue
2.084

@<SCITEGIC>MOL_PROPERTY
Valence
SciTegic.value.DoubleValue
2.652

@<SCITEGIC>MOL_PROPERTY
Coulomb
SciTegic.value.DoubleValue
5.578

@<SCITEGIC>MOL_PROPERTY
VdW
SciTegic.value.DoubleValue
0.818

@<SCITEGIC>MOL_PROPERTY
VdW6
SciTegic.value.DoubleValue
-4.534

@<SCITEGIC>MOL_PROPERTY
VdW12
SciTegic.value.DoubleValue
5.352

@<SCITEGIC>MOL_PROPERTY
Bond
SciTegic.value.DoubleValue
0.063

@<SCITEGIC>MOL_PROPERTY
Angle
SciTegic.value.DoubleValue
2.579

@<SCITEGIC>MOL_PROPERTY
Pdih
SciTegic.value.DoubleValue
0.010

@<SCITEGIC>MOL_PROPERTY
Idih
SciTegic.value.DoubleValue
0.000

@<SCITEGIC>MOL_PROPERTY
Tether
SciTegic.value.DoubleValue
0.000

@<TRIPOS>MOLECULE
guest-s19_confgen4.mol2 : confsearch ligand conformer 162
          17          16           1
SMALL
USER_CHARGES
 
@<TRIPOS>ATOM
       1    C1      20.692532   18.987151   18.611212 C.2        1 MOL1         0.6173
       2    O1      21.822558   18.550742   18.497271 O.co2      1 MOL1        -0.6755
       3    O2      20.076172   19.473613   17.683225 O.co2      1 MOL1        -0.6755
       4    C2      20.013705   18.932870   19.934243 C.2        1 MOL1        -0.1504
       5    H1      19.005453   19.339367   19.967380 H          1 MOL1         0.0814
       6    C3      20.579167   18.421028   21.051095 C.2        1 MOL1        -0.1394
       7    H2      21.589591   18.013160   21.029644 H          1 MOL1         0.0817
       8    C4      19.882527   18.371321   22.393280 C.3        1 MOL1        -0.1849
       9    H3      20.310016   17.561515   22.999790 H          1 MOL1         0.0736
      10    H4      18.819402   18.131093   22.255940 H          1 MOL1         0.0736
      11    C5      20.020553   19.709400   23.147940 C.3        1 MOL1        -0.1866
      12    H5      21.084664   19.946415   23.285987 H          1 MOL1         0.0738
      13    H6      19.589591   20.520160   22.544202 H          1 MOL1         0.0738
      14    C6      19.320908   19.663852   24.521238 C.3        1 MOL1        -0.2879
      15    H7      19.754736   18.881342   25.157556 H          1 MOL1         0.0750
      16    H8      19.429797   20.623680   25.042778 H          1 MOL1         0.0750
      17    H9      18.248120   19.459022   24.408964 H          1 MOL1         0.0750
@<TRIPOS>BOND
    1     1     2    1
    2     1     3    2
    3     1     4    1
    4     4     5    1
    5     4     6    2
    6     6     7    1
    7     6     8    1
    8     8     9    1
    9     8    10    1
   10     8    11    1
   11    11    12    1
   12    11    13    1
   13    11    14    1
   14    14    15    1
   15    14    16    1
   16    14    17    1
@<TRIPOS>SUBSTRUCTURE
       1 MOL1            1 RESIDUE      1      MOL     
@<SCITEGIC>MOL_PROPERTY
VConf Rank
SciTegic.value.IntegerValue
162

@<SCITEGIC>MOL_PROPERTY
Conf_Id
SciTegic.value.IntegerValue
1

@<SCITEGIC>MOL_PROPERTY
Delta U+W
SciTegic.value.DoubleValue
0.030

@<SCITEGIC>MOL_PROPERTY
U+W
SciTegic.value.DoubleValue
-53.378

@<SCITEGIC>MOL_PROPERTY
Grad RMS
SciTegic.value.DoubleValue
0.000000

@<SCITEGIC>MOL_PROPERTY
U
SciTegic.value.DoubleValue
9.048

@<SCITEGIC>MOL_PROPERTY
W
SciTegic.value.DoubleValue
-62.426

@<SCITEGIC>MOL_PROPERTY
W(PB)
SciTegic.value.DoubleValue
-64.506

@<SCITEGIC>MOL_PROPERTY
W(SA)
SciTegic.value.DoubleValue
2.080

@<SCITEGIC>MOL_PROPERTY
Valence
SciTegic.value.DoubleValue
2.652

@<SCITEGIC>MOL_PROPERTY
Coulomb
SciTegic.value.DoubleValue
5.578

@<SCITEGIC>MOL_PROPERTY
VdW
SciTegic.value.DoubleValue
0.818

@<SCITEGIC>MOL_PROPERTY
VdW6
SciTegic.value.DoubleValue
-4.535

@<SCITEGIC>MOL_PROPERTY
VdW12
SciTegic.value.DoubleValue
5.352

@<SCITEGIC>MOL_PROPERTY
Bond
SciTegic.value.DoubleValue
0.063

@<SCITEGIC>MOL_PROPERTY
Angle
SciTegic.value.DoubleValue
2.579

@<SCITEGIC>MOL_PROPERTY
Pdih
SciTegic.value.DoubleValue
0.010

@<SCITEGIC>MOL_PROPERTY
Idih
SciTegic.value.DoubleValue
0.000

@<SCITEGIC>MOL_PROPERTY
Tether
SciTegic.value.DoubleValue
0.000

@<TRIPOS>MOLECULE
guest-s19_confgen4.mol2 : confsearch ligand conformer 163
          17          16           1
SMALL
USER_CHARGES
 
@<TRIPOS>ATOM
       1    C1      17.916982   17.486811   23.640479 C.2        1 MOL1         0.6173
       2    O1      18.616658   16.603485   24.099424 O.co2      1 MOL1        -0.6755
       3    O2      16.801922   17.730009   24.059174 O.co2      1 MOL1        -0.6755
       4    C2      18.424727   18.317093   22.514904 C.2        1 MOL1        -0.1504
       5    H1      17.749310   19.088084   22.151385 H          1 MOL1         0.0814
       6    C3      19.644216   18.158913   21.952043 C.2        1 MOL1        -0.1394
       7    H2      20.330181   17.391824   22.310685 H          1 MOL1         0.0817
       8    C4      20.155726   19.010439   20.809120 C.3        1 MOL1        -0.1849
       9    H3      19.345594   19.184115   20.087975 H          1 MOL1         0.0736
      10    H4      20.940621   18.469643   20.263435 H          1 MOL1         0.0736
      11    C5      20.705399   20.371242   21.290406 C.3        1 MOL1        -0.1866
      12    H5      20.962383   20.984458   20.415718 H          1 MOL1         0.0738
      13    H6      19.921816   20.915295   21.835778 H          1 MOL1         0.0738
      14    C6      21.953753   20.221560   22.185906 C.3        1 MOL1        -0.2879
      15    H7      22.755669   19.690981   21.656225 H          1 MOL1         0.0750
      16    H8      22.336919   21.206788   22.481570 H          1 MOL1         0.0750
      17    H9      21.719681   19.663059   23.101607 H          1 MOL1         0.0750
@<TRIPOS>BOND
    1     1     2    1
    2     1     3    2
    3     1     4    1
    4     4     5    1
    5     4     6    2
    6     6     7    1
    7     6     8    1
    8     8     9    1
    9     8    10    1
   10     8    11    1
   11    11    12    1
   12    11    13    1
   13    11    14    1
   14    14    15    1
   15    14    16    1
   16    14    17    1
@<TRIPOS>SUBSTRUCTURE
       1 MOL1            1 RESIDUE      1      MOL     
@<SCITEGIC>MOL_PROPERTY
VConf Rank
SciTegic.value.IntegerValue
163

@<SCITEGIC>MOL_PROPERTY
Conf_Id
SciTegic.value.IntegerValue
3

@<SCITEGIC>MOL_PROPERTY
Delta U+W
SciTegic.value.DoubleValue
0.531

@<SCITEGIC>MOL_PROPERTY
U+W
SciTegic.value.DoubleValue
-52.878

@<SCITEGIC>MOL_PROPERTY
Grad RMS
SciTegic.value.DoubleValue
0.000000

@<SCITEGIC>MOL_PROPERTY
U
SciTegic.value.DoubleValue
10.067

@<SCITEGIC>MOL_PROPERTY
W
SciTegic.value.DoubleValue
-62.945

@<SCITEGIC>MOL_PROPERTY
W(PB)
SciTegic.value.DoubleValue
-64.982

@<SCITEGIC>MOL_PROPERTY
W(SA)
SciTegic.value.DoubleValue
2.037

@<SCITEGIC>MOL_PROPERTY
Valence
SciTegic.value.DoubleValue
2.779

@<SCITEGIC>MOL_PROPERTY
Coulomb
SciTegic.value.DoubleValue
6.474

@<SCITEGIC>MOL_PROPERTY
VdW
SciTegic.value.DoubleValue
0.815

@<SCITEGIC>MOL_PROPERTY
VdW6
SciTegic.value.DoubleValue
-5.088

@<SCITEGIC>MOL_PROPERTY
VdW12
SciTegic.value.DoubleValue
5.902

@<SCITEGIC>MOL_PROPERTY
Bond
SciTegic.value.DoubleValue
0.078

@<SCITEGIC>MOL_PROPERTY
Angle
SciTegic.value.DoubleValue
2.651

@<SCITEGIC>MOL_PROPERTY
Pdih
SciTegic.value.DoubleValue
0.050

@<SCITEGIC>MOL_PROPERTY
Idih
SciTegic.value.DoubleValue
0.000

@<SCITEGIC>MOL_PROPERTY
Tether
SciTegic.value.DoubleValue
0.000

@<TRIPOS>MOLECULE
guest-s19_confgen4.mol2 : confsearch ligand conformer 164
          17          16           1
SMALL
USER_CHARGES
 
@<TRIPOS>ATOM
       1    C1      19.819578   17.697587   19.406732 C.2        1 MOL1         0.6173
       2    O1      20.707501   17.211488   18.733620 O.co2      1 MOL1        -0.6755
       3    O2      18.740329   18.017331   18.944742 O.co2      1 MOL1        -0.6755
       4    C2      20.087173   17.897423   20.856743 C.2        1 MOL1        -0.1504
       5    H1      21.071026   17.590329   21.203777 H          1 MOL1         0.0814
       6    C3      19.193261   18.428632   21.721799 C.2        1 MOL1        -0.1394
       7    H2      18.206613   18.742346   21.381759 H          1 MOL1         0.0817
       8    C4      19.469624   18.633365   23.196941 C.3        1 MOL1        -0.1849
       9    H3      20.330909   18.030765   23.516005 H          1 MOL1         0.0736
      10    H4      18.610808   18.269085   23.776376 H          1 MOL1         0.0736
      11    C5      19.716500   20.117263   23.546609 C.3        1 MOL1        -0.1866
      12    H5      18.856515   20.721164   23.225379 H          1 MOL1         0.0738
      13    H6      19.783191   20.221989   24.638297 H          1 MOL1         0.0738
      14    C6      21.008458   20.670849   22.908472 C.3        1 MOL1        -0.2879
      15    H7      20.952697   20.642280   21.812512 H          1 MOL1         0.0750
      16    H8      21.171725   21.713645   23.209777 H          1 MOL1         0.0750
      17    H9      21.882972   20.086181   23.222288 H          1 MOL1         0.0750
@<TRIPOS>BOND
    1     1     2    1
    2     1     3    2
    3     1     4    1
    4     4     5    1
    5     4     6    2
    6     6     7    1
    7     6     8    1
    8     8     9    1
    9     8    10    1
   10     8    11    1
   11    11    12    1
   12    11    13    1
   13    11    14    1
   14    14    15    1
   15    14    16    1
   16    14    17    1
@<TRIPOS>SUBSTRUCTURE
       1 MOL1            1 RESIDUE      1      MOL     
@<SCITEGIC>MOL_PROPERTY
VConf Rank
SciTegic.value.IntegerValue
164

@<SCITEGIC>MOL_PROPERTY
Conf_Id
SciTegic.value.IntegerValue
45

@<SCITEGIC>MOL_PROPERTY
Delta U+W
SciTegic.value.DoubleValue
0.562

@<SCITEGIC>MOL_PROPERTY
U+W
SciTegic.value.DoubleValue
-52.846

@<SCITEGIC>MOL_PROPERTY
Grad RMS
SciTegic.value.DoubleValue
0.000000

@<SCITEGIC>MOL_PROPERTY
U
SciTegic.value.DoubleValue
10.243

@<SCITEGIC>MOL_PROPERTY
W
SciTegic.value.DoubleValue
-63.089

@<SCITEGIC>MOL_PROPERTY
W(PB)
SciTegic.value.DoubleValue
-65.116

@<SCITEGIC>MOL_PROPERTY
W(SA)
SciTegic.value.DoubleValue
2.026

@<SCITEGIC>MOL_PROPERTY
Valence
SciTegic.value.DoubleValue
2.822

@<SCITEGIC>MOL_PROPERTY
Coulomb
SciTegic.value.DoubleValue
6.637

@<SCITEGIC>MOL_PROPERTY
VdW
SciTegic.value.DoubleValue
0.785

@<SCITEGIC>MOL_PROPERTY
VdW6
SciTegic.value.DoubleValue
-5.216

@<SCITEGIC>MOL_PROPERTY
VdW12
SciTegic.value.DoubleValue
6.001

@<SCITEGIC>MOL_PROPERTY
Bond
SciTegic.value.DoubleValue
0.080

@<SCITEGIC>MOL_PROPERTY
Angle
SciTegic.value.DoubleValue
2.678

@<SCITEGIC>MOL_PROPERTY
Pdih
SciTegic.value.DoubleValue
0.064

@<SCITEGIC>MOL_PROPERTY
Idih
SciTegic.value.DoubleValue
0.000

@<SCITEGIC>MOL_PROPERTY
Tether
SciTegic.value.DoubleValue
0.000

@<TRIPOS>MOLECULE
guest-s19_confgen4.mol2 : confsearch ligand conformer 165
          17          16           1
SMALL
USER_CHARGES
 
@<TRIPOS>ATOM
       1    C1      22.013113   17.513790   19.739749 C.2        1 MOL1         0.6173
       2    O1      21.890451   17.368382   18.539118 O.co2      1 MOL1        -0.6755
       3    O2      22.814436   16.882797   20.403167 O.co2      1 MOL1        -0.6755
       4    C2      21.134654   18.514114   20.404447 C.2        1 MOL1        -0.1504
       5    H1      20.441441   19.043201   19.754500 H          1 MOL1         0.0814
       6    C3      21.161986   18.778109   21.730586 C.2        1 MOL1        -0.1394
       7    H2      21.850918   18.252157   22.391282 H          1 MOL1         0.0817
       8    C4      20.263575   19.795567   22.399073 C.3        1 MOL1        -0.1849
       9    H3      20.142600   20.673637   21.750099 H          1 MOL1         0.0736
      10    H4      20.736895   20.153099   23.323479 H          1 MOL1         0.0736
      11    C5      18.880827   19.195423   22.725949 C.3        1 MOL1        -0.1866
      12    H5      18.404075   18.841002   21.801474 H          1 MOL1         0.0738
      13    H6      19.004303   18.318629   23.376760 H          1 MOL1         0.0738
      14    C6      17.962148   20.223588   23.416189 C.3        1 MOL1        -0.2879
      15    H7      18.401090   20.571112   24.360640 H          1 MOL1         0.0750
      16    H8      17.797327   21.097598   22.772468 H          1 MOL1         0.0750
      17    H9      16.983913   19.778831   23.640639 H          1 MOL1         0.0750
@<TRIPOS>BOND
    1     1     2    1
    2     1     3    2
    3     1     4    1
    4     4     5    1
    5     4     6    2
    6     6     7    1
    7     6     8    1
    8     8     9    1
    9     8    10    1
   10     8    11    1
   11    11    12    1
   12    11    13    1
   13    11    14    1
   14    14    15    1
   15    14    16    1
   16    14    17    1
@<TRIPOS>SUBSTRUCTURE
       1 MOL1            1 RESIDUE      1      MOL     
@<SCITEGIC>MOL_PROPERTY
VConf Rank
SciTegic.value.IntegerValue
165

@<SCITEGIC>MOL_PROPERTY
Conf_Id
SciTegic.value.IntegerValue
36

@<SCITEGIC>MOL_PROPERTY
Delta U+W
SciTegic.value.DoubleValue
0.000

@<SCITEGIC>MOL_PROPERTY
U+W
SciTegic.value.DoubleValue
-53.409

@<SCITEGIC>MOL_PROPERTY
Grad RMS
SciTegic.value.DoubleValue
0.000000

@<SCITEGIC>MOL_PROPERTY
U
SciTegic.value.DoubleValue
9.048

@<SCITEGIC>MOL_PROPERTY
W
SciTegic.value.DoubleValue
-62.457

@<SCITEGIC>MOL_PROPERTY
W(PB)
SciTegic.value.DoubleValue
-64.540

@<SCITEGIC>MOL_PROPERTY
W(SA)
SciTegic.value.DoubleValue
2.084

@<SCITEGIC>MOL_PROPERTY
Valence
SciTegic.value.DoubleValue
2.652

@<SCITEGIC>MOL_PROPERTY
Coulomb
SciTegic.value.DoubleValue
5.578

@<SCITEGIC>MOL_PROPERTY
VdW
SciTegic.value.DoubleValue
0.818

@<SCITEGIC>MOL_PROPERTY
VdW6
SciTegic.value.DoubleValue
-4.534

@<SCITEGIC>MOL_PROPERTY
VdW12
SciTegic.value.DoubleValue
5.352

@<SCITEGIC>MOL_PROPERTY
Bond
SciTegic.value.DoubleValue
0.063

@<SCITEGIC>MOL_PROPERTY
Angle
SciTegic.value.DoubleValue
2.579

@<SCITEGIC>MOL_PROPERTY
Pdih
SciTegic.value.DoubleValue
0.010

@<SCITEGIC>MOL_PROPERTY
Idih
SciTegic.value.DoubleValue
0.000

@<SCITEGIC>MOL_PROPERTY
Tether
SciTegic.value.DoubleValue
0.000

@<TRIPOS>MOLECULE
guest-s19_confgen4.mol2 : confsearch ligand conformer 166
          17          16           1
SMALL
USER_CHARGES
 
@<TRIPOS>ATOM
       1    C1      18.823606   18.990274   25.067941 C.2        1 MOL1         0.6173
       2    O1      19.026617   17.865390   25.484854 O.co2      1 MOL1        -0.6755
       3    O2      18.126056   19.795350   25.653590 O.co2      1 MOL1        -0.6755
       4    C2      19.446731   19.423206   23.787923 C.2        1 MOL1        -0.1504
       5    H1      19.225055   20.440118   23.472237 H          1 MOL1         0.0814
       6    C3      20.243048   18.633344   23.032222 C.2        1 MOL1        -0.1394
       7    H2      20.469908   17.612165   23.338003 H          1 MOL1         0.0817
       8    C4      20.871372   19.080816   21.730601 C.3        1 MOL1        -0.1849
       9    H3      21.777258   18.490527   21.537423 H          1 MOL1         0.0736
      10    H4      21.191962   20.128613   21.809021 H          1 MOL1         0.0736
      11    C5      19.891240   18.923311   20.550114 C.3        1 MOL1        -0.1866
      12    H5      19.573730   17.874163   20.472391 H          1 MOL1         0.0738
      13    H6      18.985962   19.516606   20.739937 H          1 MOL1         0.0738
      14    C6      20.527393   19.368685   19.218019 C.3        1 MOL1        -0.2879
      15    H7      21.418001   18.769231   18.988013 H          1 MOL1         0.0750
      16    H8      19.815792   19.249432   18.390654 H          1 MOL1         0.0750
      17    H9      20.825761   20.424502   19.258802 H          1 MOL1         0.0750
@<TRIPOS>BOND
    1     1     2    1
    2     1     3    2
    3     1     4    1
    4     4     5    1
    5     4     6    2
    6     6     7    1
    7     6     8    1
    8     8     9    1
    9     8    10    1
   10     8    11    1
   11    11    12    1
   12    11    13    1
   13    11    14    1
   14    14    15    1
   15    14    16    1
   16    14    17    1
@<TRIPOS>SUBSTRUCTURE
       1 MOL1            1 RESIDUE      1      MOL     
@<SCITEGIC>MOL_PROPERTY
VConf Rank
SciTegic.value.IntegerValue
166

@<SCITEGIC>MOL_PROPERTY
Conf_Id
SciTegic.value.IntegerValue
1

@<SCITEGIC>MOL_PROPERTY
Delta U+W
SciTegic.value.DoubleValue
0.030

@<SCITEGIC>MOL_PROPERTY
U+W
SciTegic.value.DoubleValue
-53.378

@<SCITEGIC>MOL_PROPERTY
Grad RMS
SciTegic.value.DoubleValue
0.000000

@<SCITEGIC>MOL_PROPERTY
U
SciTegic.value.DoubleValue
9.048

@<SCITEGIC>MOL_PROPERTY
W
SciTegic.value.DoubleValue
-62.426

@<SCITEGIC>MOL_PROPERTY
W(PB)
SciTegic.value.DoubleValue
-64.506

@<SCITEGIC>MOL_PROPERTY
W(SA)
SciTegic.value.DoubleValue
2.080

@<SCITEGIC>MOL_PROPERTY
Valence
SciTegic.value.DoubleValue
2.652

@<SCITEGIC>MOL_PROPERTY
Coulomb
SciTegic.value.DoubleValue
5.578

@<SCITEGIC>MOL_PROPERTY
VdW
SciTegic.value.DoubleValue
0.818

@<SCITEGIC>MOL_PROPERTY
VdW6
SciTegic.value.DoubleValue
-4.535

@<SCITEGIC>MOL_PROPERTY
VdW12
SciTegic.value.DoubleValue
5.352

@<SCITEGIC>MOL_PROPERTY
Bond
SciTegic.value.DoubleValue
0.063

@<SCITEGIC>MOL_PROPERTY
Angle
SciTegic.value.DoubleValue
2.579

@<SCITEGIC>MOL_PROPERTY
Pdih
SciTegic.value.DoubleValue
0.010

@<SCITEGIC>MOL_PROPERTY
Idih
SciTegic.value.DoubleValue
0.000

@<SCITEGIC>MOL_PROPERTY
Tether
SciTegic.value.DoubleValue
0.000

@<TRIPOS>MOLECULE
guest-s19_confgen4.mol2 : confsearch ligand conformer 167
          17          16           1
SMALL
USER_CHARGES
 
@<TRIPOS>ATOM
       1    C1      21.128918   16.220571   22.253858 C.2        1 MOL1         0.6173
       2    O1      20.833792   15.952249   23.403356 O.co2      1 MOL1        -0.6755
       3    O2      21.454650   15.376410   21.442008 O.co2      1 MOL1        -0.6755
       4    C2      21.100854   17.637024   21.798924 C.2        1 MOL1        -0.1504
       5    H1      21.376325   17.807743   20.760786 H          1 MOL1         0.0814
       6    C3      20.757079   18.676777   22.592472 C.2        1 MOL1        -0.1394
       7    H2      20.476105   18.516712   23.633160 H          1 MOL1         0.0817
       8    C4      20.727065   20.115562   22.121291 C.3        1 MOL1        -0.1849
       9    H3      21.593426   20.309442   21.474487 H          1 MOL1         0.0736
      10    H4      20.829320   20.791628   22.980809 H          1 MOL1         0.0736
      11    C5      19.432982   20.454162   21.349111 C.3        1 MOL1        -0.1866
      12    H5      19.512843   21.472000   20.943177 H          1 MOL1         0.0738
      13    H6      19.328531   19.780058   20.487658 H          1 MOL1         0.0738
      14    C6      18.173444   20.362434   22.236726 C.3        1 MOL1        -0.2879
      15    H7      18.250304   21.038105   23.098530 H          1 MOL1         0.0750
      16    H8      17.278148   20.641353   21.666149 H          1 MOL1         0.0750
      17    H9      18.027770   19.341567   22.613330 H          1 MOL1         0.0750
@<TRIPOS>BOND
    1     1     2    1
    2     1     3    2
    3     1     4    1
    4     4     5    1
    5     4     6    2
    6     6     7    1
    7     6     8    1
    8     8     9    1
    9     8    10    1
   10     8    11    1
   11    11    12    1
   12    11    13    1
   13    11    14    1
   14    14    15    1
   15    14    16    1
   16    14    17    1
@<TRIPOS>SUBSTRUCTURE
       1 MOL1            1 RESIDUE      1      MOL     
@<SCITEGIC>MOL_PROPERTY
VConf Rank
SciTegic.value.IntegerValue
167

@<SCITEGIC>MOL_PROPERTY
Conf_Id
SciTegic.value.IntegerValue
3

@<SCITEGIC>MOL_PROPERTY
Delta U+W
SciTegic.value.DoubleValue
0.531

@<SCITEGIC>MOL_PROPERTY
U+W
SciTegic.value.DoubleValue
-52.878

@<SCITEGIC>MOL_PROPERTY
Grad RMS
SciTegic.value.DoubleValue
0.000000

@<SCITEGIC>MOL_PROPERTY
U
SciTegic.value.DoubleValue
10.067

@<SCITEGIC>MOL_PROPERTY
W
SciTegic.value.DoubleValue
-62.945

@<SCITEGIC>MOL_PROPERTY
W(PB)
SciTegic.value.DoubleValue
-64.982

@<SCITEGIC>MOL_PROPERTY
W(SA)
SciTegic.value.DoubleValue
2.037

@<SCITEGIC>MOL_PROPERTY
Valence
SciTegic.value.DoubleValue
2.779

@<SCITEGIC>MOL_PROPERTY
Coulomb
SciTegic.value.DoubleValue
6.474

@<SCITEGIC>MOL_PROPERTY
VdW
SciTegic.value.DoubleValue
0.815

@<SCITEGIC>MOL_PROPERTY
VdW6
SciTegic.value.DoubleValue
-5.088

@<SCITEGIC>MOL_PROPERTY
VdW12
SciTegic.value.DoubleValue
5.902

@<SCITEGIC>MOL_PROPERTY
Bond
SciTegic.value.DoubleValue
0.078

@<SCITEGIC>MOL_PROPERTY
Angle
SciTegic.value.DoubleValue
2.651

@<SCITEGIC>MOL_PROPERTY
Pdih
SciTegic.value.DoubleValue
0.050

@<SCITEGIC>MOL_PROPERTY
Idih
SciTegic.value.DoubleValue
0.000

@<SCITEGIC>MOL_PROPERTY
Tether
SciTegic.value.DoubleValue
0.000

@<TRIPOS>MOLECULE
guest-s19_confgen4.mol2 : confsearch ligand conformer 168
          17          16           1
SMALL
USER_CHARGES
 
@<TRIPOS>ATOM
       1    C1      20.486220   16.849504   20.128142 C.2        1 MOL1         0.6173
       2    O1      20.884420   15.719943   20.336252 O.co2      1 MOL1        -0.6755
       3    O2      20.560343   17.385524   19.038355 O.co2      1 MOL1        -0.6755
       4    C2      19.882973   17.587117   21.270986 C.2        1 MOL1        -0.1504
       5    H1      19.847776   17.050076   22.216002 H          1 MOL1         0.0814
       6    C3      19.401900   18.848315   21.184192 C.2        1 MOL1        -0.1394
       7    H2      19.436594   19.394932   20.242107 H          1 MOL1         0.0817
       8    C4      18.790835   19.597623   22.350157 C.3        1 MOL1        -0.1849
       9    H3      18.514458   18.902114   23.154286 H          1 MOL1         0.0736
      10    H4      17.856088   20.071168   22.021503 H          1 MOL1         0.0736
      11    C5      19.734721   20.685843   22.906952 C.3        1 MOL1        -0.1866
      12    H5      20.013800   21.380508   22.102579 H          1 MOL1         0.0738
      13    H6      19.195262   21.277484   23.659378 H          1 MOL1         0.0738
      14    C6      21.007981   20.095507   23.549712 C.3        1 MOL1        -0.2879
      15    H7      21.608223   19.549358   22.810465 H          1 MOL1         0.0750
      16    H8      21.634704   20.893537   23.968320 H          1 MOL1         0.0750
      17    H9      20.752583   19.403168   24.362442 H          1 MOL1         0.0750
@<TRIPOS>BOND
    1     1     2    1
    2     1     3    2
    3     1     4    1
    4     4     5    1
    5     4     6    2
    6     6     7    1
    7     6     8    1
    8     8     9    1
    9     8    10    1
   10     8    11    1
   11    11    12    1
   12    11    13    1
   13    11    14    1
   14    14    15    1
   15    14    16    1
   16    14    17    1
@<TRIPOS>SUBSTRUCTURE
       1 MOL1            1 RESIDUE      1      MOL     
@<SCITEGIC>MOL_PROPERTY
VConf Rank
SciTegic.value.IntegerValue
168

@<SCITEGIC>MOL_PROPERTY
Conf_Id
SciTegic.value.IntegerValue
45

@<SCITEGIC>MOL_PROPERTY
Delta U+W
SciTegic.value.DoubleValue
0.562

@<SCITEGIC>MOL_PROPERTY
U+W
SciTegic.value.DoubleValue
-52.846

@<SCITEGIC>MOL_PROPERTY
Grad RMS
SciTegic.value.DoubleValue
0.000000

@<SCITEGIC>MOL_PROPERTY
U
SciTegic.value.DoubleValue
10.243

@<SCITEGIC>MOL_PROPERTY
W
SciTegic.value.DoubleValue
-63.089

@<SCITEGIC>MOL_PROPERTY
W(PB)
SciTegic.value.DoubleValue
-65.116

@<SCITEGIC>MOL_PROPERTY
W(SA)
SciTegic.value.DoubleValue
2.026

@<SCITEGIC>MOL_PROPERTY
Valence
SciTegic.value.DoubleValue
2.822

@<SCITEGIC>MOL_PROPERTY
Coulomb
SciTegic.value.DoubleValue
6.637

@<SCITEGIC>MOL_PROPERTY
VdW
SciTegic.value.DoubleValue
0.785

@<SCITEGIC>MOL_PROPERTY
VdW6
SciTegic.value.DoubleValue
-5.216

@<SCITEGIC>MOL_PROPERTY
VdW12
SciTegic.value.DoubleValue
6.001

@<SCITEGIC>MOL_PROPERTY
Bond
SciTegic.value.DoubleValue
0.080

@<SCITEGIC>MOL_PROPERTY
Angle
SciTegic.value.DoubleValue
2.678

@<SCITEGIC>MOL_PROPERTY
Pdih
SciTegic.value.DoubleValue
0.064

@<SCITEGIC>MOL_PROPERTY
Idih
SciTegic.value.DoubleValue
0.000

@<SCITEGIC>MOL_PROPERTY
Tether
SciTegic.value.DoubleValue
0.000

@<TRIPOS>MOLECULE
guest-s19_confgen4.mol2 : confsearch ligand conformer 169
          17          16           1
SMALL
USER_CHARGES
 
@<TRIPOS>ATOM
       1    C1      22.425237   19.798167   19.677446 C.2        1 MOL1         0.6173
       2    O1      23.273291   19.060380   19.214653 O.co2      1 MOL1        -0.6755
       3    O2      22.466705   21.008421   19.559292 O.co2      1 MOL1        -0.6755
       4    C2      21.296009   19.170085   20.415362 C.2        1 MOL1        -0.1504
       5    H1      21.319270   18.084907   20.484320 H          1 MOL1         0.0814
       6    C3      20.285285   19.867447   20.982114 C.2        1 MOL1        -0.1394
       7    H2      20.253379   20.955119   20.921078 H          1 MOL1         0.0817
       8    C4      19.141660   19.221038   21.732791 C.3        1 MOL1        -0.1849
       9    H3      18.843976   18.288854   21.233564 H          1 MOL1         0.0736
      10    H4      18.265070   19.882377   21.708143 H          1 MOL1         0.0736
      11    C5      19.525655   18.927424   23.197493 C.3        1 MOL1        -0.1866
      12    H5      20.400072   18.262400   23.223922 H          1 MOL1         0.0738
      13    H6      19.821031   19.861539   23.695238 H          1 MOL1         0.0738
      14    C6      18.361942   18.276973   23.972227 C.3        1 MOL1        -0.2879
      15    H7      17.483815   18.935805   23.988508 H          1 MOL1         0.0750
      16    H8      18.067618   17.324474   23.512276 H          1 MOL1         0.0750
      17    H9      18.653735   18.075625   25.011192 H          1 MOL1         0.0750
@<TRIPOS>BOND
    1     1     2    1
    2     1     3    2
    3     1     4    1
    4     4     5    1
    5     4     6    2
    6     6     7    1
    7     6     8    1
    8     8     9    1
    9     8    10    1
   10     8    11    1
   11    11    12    1
   12    11    13    1
   13    11    14    1
   14    14    15    1
   15    14    16    1
   16    14    17    1
@<TRIPOS>SUBSTRUCTURE
       1 MOL1            1 RESIDUE      1      MOL     
@<SCITEGIC>MOL_PROPERTY
VConf Rank
SciTegic.value.IntegerValue
169

@<SCITEGIC>MOL_PROPERTY
Conf_Id
SciTegic.value.IntegerValue
36

@<SCITEGIC>MOL_PROPERTY
Delta U+W
SciTegic.value.DoubleValue
0.000

@<SCITEGIC>MOL_PROPERTY
U+W
SciTegic.value.DoubleValue
-53.409

@<SCITEGIC>MOL_PROPERTY
Grad RMS
SciTegic.value.DoubleValue
0.000000

@<SCITEGIC>MOL_PROPERTY
U
SciTegic.value.DoubleValue
9.048

@<SCITEGIC>MOL_PROPERTY
W
SciTegic.value.DoubleValue
-62.457

@<SCITEGIC>MOL_PROPERTY
W(PB)
SciTegic.value.DoubleValue
-64.540

@<SCITEGIC>MOL_PROPERTY
W(SA)
SciTegic.value.DoubleValue
2.084

@<SCITEGIC>MOL_PROPERTY
Valence
SciTegic.value.DoubleValue
2.652

@<SCITEGIC>MOL_PROPERTY
Coulomb
SciTegic.value.DoubleValue
5.578

@<SCITEGIC>MOL_PROPERTY
VdW
SciTegic.value.DoubleValue
0.818

@<SCITEGIC>MOL_PROPERTY
VdW6
SciTegic.value.DoubleValue
-4.534

@<SCITEGIC>MOL_PROPERTY
VdW12
SciTegic.value.DoubleValue
5.352

@<SCITEGIC>MOL_PROPERTY
Bond
SciTegic.value.DoubleValue
0.063

@<SCITEGIC>MOL_PROPERTY
Angle
SciTegic.value.DoubleValue
2.579

@<SCITEGIC>MOL_PROPERTY
Pdih
SciTegic.value.DoubleValue
0.010

@<SCITEGIC>MOL_PROPERTY
Idih
SciTegic.value.DoubleValue
0.000

@<SCITEGIC>MOL_PROPERTY
Tether
SciTegic.value.DoubleValue
0.000

@<TRIPOS>MOLECULE
guest-s19_confgen4.mol2 : confsearch ligand conformer 170
          17          16           1
SMALL
USER_CHARGES
 
@<TRIPOS>ATOM
       1    C1      17.097906   19.909257   23.399428 C.2        1 MOL1         0.6173
       2    O1      17.206655   21.059214   23.781746 O.co2      1 MOL1        -0.6755
       3    O2      16.171595   19.191242   23.722086 O.co2      1 MOL1        -0.6755
       4    C2      18.130756   19.334556   22.495491 C.2        1 MOL1        -0.1504
       5    H1      17.973706   18.302288   22.191080 H          1 MOL1         0.0814
       6    C3      19.213294   20.016937   22.057821 C.2        1 MOL1        -0.1394
       7    H2      19.381539   21.050927   22.358373 H          1 MOL1         0.0817
       8    C4      20.260098   19.424381   21.140041 C.3        1 MOL1        -0.1849
       9    H3      20.760083   20.229142   20.584378 H          1 MOL1         0.0736
      10    H4      19.781077   18.778625   20.391479 H          1 MOL1         0.0736
      11    C5      21.308055   18.615264   21.931326 C.3        1 MOL1        -0.1866
      12    H5      21.787277   19.263791   22.677869 H          1 MOL1         0.0738
      13    H6      20.809908   17.807049   22.484677 H          1 MOL1         0.0738
      14    C6      22.383998   18.015567   21.003837 C.3        1 MOL1        -0.2879
      15    H7      22.919788   18.805501   20.461284 H          1 MOL1         0.0750
      16    H8      23.120004   17.444084   21.584209 H          1 MOL1         0.0750
      17    H9      21.933752   17.337905   20.266620 H          1 MOL1         0.0750
@<TRIPOS>BOND
    1     1     2    1
    2     1     3    2
    3     1     4    1
    4     4     5    1
    5     4     6    2
    6     6     7    1
    7     6     8    1
    8     8     9    1
    9     8    10    1
   10     8    11    1
   11    11    12    1
   12    11    13    1
   13    11    14    1
   14    14    15    1
   15    14    16    1
   16    14    17    1
@<TRIPOS>SUBSTRUCTURE
       1 MOL1            1 RESIDUE      1      MOL     
@<SCITEGIC>MOL_PROPERTY
VConf Rank
SciTegic.value.IntegerValue
170

@<SCITEGIC>MOL_PROPERTY
Conf_Id
SciTegic.value.IntegerValue
1

@<SCITEGIC>MOL_PROPERTY
Delta U+W
SciTegic.value.DoubleValue
0.030

@<SCITEGIC>MOL_PROPERTY
U+W
SciTegic.value.DoubleValue
-53.378

@<SCITEGIC>MOL_PROPERTY
Grad RMS
SciTegic.value.DoubleValue
0.000000

@<SCITEGIC>MOL_PROPERTY
U
SciTegic.value.DoubleValue
9.048

@<SCITEGIC>MOL_PROPERTY
W
SciTegic.value.DoubleValue
-62.426

@<SCITEGIC>MOL_PROPERTY
W(PB)
SciTegic.value.DoubleValue
-64.506

@<SCITEGIC>MOL_PROPERTY
W(SA)
SciTegic.value.DoubleValue
2.080

@<SCITEGIC>MOL_PROPERTY
Valence
SciTegic.value.DoubleValue
2.652

@<SCITEGIC>MOL_PROPERTY
Coulomb
SciTegic.value.DoubleValue
5.578

@<SCITEGIC>MOL_PROPERTY
VdW
SciTegic.value.DoubleValue
0.818

@<SCITEGIC>MOL_PROPERTY
VdW6
SciTegic.value.DoubleValue
-4.535

@<SCITEGIC>MOL_PROPERTY
VdW12
SciTegic.value.DoubleValue
5.352

@<SCITEGIC>MOL_PROPERTY
Bond
SciTegic.value.DoubleValue
0.063

@<SCITEGIC>MOL_PROPERTY
Angle
SciTegic.value.DoubleValue
2.579

@<SCITEGIC>MOL_PROPERTY
Pdih
SciTegic.value.DoubleValue
0.010

@<SCITEGIC>MOL_PROPERTY
Idih
SciTegic.value.DoubleValue
0.000

@<SCITEGIC>MOL_PROPERTY
Tether
SciTegic.value.DoubleValue
0.000

@<TRIPOS>MOLECULE
guest-s19_confgen4.mol2 : confsearch ligand conformer 171
          17          16           1
SMALL
USER_CHARGES
 
@<TRIPOS>ATOM
       1    C1      17.673644   18.122918   20.295419 C.2        1 MOL1         0.6173
       2    O1      17.733659   18.930003   19.386875 O.co2      1 MOL1        -0.6755
       3    O2      17.040863   17.087845   20.217798 O.co2      1 MOL1        -0.6755
       4    C2      18.394907   18.393724   21.568422 C.2        1 MOL1        -0.1504
       5    H1      18.299091   17.632763   22.339472 H          1 MOL1         0.0814
       6    C3      19.136914   19.501825   21.793193 C.2        1 MOL1        -0.1394
       7    H2      19.242429   20.268957   21.026399 H          1 MOL1         0.0817
       8    C4      19.871451   19.768799   23.090187 C.3        1 MOL1        -0.1849
       9    H3      19.241883   19.468220   23.938611 H          1 MOL1         0.0736
      10    H4      20.045489   20.847141   23.205014 H          1 MOL1         0.0736
      11    C5      21.218510   19.017185   23.168095 C.3        1 MOL1        -0.1866
      12    H5      21.653834   19.162778   24.166318 H          1 MOL1         0.0738
      13    H6      21.047452   17.937685   23.054750 H          1 MOL1         0.0738
      14    C6      22.226768   19.498429   22.102952 C.3        1 MOL1        -0.2879
      15    H7      22.422812   20.573717   22.205262 H          1 MOL1         0.0750
      16    H8      23.182078   18.968188   22.208480 H          1 MOL1         0.0750
      17    H9      21.849774   19.313623   21.088584 H          1 MOL1         0.0750
@<TRIPOS>BOND
    1     1     2    1
    2     1     3    2
    3     1     4    1
    4     4     5    1
    5     4     6    2
    6     6     7    1
    7     6     8    1
    8     8     9    1
    9     8    10    1
   10     8    11    1
   11    11    12    1
   12    11    13    1
   13    11    14    1
   14    14    15    1
   15    14    16    1
   16    14    17    1
@<TRIPOS>SUBSTRUCTURE
       1 MOL1            1 RESIDUE      1      MOL     
@<SCITEGIC>MOL_PROPERTY
VConf Rank
SciTegic.value.IntegerValue
171

@<SCITEGIC>MOL_PROPERTY
Conf_Id
SciTegic.value.IntegerValue
3

@<SCITEGIC>MOL_PROPERTY
Delta U+W
SciTegic.value.DoubleValue
0.531

@<SCITEGIC>MOL_PROPERTY
U+W
SciTegic.value.DoubleValue
-52.878

@<SCITEGIC>MOL_PROPERTY
Grad RMS
SciTegic.value.DoubleValue
0.000000

@<SCITEGIC>MOL_PROPERTY
U
SciTegic.value.DoubleValue
10.067

@<SCITEGIC>MOL_PROPERTY
W
SciTegic.value.DoubleValue
-62.945

@<SCITEGIC>MOL_PROPERTY
W(PB)
SciTegic.value.DoubleValue
-64.982

@<SCITEGIC>MOL_PROPERTY
W(SA)
SciTegic.value.DoubleValue
2.037

@<SCITEGIC>MOL_PROPERTY
Valence
SciTegic.value.DoubleValue
2.779

@<SCITEGIC>MOL_PROPERTY
Coulomb
SciTegic.value.DoubleValue
6.474

@<SCITEGIC>MOL_PROPERTY
VdW
SciTegic.value.DoubleValue
0.815

@<SCITEGIC>MOL_PROPERTY
VdW6
SciTegic.value.DoubleValue
-5.088

@<SCITEGIC>MOL_PROPERTY
VdW12
SciTegic.value.DoubleValue
5.902

@<SCITEGIC>MOL_PROPERTY
Bond
SciTegic.value.DoubleValue
0.078

@<SCITEGIC>MOL_PROPERTY
Angle
SciTegic.value.DoubleValue
2.651

@<SCITEGIC>MOL_PROPERTY
Pdih
SciTegic.value.DoubleValue
0.050

@<SCITEGIC>MOL_PROPERTY
Idih
SciTegic.value.DoubleValue
0.000

@<SCITEGIC>MOL_PROPERTY
Tether
SciTegic.value.DoubleValue
0.000

@<TRIPOS>MOLECULE
guest-s19_confgen4.mol2 : confsearch ligand conformer 172
          17          16           1
SMALL
USER_CHARGES
 
@<TRIPOS>ATOM
       1    C1      19.111592   21.077800   19.965722 C.2        1 MOL1         0.6173
       2    O1      18.269471   20.964099   19.096420 O.co2      1 MOL1        -0.6755
       3    O2      20.010809   21.895646   19.911088 O.co2      1 MOL1        -0.6755
       4    C2      19.015303   20.167971   21.139183 C.2        1 MOL1        -0.1504
       5    H1      18.188438   19.461722   21.124632 H          1 MOL1         0.0814
       6    C3      19.883086   20.181803   22.176654 C.2        1 MOL1        -0.1394
       7    H2      20.716438   20.883664   22.197467 H          1 MOL1         0.0817
       8    C4      19.784028   19.252400   23.368600 C.3        1 MOL1        -0.1849
       9    H3      18.782373   18.805270   23.427775 H          1 MOL1         0.0736
      10    H4      19.912615   19.836142   24.289860 H          1 MOL1         0.0736
      11    C5      20.849598   18.135127   23.330843 C.3        1 MOL1        -0.1866
      12    H5      21.851781   18.581513   23.268976 H          1 MOL1         0.0738
      13    H6      20.813891   17.573690   24.274618 H          1 MOL1         0.0738
      14    C6      20.642485   17.156324   22.155309 C.3        1 MOL1        -0.2879
      15    H7      20.735585   17.670993   21.190166 H          1 MOL1         0.0750
      16    H8      21.392615   16.355448   22.183041 H          1 MOL1         0.0750
      17    H9      19.648772   16.692109   22.201476 H          1 MOL1         0.0750
@<TRIPOS>BOND
    1     1     2    1
    2     1     3    2
    3     1     4    1
    4     4     5    1
    5     4     6    2
    6     6     7    1
    7     6     8    1
    8     8     9    1
    9     8    10    1
   10     8    11    1
   11    11    12    1
   12    11    13    1
   13    11    14    1
   14    14    15    1
   15    14    16    1
   16    14    17    1
@<TRIPOS>SUBSTRUCTURE
       1 MOL1            1 RESIDUE      1      MOL     
@<SCITEGIC>MOL_PROPERTY
VConf Rank
SciTegic.value.IntegerValue
172

@<SCITEGIC>MOL_PROPERTY
Conf_Id
SciTegic.value.IntegerValue
45

@<SCITEGIC>MOL_PROPERTY
Delta U+W
SciTegic.value.DoubleValue
0.562

@<SCITEGIC>MOL_PROPERTY
U+W
SciTegic.value.DoubleValue
-52.846

@<SCITEGIC>MOL_PROPERTY
Grad RMS
SciTegic.value.DoubleValue
0.000000

@<SCITEGIC>MOL_PROPERTY
U
SciTegic.value.DoubleValue
10.243

@<SCITEGIC>MOL_PROPERTY
W
SciTegic.value.DoubleValue
-63.089

@<SCITEGIC>MOL_PROPERTY
W(PB)
SciTegic.value.DoubleValue
-65.116

@<SCITEGIC>MOL_PROPERTY
W(SA)
SciTegic.value.DoubleValue
2.026

@<SCITEGIC>MOL_PROPERTY
Valence
SciTegic.value.DoubleValue
2.822

@<SCITEGIC>MOL_PROPERTY
Coulomb
SciTegic.value.DoubleValue
6.637

@<SCITEGIC>MOL_PROPERTY
VdW
SciTegic.value.DoubleValue
0.785

@<SCITEGIC>MOL_PROPERTY
VdW6
SciTegic.value.DoubleValue
-5.216

@<SCITEGIC>MOL_PROPERTY
VdW12
SciTegic.value.DoubleValue
6.001

@<SCITEGIC>MOL_PROPERTY
Bond
SciTegic.value.DoubleValue
0.080

@<SCITEGIC>MOL_PROPERTY
Angle
SciTegic.value.DoubleValue
2.678

@<SCITEGIC>MOL_PROPERTY
Pdih
SciTegic.value.DoubleValue
0.064

@<SCITEGIC>MOL_PROPERTY
Idih
SciTegic.value.DoubleValue
0.000

@<SCITEGIC>MOL_PROPERTY
Tether
SciTegic.value.DoubleValue
0.000

@<TRIPOS>MOLECULE
guest-s19_confgen4.mol2 : confsearch ligand conformer 173
          17          16           1
SMALL
USER_CHARGES
 
@<TRIPOS>ATOM
       1    C1      20.047449   21.882449   23.845149 C.2        1 MOL1         0.6173
       2    O1      20.240430   21.981720   25.041229 O.co2      1 MOL1        -0.6755
       3    O2      19.607178   22.793283   23.169177 O.co2      1 MOL1        -0.6755
       4    C2      20.372875   20.580705   23.201936 C.2        1 MOL1        -0.1504
       5    H1      20.762406   19.809284   23.862302 H          1 MOL1         0.0814
       6    C3      20.207616   20.329335   21.883381 C.2        1 MOL1        -0.1394
       7    H2      19.815863   21.094273   21.213178 H          1 MOL1         0.0817
       8    C4      20.539034   19.001843   21.237497 C.3        1 MOL1        -0.1849
       9    H3      21.453831   18.586134   21.681505 H          1 MOL1         0.0736
      10    H4      20.751047   19.154621   20.170681 H          1 MOL1         0.0736
      11    C5      19.380524   17.995762   21.394563 C.3        1 MOL1        -0.1866
      12    H5      19.169905   17.838569   22.461563 H          1 MOL1         0.0738
      13    H6      18.467247   18.412915   20.947935 H          1 MOL1         0.0738
      14    C6      19.706733   16.642905   20.730567 C.3        1 MOL1        -0.2879
      15    H7      19.890571   16.767075   19.655291 H          1 MOL1         0.0750
      16    H8      20.599371   16.189325   21.181009 H          1 MOL1         0.0750
      17    H9      18.871671   15.940838   20.852654 H          1 MOL1         0.0750
@<TRIPOS>BOND
    1     1     2    1
    2     1     3    2
    3     1     4    1
    4     4     5    1
    5     4     6    2
    6     6     7    1
    7     6     8    1
    8     8     9    1
    9     8    10    1
   10     8    11    1
   11    11    12    1
   12    11    13    1
   13    11    14    1
   14    14    15    1
   15    14    16    1
   16    14    17    1
@<TRIPOS>SUBSTRUCTURE
       1 MOL1            1 RESIDUE      1      MOL     
@<SCITEGIC>MOL_PROPERTY
VConf Rank
SciTegic.value.IntegerValue
173

@<SCITEGIC>MOL_PROPERTY
Conf_Id
SciTegic.value.IntegerValue
36

@<SCITEGIC>MOL_PROPERTY
Delta U+W
SciTegic.value.DoubleValue
0.000

@<SCITEGIC>MOL_PROPERTY
U+W
SciTegic.value.DoubleValue
-53.409

@<SCITEGIC>MOL_PROPERTY
Grad RMS
SciTegic.value.DoubleValue
0.000000

@<SCITEGIC>MOL_PROPERTY
U
SciTegic.value.DoubleValue
9.048

@<SCITEGIC>MOL_PROPERTY
W
SciTegic.value.DoubleValue
-62.457

@<SCITEGIC>MOL_PROPERTY
W(PB)
SciTegic.value.DoubleValue
-64.540

@<SCITEGIC>MOL_PROPERTY
W(SA)
SciTegic.value.DoubleValue
2.084

@<SCITEGIC>MOL_PROPERTY
Valence
SciTegic.value.DoubleValue
2.652

@<SCITEGIC>MOL_PROPERTY
Coulomb
SciTegic.value.DoubleValue
5.578

@<SCITEGIC>MOL_PROPERTY
VdW
SciTegic.value.DoubleValue
0.818

@<SCITEGIC>MOL_PROPERTY
VdW6
SciTegic.value.DoubleValue
-4.534

@<SCITEGIC>MOL_PROPERTY
VdW12
SciTegic.value.DoubleValue
5.352

@<SCITEGIC>MOL_PROPERTY
Bond
SciTegic.value.DoubleValue
0.063

@<SCITEGIC>MOL_PROPERTY
Angle
SciTegic.value.DoubleValue
2.579

@<SCITEGIC>MOL_PROPERTY
Pdih
SciTegic.value.DoubleValue
0.010

@<SCITEGIC>MOL_PROPERTY
Idih
SciTegic.value.DoubleValue
0.000

@<SCITEGIC>MOL_PROPERTY
Tether
SciTegic.value.DoubleValue
0.000

@<TRIPOS>MOLECULE
guest-s19_confgen4.mol2 : confsearch ligand conformer 174
          17          16           1
SMALL
USER_CHARGES
 
@<TRIPOS>ATOM
       1    C1      23.044266   18.865079   20.449573 C.2        1 MOL1         0.6173
       2    O1      22.925444   19.307486   19.322386 O.co2      1 MOL1        -0.6755
       3    O2      24.037372   18.273021   20.824958 O.co2      1 MOL1        -0.6755
       4    C2      21.939594   19.045400   21.430056 C.2        1 MOL1        -0.1504
       5    H1      22.109866   18.626469   22.419203 H          1 MOL1         0.0814
       6    C3      20.779470   19.681560   21.149879 C.2        1 MOL1        -0.1394
       7    H2      20.597548   20.103119   20.161463 H          1 MOL1         0.0817
       8    C4      19.660179   19.859019   22.152343 C.3        1 MOL1        -0.1849
       9    H3      19.057250   20.735497   21.879122 H          1 MOL1         0.0736
      10    H4      20.076720   20.064296   23.147914 H          1 MOL1         0.0736
      11    C5      18.757158   18.610078   22.213311 C.3        1 MOL1        -0.1866
      12    H5      18.340035   18.408087   21.216930 H          1 MOL1         0.0738
      13    H6      19.358157   17.732878   22.490583 H          1 MOL1         0.0738
      14    C6      17.608159   18.786605   23.226309 C.3        1 MOL1        -0.2879
      15    H7      16.972056   19.639180   22.954430 H          1 MOL1         0.0750
      16    H8      16.977084   17.888822   23.255635 H          1 MOL1         0.0750
      17    H9      17.999133   18.959137   24.237649 H          1 MOL1         0.0750
@<TRIPOS>BOND
    1     1     2    1
    2     1     3    2
    3     1     4    1
    4     4     5    1
    5     4     6    2
    6     6     7    1
    7     6     8    1
    8     8     9    1
    9     8    10    1
   10     8    11    1
   11    11    12    1
   12    11    13    1
   13    11    14    1
   14    14    15    1
   15    14    16    1
   16    14    17    1
@<TRIPOS>SUBSTRUCTURE
       1 MOL1            1 RESIDUE      1      MOL     
@<SCITEGIC>MOL_PROPERTY
VConf Rank
SciTegic.value.IntegerValue
174

@<SCITEGIC>MOL_PROPERTY
Conf_Id
SciTegic.value.IntegerValue
1

@<SCITEGIC>MOL_PROPERTY
Delta U+W
SciTegic.value.DoubleValue
0.030

@<SCITEGIC>MOL_PROPERTY
U+W
SciTegic.value.DoubleValue
-53.378

@<SCITEGIC>MOL_PROPERTY
Grad RMS
SciTegic.value.DoubleValue
0.000000

@<SCITEGIC>MOL_PROPERTY
U
SciTegic.value.DoubleValue
9.048

@<SCITEGIC>MOL_PROPERTY
W
SciTegic.value.DoubleValue
-62.426

@<SCITEGIC>MOL_PROPERTY
W(PB)
SciTegic.value.DoubleValue
-64.506

@<SCITEGIC>MOL_PROPERTY
W(SA)
SciTegic.value.DoubleValue
2.080

@<SCITEGIC>MOL_PROPERTY
Valence
SciTegic.value.DoubleValue
2.652

@<SCITEGIC>MOL_PROPERTY
Coulomb
SciTegic.value.DoubleValue
5.578

@<SCITEGIC>MOL_PROPERTY
VdW
SciTegic.value.DoubleValue
0.818

@<SCITEGIC>MOL_PROPERTY
VdW6
SciTegic.value.DoubleValue
-4.535

@<SCITEGIC>MOL_PROPERTY
VdW12
SciTegic.value.DoubleValue
5.352

@<SCITEGIC>MOL_PROPERTY
Bond
SciTegic.value.DoubleValue
0.063

@<SCITEGIC>MOL_PROPERTY
Angle
SciTegic.value.DoubleValue
2.579

@<SCITEGIC>MOL_PROPERTY
Pdih
SciTegic.value.DoubleValue
0.010

@<SCITEGIC>MOL_PROPERTY
Idih
SciTegic.value.DoubleValue
0.000

@<SCITEGIC>MOL_PROPERTY
Tether
SciTegic.value.DoubleValue
0.000

@<TRIPOS>MOLECULE
guest-s19_confgen4.mol2 : confsearch ligand conformer 175
          17          16           1
SMALL
USER_CHARGES
 
@<TRIPOS>ATOM
       1    C1      18.758065   16.442363   21.092412 C.2        1 MOL1         0.6173
       2    O1      19.760884   15.804736   20.831207 O.co2      1 MOL1        -0.6755
       3    O2      17.663262   15.928758   21.216620 O.co2      1 MOL1        -0.6755
       4    C2      18.849437   17.917024   21.268811 C.2        1 MOL1        -0.1504
       5    H1      17.916623   18.426193   21.499818 H          1 MOL1         0.0814
       6    C3      20.000284   18.619076   21.160830 C.2        1 MOL1        -0.1394
       7    H2      20.941143   18.118573   20.933059 H          1 MOL1         0.0817
       8    C4      20.086229   20.119578   21.345556 C.3        1 MOL1        -0.1849
       9    H3      19.219441   20.599313   20.871153 H          1 MOL1         0.0736
      10    H4      20.973092   20.508851   20.827643 H          1 MOL1         0.0736
      11    C5      20.137848   20.526332   22.834666 C.3        1 MOL1        -0.1866
      12    H5      20.092589   21.621544   22.909611 H          1 MOL1         0.0738
      13    H6      19.251002   20.139251   23.355338 H          1 MOL1         0.0738
      14    C6      21.415511   20.024727   23.540839 C.3        1 MOL1        -0.2879
      15    H7      22.315619   20.410016   23.044348 H          1 MOL1         0.0750
      16    H8      21.435398   20.359436   24.586058 H          1 MOL1         0.0750
      17    H9      21.465129   18.928027   23.537863 H          1 MOL1         0.0750
@<TRIPOS>BOND
    1     1     2    1
    2     1     3    2
    3     1     4    1
    4     4     5    1
    5     4     6    2
    6     6     7    1
    7     6     8    1
    8     8     9    1
    9     8    10    1
   10     8    11    1
   11    11    12    1
   12    11    13    1
   13    11    14    1
   14    14    15    1
   15    14    16    1
   16    14    17    1
@<TRIPOS>SUBSTRUCTURE
       1 MOL1            1 RESIDUE      1      MOL     
@<SCITEGIC>MOL_PROPERTY
VConf Rank
SciTegic.value.IntegerValue
175

@<SCITEGIC>MOL_PROPERTY
Conf_Id
SciTegic.value.IntegerValue
3

@<SCITEGIC>MOL_PROPERTY
Delta U+W
SciTegic.value.DoubleValue
0.531

@<SCITEGIC>MOL_PROPERTY
U+W
SciTegic.value.DoubleValue
-52.878

@<SCITEGIC>MOL_PROPERTY
Grad RMS
SciTegic.value.DoubleValue
0.000000

@<SCITEGIC>MOL_PROPERTY
U
SciTegic.value.DoubleValue
10.067

@<SCITEGIC>MOL_PROPERTY
W
SciTegic.value.DoubleValue
-62.945

@<SCITEGIC>MOL_PROPERTY
W(PB)
SciTegic.value.DoubleValue
-64.982

@<SCITEGIC>MOL_PROPERTY
W(SA)
SciTegic.value.DoubleValue
2.037

@<SCITEGIC>MOL_PROPERTY
Valence
SciTegic.value.DoubleValue
2.779

@<SCITEGIC>MOL_PROPERTY
Coulomb
SciTegic.value.DoubleValue
6.474

@<SCITEGIC>MOL_PROPERTY
VdW
SciTegic.value.DoubleValue
0.815

@<SCITEGIC>MOL_PROPERTY
VdW6
SciTegic.value.DoubleValue
-5.088

@<SCITEGIC>MOL_PROPERTY
VdW12
SciTegic.value.DoubleValue
5.902

@<SCITEGIC>MOL_PROPERTY
Bond
SciTegic.value.DoubleValue
0.078

@<SCITEGIC>MOL_PROPERTY
Angle
SciTegic.value.DoubleValue
2.651

@<SCITEGIC>MOL_PROPERTY
Pdih
SciTegic.value.DoubleValue
0.050

@<SCITEGIC>MOL_PROPERTY
Idih
SciTegic.value.DoubleValue
0.000

@<SCITEGIC>MOL_PROPERTY
Tether
SciTegic.value.DoubleValue
0.000

@<TRIPOS>MOLECULE
guest-s19_confgen4.mol2 : confsearch ligand conformer 176
          17          16           1
SMALL
USER_CHARGES
 
@<TRIPOS>ATOM
       1    C1      20.812557   21.218336   24.059171 C.2        1 MOL1         0.6173
       2    O1      20.679838   21.244075   25.267270 O.co2      1 MOL1        -0.6755
       3    O2      20.994558   22.220335   23.393347 O.co2      1 MOL1        -0.6755
       4    C2      20.749015   19.891430   23.388832 C.2        1 MOL1        -0.1504
       5    H1      20.584227   19.037837   24.042231 H          1 MOL1         0.0814
       6    C3      20.877768   19.714557   22.054020 C.2        1 MOL1        -0.1394
       7    H2      21.039428   20.564713   21.391736 H          1 MOL1         0.0817
       8    C4      20.809865   18.362678   21.374205 C.3        1 MOL1        -0.1849
       9    H3      20.953365   17.555064   22.104893 H          1 MOL1         0.0736
      10    H4      21.639567   18.278789   20.659665 H          1 MOL1         0.0736
      11    C5      19.477765   18.151141   20.621923 C.3        1 MOL1        -0.1866
      12    H5      19.332155   18.960069   19.892612 H          1 MOL1         0.0738
      13    H6      19.535367   17.216745   20.046784 H          1 MOL1         0.0738
      14    C6      18.263327   18.082584   21.572328 C.3        1 MOL1        -0.2879
      15    H7      18.134553   19.025645   22.119234 H          1 MOL1         0.0750
      16    H8      17.341399   17.892783   21.007624 H          1 MOL1         0.0750
      17    H9      18.384123   17.274938   22.305956 H          1 MOL1         0.0750
@<TRIPOS>BOND
    1     1     2    1
    2     1     3    2
    3     1     4    1
    4     4     5    1
    5     4     6    2
    6     6     7    1
    7     6     8    1
    8     8     9    1
    9     8    10    1
   10     8    11    1
   11    11    12    1
   12    11    13    1
   13    11    14    1
   14    14    15    1
   15    14    16    1
   16    14    17    1
@<TRIPOS>SUBSTRUCTURE
       1 MOL1            1 RESIDUE      1      MOL     
@<SCITEGIC>MOL_PROPERTY
VConf Rank
SciTegic.value.IntegerValue
176

@<SCITEGIC>MOL_PROPERTY
Conf_Id
SciTegic.value.IntegerValue
45

@<SCITEGIC>MOL_PROPERTY
Delta U+W
SciTegic.value.DoubleValue
0.562

@<SCITEGIC>MOL_PROPERTY
U+W
SciTegic.value.DoubleValue
-52.846

@<SCITEGIC>MOL_PROPERTY
Grad RMS
SciTegic.value.DoubleValue
0.000000

@<SCITEGIC>MOL_PROPERTY
U
SciTegic.value.DoubleValue
10.243

@<SCITEGIC>MOL_PROPERTY
W
SciTegic.value.DoubleValue
-63.089

@<SCITEGIC>MOL_PROPERTY
W(PB)
SciTegic.value.DoubleValue
-65.116

@<SCITEGIC>MOL_PROPERTY
W(SA)
SciTegic.value.DoubleValue
2.026

@<SCITEGIC>MOL_PROPERTY
Valence
SciTegic.value.DoubleValue
2.822

@<SCITEGIC>MOL_PROPERTY
Coulomb
SciTegic.value.DoubleValue
6.637

@<SCITEGIC>MOL_PROPERTY
VdW
SciTegic.value.DoubleValue
0.785

@<SCITEGIC>MOL_PROPERTY
VdW6
SciTegic.value.DoubleValue
-5.216

@<SCITEGIC>MOL_PROPERTY
VdW12
SciTegic.value.DoubleValue
6.001

@<SCITEGIC>MOL_PROPERTY
Bond
SciTegic.value.DoubleValue
0.080

@<SCITEGIC>MOL_PROPERTY
Angle
SciTegic.value.DoubleValue
2.678

@<SCITEGIC>MOL_PROPERTY
Pdih
SciTegic.value.DoubleValue
0.064

@<SCITEGIC>MOL_PROPERTY
Idih
SciTegic.value.DoubleValue
0.000

@<SCITEGIC>MOL_PROPERTY
Tether
SciTegic.value.DoubleValue
0.000

@<TRIPOS>MOLECULE
guest-s19_confgen4.mol2 : confsearch ligand conformer 177
          17          16           1
SMALL
USER_CHARGES
 
@<TRIPOS>ATOM
       1    C1      23.228165   18.872489   20.990143 C.2        1 MOL1         0.6173
       2    O1      24.158301   19.613761   21.241276 O.co2      1 MOL1        -0.6755
       3    O2      23.287600   18.001767   20.142379 O.co2      1 MOL1        -0.6755
       4    C2      21.972966   19.056568   21.767800 C.2        1 MOL1        -0.1504
       5    H1      21.986534   19.851885   22.509552 H          1 MOL1         0.0814
       6    C3      20.861420   18.306113   21.593537 C.2        1 MOL1        -0.1394
       7    H2      20.836137   17.508263   20.851534 H          1 MOL1         0.0817
       8    C4      19.588124   18.501289   22.387176 C.3        1 MOL1        -0.1849
       9    H3      19.829646   18.743468   23.431122 H          1 MOL1         0.0736
      10    H4      19.019915   17.561555   22.407849 H          1 MOL1         0.0736
      11    C5      18.714688   19.619341   21.782126 C.3        1 MOL1        -0.1866
      12    H5      19.280321   20.561313   21.764587 H          1 MOL1         0.0738
      13    H6      18.472754   19.373870   20.738679 H          1 MOL1         0.0738
      14    C6      17.410282   19.818156   22.579949 C.3        1 MOL1        -0.2879
      15    H7      16.809620   18.899138   22.586430 H          1 MOL1         0.0750
      16    H8      17.624585   20.095181   23.620510 H          1 MOL1         0.0750
      17    H9      16.802693   20.616880   22.134969 H          1 MOL1         0.0750
@<TRIPOS>BOND
    1     1     2    1
    2     1     3    2
    3     1     4    1
    4     4     5    1
    5     4     6    2
    6     6     7    1
    7     6     8    1
    8     8     9    1
    9     8    10    1
   10     8    11    1
   11    11    12    1
   12    11    13    1
   13    11    14    1
   14    14    15    1
   15    14    16    1
   16    14    17    1
@<TRIPOS>SUBSTRUCTURE
       1 MOL1            1 RESIDUE      1      MOL     
@<SCITEGIC>MOL_PROPERTY
VConf Rank
SciTegic.value.IntegerValue
177

@<SCITEGIC>MOL_PROPERTY
Conf_Id
SciTegic.value.IntegerValue
36

@<SCITEGIC>MOL_PROPERTY
Delta U+W
SciTegic.value.DoubleValue
0.000

@<SCITEGIC>MOL_PROPERTY
U+W
SciTegic.value.DoubleValue
-53.409

@<SCITEGIC>MOL_PROPERTY
Grad RMS
SciTegic.value.DoubleValue
0.000000

@<SCITEGIC>MOL_PROPERTY
U
SciTegic.value.DoubleValue
9.048

@<SCITEGIC>MOL_PROPERTY
W
SciTegic.value.DoubleValue
-62.457

@<SCITEGIC>MOL_PROPERTY
W(PB)
SciTegic.value.DoubleValue
-64.540

@<SCITEGIC>MOL_PROPERTY
W(SA)
SciTegic.value.DoubleValue
2.084

@<SCITEGIC>MOL_PROPERTY
Valence
SciTegic.value.DoubleValue
2.652

@<SCITEGIC>MOL_PROPERTY
Coulomb
SciTegic.value.DoubleValue
5.578

@<SCITEGIC>MOL_PROPERTY
VdW
SciTegic.value.DoubleValue
0.818

@<SCITEGIC>MOL_PROPERTY
VdW6
SciTegic.value.DoubleValue
-4.534

@<SCITEGIC>MOL_PROPERTY
VdW12
SciTegic.value.DoubleValue
5.352

@<SCITEGIC>MOL_PROPERTY
Bond
SciTegic.value.DoubleValue
0.063

@<SCITEGIC>MOL_PROPERTY
Angle
SciTegic.value.DoubleValue
2.579

@<SCITEGIC>MOL_PROPERTY
Pdih
SciTegic.value.DoubleValue
0.010

@<SCITEGIC>MOL_PROPERTY
Idih
SciTegic.value.DoubleValue
0.000

@<SCITEGIC>MOL_PROPERTY
Tether
SciTegic.value.DoubleValue
0.000

@<TRIPOS>MOLECULE
guest-s19_confgen4.mol2 : confsearch ligand conformer 178
          17          16           1
SMALL
USER_CHARGES
 
@<TRIPOS>ATOM
       1    C1      23.029916   18.268828   23.179565 C.2        1 MOL1         0.6173
       2    O1      23.504001   19.285161   23.651481 O.co2      1 MOL1        -0.6755
       3    O2      23.671539   17.246519   23.034962 O.co2      1 MOL1        -0.6755
       4    C2      21.603958   18.251483   22.754705 C.2        1 MOL1        -0.1504
       5    H1      21.243240   17.312297   22.341522 H          1 MOL1         0.0814
       6    C3      20.774276   19.314699   22.856124 C.2        1 MOL1        -0.1394
       7    H2      21.125865   20.261115   23.266559 H          1 MOL1         0.0817
       8    C4      19.325717   19.289244   22.419928 C.3        1 MOL1        -0.1849
       9    H3      18.760803   20.049702   22.975773 H          1 MOL1         0.0736
      10    H4      18.874881   18.319448   22.671026 H          1 MOL1         0.0736
      11    C5      19.190144   19.549859   20.905756 C.3        1 MOL1        -0.1866
      12    H5      19.639822   20.521300   20.657442 H          1 MOL1         0.0738
      13    H6      19.751470   18.787392   20.347978 H          1 MOL1         0.0738
      14    C6      17.715735   19.534728   20.454742 C.3        1 MOL1        -0.2879
      15    H7      17.137722   20.309926   20.974742 H          1 MOL1         0.0750
      16    H8      17.639432   19.721804   19.375710 H          1 MOL1         0.0750
      17    H9      17.250970   18.562229   20.663728 H          1 MOL1         0.0750
@<TRIPOS>BOND
    1     1     2    1
    2     1     3    2
    3     1     4    1
    4     4     5    1
    5     4     6    2
    6     6     7    1
    7     6     8    1
    8     8     9    1
    9     8    10    1
   10     8    11    1
   11    11    12    1
   12    11    13    1
   13    11    14    1
   14    14    15    1
   15    14    16    1
   16    14    17    1
@<TRIPOS>SUBSTRUCTURE
       1 MOL1            1 RESIDUE      1      MOL     
@<SCITEGIC>MOL_PROPERTY
VConf Rank
SciTegic.value.IntegerValue
178

@<SCITEGIC>MOL_PROPERTY
Conf_Id
SciTegic.value.IntegerValue
1

@<SCITEGIC>MOL_PROPERTY
Delta U+W
SciTegic.value.DoubleValue
0.030

@<SCITEGIC>MOL_PROPERTY
U+W
SciTegic.value.DoubleValue
-53.378

@<SCITEGIC>MOL_PROPERTY
Grad RMS
SciTegic.value.DoubleValue
0.000000

@<SCITEGIC>MOL_PROPERTY
U
SciTegic.value.DoubleValue
9.048

@<SCITEGIC>MOL_PROPERTY
W
SciTegic.value.DoubleValue
-62.426

@<SCITEGIC>MOL_PROPERTY
W(PB)
SciTegic.value.DoubleValue
-64.506

@<SCITEGIC>MOL_PROPERTY
W(SA)
SciTegic.value.DoubleValue
2.080

@<SCITEGIC>MOL_PROPERTY
Valence
SciTegic.value.DoubleValue
2.652

@<SCITEGIC>MOL_PROPERTY
Coulomb
SciTegic.value.DoubleValue
5.578

@<SCITEGIC>MOL_PROPERTY
VdW
SciTegic.value.DoubleValue
0.818

@<SCITEGIC>MOL_PROPERTY
VdW6
SciTegic.value.DoubleValue
-4.535

@<SCITEGIC>MOL_PROPERTY
VdW12
SciTegic.value.DoubleValue
5.352

@<SCITEGIC>MOL_PROPERTY
Bond
SciTegic.value.DoubleValue
0.063

@<SCITEGIC>MOL_PROPERTY
Angle
SciTegic.value.DoubleValue
2.579

@<SCITEGIC>MOL_PROPERTY
Pdih
SciTegic.value.DoubleValue
0.010

@<SCITEGIC>MOL_PROPERTY
Idih
SciTegic.value.DoubleValue
0.000

@<SCITEGIC>MOL_PROPERTY
Tether
SciTegic.value.DoubleValue
0.000

@<TRIPOS>MOLECULE
guest-s19_confgen4.mol2 : confsearch ligand conformer 179
          17          16           1
SMALL
USER_CHARGES
 
@<TRIPOS>ATOM
       1    C1      18.634484   16.432899   22.785967 C.2        1 MOL1         0.6173
       2    O1      19.513276   15.902123   23.438994 O.co2      1 MOL1        -0.6755
       3    O2      17.480206   16.051780   22.800112 O.co2      1 MOL1        -0.6755
       4    C2      18.962722   17.598985   21.921910 C.2        1 MOL1        -0.1504
       5    H1      18.132018   18.025489   21.364428 H          1 MOL1         0.0814
       6    C3      20.201875   18.129089   21.810212 C.2        1 MOL1        -0.1394
       7    H2      21.040681   17.711743   22.366831 H          1 MOL1         0.0817
       8    C4      20.527651   19.318608   20.931618 C.3        1 MOL1        -0.1849
       9    H3      19.986871   19.232282   19.979446 H          1 MOL1         0.0736
      10    H4      21.596339   19.313506   20.678291 H          1 MOL1         0.0736
      11    C5      20.162173   20.661499   21.601417 C.3        1 MOL1        -0.1866
      12    H5      20.320564   21.476582   20.881899 H          1 MOL1         0.0738
      13    H6      19.093031   20.670089   21.854970 H          1 MOL1         0.0738
      14    C6      20.999225   20.937487   22.868653 C.3        1 MOL1        -0.2879
      15    H7      22.072138   20.946068   22.636425 H          1 MOL1         0.0750
      16    H8      20.737763   21.912881   23.298945 H          1 MOL1         0.0750
      17    H9      20.820541   20.172690   23.635712 H          1 MOL1         0.0750
@<TRIPOS>BOND
    1     1     2    1
    2     1     3    2
    3     1     4    1
    4     4     5    1
    5     4     6    2
    6     6     7    1
    7     6     8    1
    8     8     9    1
    9     8    10    1
   10     8    11    1
   11    11    12    1
   12    11    13    1
   13    11    14    1
   14    14    15    1
   15    14    16    1
   16    14    17    1
@<TRIPOS>SUBSTRUCTURE
       1 MOL1            1 RESIDUE      1      MOL     
@<SCITEGIC>MOL_PROPERTY
VConf Rank
SciTegic.value.IntegerValue
179

@<SCITEGIC>MOL_PROPERTY
Conf_Id
SciTegic.value.IntegerValue
3

@<SCITEGIC>MOL_PROPERTY
Delta U+W
SciTegic.value.DoubleValue
0.531

@<SCITEGIC>MOL_PROPERTY
U+W
SciTegic.value.DoubleValue
-52.878

@<SCITEGIC>MOL_PROPERTY
Grad RMS
SciTegic.value.DoubleValue
0.000000

@<SCITEGIC>MOL_PROPERTY
U
SciTegic.value.DoubleValue
10.067

@<SCITEGIC>MOL_PROPERTY
W
SciTegic.value.DoubleValue
-62.945

@<SCITEGIC>MOL_PROPERTY
W(PB)
SciTegic.value.DoubleValue
-64.982

@<SCITEGIC>MOL_PROPERTY
W(SA)
SciTegic.value.DoubleValue
2.037

@<SCITEGIC>MOL_PROPERTY
Valence
SciTegic.value.DoubleValue
2.779

@<SCITEGIC>MOL_PROPERTY
Coulomb
SciTegic.value.DoubleValue
6.474

@<SCITEGIC>MOL_PROPERTY
VdW
SciTegic.value.DoubleValue
0.815

@<SCITEGIC>MOL_PROPERTY
VdW6
SciTegic.value.DoubleValue
-5.088

@<SCITEGIC>MOL_PROPERTY
VdW12
SciTegic.value.DoubleValue
5.902

@<SCITEGIC>MOL_PROPERTY
Bond
SciTegic.value.DoubleValue
0.078

@<SCITEGIC>MOL_PROPERTY
Angle
SciTegic.value.DoubleValue
2.651

@<SCITEGIC>MOL_PROPERTY
Pdih
SciTegic.value.DoubleValue
0.050

@<SCITEGIC>MOL_PROPERTY
Idih
SciTegic.value.DoubleValue
0.000

@<SCITEGIC>MOL_PROPERTY
Tether
SciTegic.value.DoubleValue
0.000

@<TRIPOS>MOLECULE
guest-s19_confgen4.mol2 : confsearch ligand conformer 180
          17          16           1
SMALL
USER_CHARGES
 
@<TRIPOS>ATOM
       1    C1      18.390866   19.569228   24.602805 C.2        1 MOL1         0.6173
       2    O1      18.672538   20.231888   25.582256 O.co2      1 MOL1        -0.6755
       3    O2      17.557720   18.682705   24.622603 O.co2      1 MOL1        -0.6755
       4    C2      19.107506   19.876768   23.335557 C.2        1 MOL1        -0.1504
       5    H1      19.838637   20.680166   23.387578 H          1 MOL1         0.0814
       6    C3      18.896897   19.219683   22.172171 C.2        1 MOL1        -0.1394
       7    H2      18.168860   18.411055   22.112172 H          1 MOL1         0.0817
       8    C4      19.630046   19.533252   20.884342 C.3        1 MOL1        -0.1849
       9    H3      20.100628   20.524362   20.939060 H          1 MOL1         0.0736
      10    H4      18.903937   19.585106   20.062097 H          1 MOL1         0.0736
      11    C5      20.697310   18.470208   20.543679 C.3        1 MOL1        -0.1866
      12    H5      20.227866   17.478067   20.491352 H          1 MOL1         0.0738
      13    H6      21.104014   18.677999   19.544373 H          1 MOL1         0.0738
      14    C6      21.856339   18.444336   21.562901 C.3        1 MOL1        -0.2879
      15    H7      21.496933   18.175766   22.564775 H          1 MOL1         0.0750
      16    H8      22.613263   17.706075   21.268109 H          1 MOL1         0.0750
      17    H9      22.345520   19.425057   21.626000 H          1 MOL1         0.0750
@<TRIPOS>BOND
    1     1     2    1
    2     1     3    2
    3     1     4    1
    4     4     5    1
    5     4     6    2
    6     6     7    1
    7     6     8    1
    8     8     9    1
    9     8    10    1
   10     8    11    1
   11    11    12    1
   12    11    13    1
   13    11    14    1
   14    14    15    1
   15    14    16    1
   16    14    17    1
@<TRIPOS>SUBSTRUCTURE
       1 MOL1            1 RESIDUE      1      MOL     
@<SCITEGIC>MOL_PROPERTY
VConf Rank
SciTegic.value.IntegerValue
180

@<SCITEGIC>MOL_PROPERTY
Conf_Id
SciTegic.value.IntegerValue
45

@<SCITEGIC>MOL_PROPERTY
Delta U+W
SciTegic.value.DoubleValue
0.562

@<SCITEGIC>MOL_PROPERTY
U+W
SciTegic.value.DoubleValue
-52.846

@<SCITEGIC>MOL_PROPERTY
Grad RMS
SciTegic.value.DoubleValue
0.000000

@<SCITEGIC>MOL_PROPERTY
U
SciTegic.value.DoubleValue
10.243

@<SCITEGIC>MOL_PROPERTY
W
SciTegic.value.DoubleValue
-63.089

@<SCITEGIC>MOL_PROPERTY
W(PB)
SciTegic.value.DoubleValue
-65.116

@<SCITEGIC>MOL_PROPERTY
W(SA)
SciTegic.value.DoubleValue
2.026

@<SCITEGIC>MOL_PROPERTY
Valence
SciTegic.value.DoubleValue
2.822

@<SCITEGIC>MOL_PROPERTY
Coulomb
SciTegic.value.DoubleValue
6.637

@<SCITEGIC>MOL_PROPERTY
VdW
SciTegic.value.DoubleValue
0.785

@<SCITEGIC>MOL_PROPERTY
VdW6
SciTegic.value.DoubleValue
-5.216

@<SCITEGIC>MOL_PROPERTY
VdW12
SciTegic.value.DoubleValue
6.001

@<SCITEGIC>MOL_PROPERTY
Bond
SciTegic.value.DoubleValue
0.080

@<SCITEGIC>MOL_PROPERTY
Angle
SciTegic.value.DoubleValue
2.678

@<SCITEGIC>MOL_PROPERTY
Pdih
SciTegic.value.DoubleValue
0.064

@<SCITEGIC>MOL_PROPERTY
Idih
SciTegic.value.DoubleValue
0.000

@<SCITEGIC>MOL_PROPERTY
Tether
SciTegic.value.DoubleValue
0.000

@<TRIPOS>MOLECULE
guest-s19_confgen4.mol2 : confsearch ligand conformer 181
          17          16           1
SMALL
USER_CHARGES
 
@<TRIPOS>ATOM
       1    C1      21.681341   22.034788   21.776839 C.2        1 MOL1         0.6173
       2    O1      22.199614   22.579810   20.821828 O.co2      1 MOL1        -0.6755
       3    O2      21.893657   22.373216   22.926092 O.co2      1 MOL1        -0.6755
       4    C2      20.749081   20.907841   21.502896 C.2        1 MOL1        -0.1504
       5    H1      20.603543   20.656361   20.454810 H          1 MOL1         0.0814
       6    C3      20.104488   20.211590   22.466649 C.2        1 MOL1        -0.1394
       7    H2      20.244871   20.453600   23.519975 H          1 MOL1         0.0817
       8    C4      19.159597   19.065280   22.179610 C.3        1 MOL1        -0.1849
       9    H3      18.563019   19.285606   21.283864 H          1 MOL1         0.0736
      10    H4      18.448631   18.957949   23.009908 H          1 MOL1         0.0736
      11    C5      19.925963   17.741412   21.981949 C.3        1 MOL1        -0.1866
      12    H5      20.634817   17.845793   21.148768 H          1 MOL1         0.0738
      13    H6      20.520258   17.522172   22.879900 H          1 MOL1         0.0738
      14    C6      18.969154   16.566022   21.698221 C.3        1 MOL1        -0.2879
      15    H7      18.269143   16.419238   22.531210 H          1 MOL1         0.0750
      16    H8      18.384485   16.746671   20.786649 H          1 MOL1         0.0750
      17    H9      19.532091   15.633685   21.560452 H          1 MOL1         0.0750
@<TRIPOS>BOND
    1     1     2    1
    2     1     3    2
    3     1     4    1
    4     4     5    1
    5     4     6    2
    6     6     7    1
    7     6     8    1
    8     8     9    1
    9     8    10    1
   10     8    11    1
   11    11    12    1
   12    11    13    1
   13    11    14    1
   14    14    15    1
   15    14    16    1
   16    14    17    1
@<TRIPOS>SUBSTRUCTURE
       1 MOL1            1 RESIDUE      1      MOL     
@<SCITEGIC>MOL_PROPERTY
VConf Rank
SciTegic.value.IntegerValue
181

@<SCITEGIC>MOL_PROPERTY
Conf_Id
SciTegic.value.IntegerValue
36

@<SCITEGIC>MOL_PROPERTY
Delta U+W
SciTegic.value.DoubleValue
0.000

@<SCITEGIC>MOL_PROPERTY
U+W
SciTegic.value.DoubleValue
-53.409

@<SCITEGIC>MOL_PROPERTY
Grad RMS
SciTegic.value.DoubleValue
0.000000

@<SCITEGIC>MOL_PROPERTY
U
SciTegic.value.DoubleValue
9.048

@<SCITEGIC>MOL_PROPERTY
W
SciTegic.value.DoubleValue
-62.457

@<SCITEGIC>MOL_PROPERTY
W(PB)
SciTegic.value.DoubleValue
-64.540

@<SCITEGIC>MOL_PROPERTY
W(SA)
SciTegic.value.DoubleValue
2.084

@<SCITEGIC>MOL_PROPERTY
Valence
SciTegic.value.DoubleValue
2.652

@<SCITEGIC>MOL_PROPERTY
Coulomb
SciTegic.value.DoubleValue
5.578

@<SCITEGIC>MOL_PROPERTY
VdW
SciTegic.value.DoubleValue
0.818

@<SCITEGIC>MOL_PROPERTY
VdW6
SciTegic.value.DoubleValue
-4.534

@<SCITEGIC>MOL_PROPERTY
VdW12
SciTegic.value.DoubleValue
5.352

@<SCITEGIC>MOL_PROPERTY
Bond
SciTegic.value.DoubleValue
0.063

@<SCITEGIC>MOL_PROPERTY
Angle
SciTegic.value.DoubleValue
2.579

@<SCITEGIC>MOL_PROPERTY
Pdih
SciTegic.value.DoubleValue
0.010

@<SCITEGIC>MOL_PROPERTY
Idih
SciTegic.value.DoubleValue
0.000

@<SCITEGIC>MOL_PROPERTY
Tether
SciTegic.value.DoubleValue
0.000

@<TRIPOS>MOLECULE
guest-s19_confgen4.mol2 : confsearch ligand conformer 182
          17          16           1
SMALL
USER_CHARGES
 
@<TRIPOS>ATOM
       1    C1      20.574934   20.286513   18.808931 C.2        1 MOL1         0.6173
       2    O1      19.660733   19.892571   18.109331 O.co2      1 MOL1        -0.6755
       3    O2      21.571343   20.815951   18.356638 O.co2      1 MOL1        -0.6755
       4    C2      20.492090   20.125595   20.285889 C.2        1 MOL1        -0.1504
       5    H1      21.342165   20.498903   20.852391 H          1 MOL1         0.0814
       6    C3      19.445328   19.554875   20.924367 C.2        1 MOL1        -0.1394
       7    H2      18.589444   19.175522   20.366400 H          1 MOL1         0.0817
       8    C4      19.369782   19.393395   22.426850 C.3        1 MOL1        -0.1849
       9    H3      18.318096   19.333609   22.737930 H          1 MOL1         0.0736
      10    H4      19.792109   20.278743   22.921426 H          1 MOL1         0.0736
      11    C5      20.119004   18.128884   22.894499 C.3        1 MOL1        -0.1866
      12    H5      19.693403   17.244550   22.400148 H          1 MOL1         0.0738
      13    H6      21.172456   18.188975   22.587596 H          1 MOL1         0.0738
      14    C6      20.038848   17.952078   24.424152 C.3        1 MOL1        -0.2879
      15    H7      18.996159   17.857468   24.754727 H          1 MOL1         0.0750
      16    H8      20.577026   17.048101   24.737712 H          1 MOL1         0.0750
      17    H9      20.486571   18.809999   24.942758 H          1 MOL1         0.0750
@<TRIPOS>BOND
    1     1     2    1
    2     1     3    2
    3     1     4    1
    4     4     5    1
    5     4     6    2
    6     6     7    1
    7     6     8    1
    8     8     9    1
    9     8    10    1
   10     8    11    1
   11    11    12    1
   12    11    13    1
   13    11    14    1
   14    14    15    1
   15    14    16    1
   16    14    17    1
@<TRIPOS>SUBSTRUCTURE
       1 MOL1            1 RESIDUE      1      MOL     
@<SCITEGIC>MOL_PROPERTY
VConf Rank
SciTegic.value.IntegerValue
182

@<SCITEGIC>MOL_PROPERTY
Conf_Id
SciTegic.value.IntegerValue
1

@<SCITEGIC>MOL_PROPERTY
Delta U+W
SciTegic.value.DoubleValue
0.030

@<SCITEGIC>MOL_PROPERTY
U+W
SciTegic.value.DoubleValue
-53.378

@<SCITEGIC>MOL_PROPERTY
Grad RMS
SciTegic.value.DoubleValue
0.000000

@<SCITEGIC>MOL_PROPERTY
U
SciTegic.value.DoubleValue
9.048

@<SCITEGIC>MOL_PROPERTY
W
SciTegic.value.DoubleValue
-62.426

@<SCITEGIC>MOL_PROPERTY
W(PB)
SciTegic.value.DoubleValue
-64.506

@<SCITEGIC>MOL_PROPERTY
W(SA)
SciTegic.value.DoubleValue
2.080

@<SCITEGIC>MOL_PROPERTY
Valence
SciTegic.value.DoubleValue
2.652

@<SCITEGIC>MOL_PROPERTY
Coulomb
SciTegic.value.DoubleValue
5.578

@<SCITEGIC>MOL_PROPERTY
VdW
SciTegic.value.DoubleValue
0.818

@<SCITEGIC>MOL_PROPERTY
VdW6
SciTegic.value.DoubleValue
-4.535

@<SCITEGIC>MOL_PROPERTY
VdW12
SciTegic.value.DoubleValue
5.352

@<SCITEGIC>MOL_PROPERTY
Bond
SciTegic.value.DoubleValue
0.063

@<SCITEGIC>MOL_PROPERTY
Angle
SciTegic.value.DoubleValue
2.579

@<SCITEGIC>MOL_PROPERTY
Pdih
SciTegic.value.DoubleValue
0.010

@<SCITEGIC>MOL_PROPERTY
Idih
SciTegic.value.DoubleValue
0.000

@<SCITEGIC>MOL_PROPERTY
Tether
SciTegic.value.DoubleValue
0.000

@<TRIPOS>MOLECULE
guest-s19_confgen4.mol2 : confsearch ligand conformer 183
          17          16           1
SMALL
USER_CHARGES
 
@<TRIPOS>ATOM
       1    C1      19.006123   21.999769   22.054788 C.2        1 MOL1         0.6173
       2    O1      19.150332   22.279829   23.230037 O.co2      1 MOL1        -0.6755
       3    O2      18.830892   22.839200   21.193127 O.co2      1 MOL1        -0.6755
       4    C2      19.038288   20.574305   21.629217 C.2        1 MOL1        -0.1504
       5    H1      18.902163   20.393264   20.565519 H          1 MOL1         0.0814
       6    C3      19.225825   19.538396   22.478162 C.2        1 MOL1        -0.1394
       7    H2      19.366603   19.708632   23.545307 H          1 MOL1         0.0817
       8    C4      19.261244   18.090215   22.037105 C.3        1 MOL1        -0.1849
       9    H3      18.485357   17.916972   21.279139 H          1 MOL1         0.0736
      10    H4      19.013318   17.436313   22.884004 H          1 MOL1         0.0736
      11    C5      20.634552   17.685916   21.457337 C.3        1 MOL1        -0.1866
      12    H5      20.569610   16.663876   21.059379 H          1 MOL1         0.0738
      13    H6      20.884838   18.337732   20.608856 H          1 MOL1         0.0738
      14    C6      21.761994   17.746747   22.509899 C.3        1 MOL1        -0.2879
      15    H7      21.538897   17.092300   23.362584 H          1 MOL1         0.0750
      16    H8      22.715281   17.421677   22.073458 H          1 MOL1         0.0750
      17    H9      21.896240   18.768658   22.887914 H          1 MOL1         0.0750
@<TRIPOS>BOND
    1     1     2    1
    2     1     3    2
    3     1     4    1
    4     4     5    1
    5     4     6    2
    6     6     7    1
    7     6     8    1
    8     8     9    1
    9     8    10    1
   10     8    11    1
   11    11    12    1
   12    11    13    1
   13    11    14    1
   14    14    15    1
   15    14    16    1
   16    14    17    1
@<TRIPOS>SUBSTRUCTURE
       1 MOL1            1 RESIDUE      1      MOL     
@<SCITEGIC>MOL_PROPERTY
VConf Rank
SciTegic.value.IntegerValue
183

@<SCITEGIC>MOL_PROPERTY
Conf_Id
SciTegic.value.IntegerValue
3

@<SCITEGIC>MOL_PROPERTY
Delta U+W
SciTegic.value.DoubleValue
0.531

@<SCITEGIC>MOL_PROPERTY
U+W
SciTegic.value.DoubleValue
-52.878

@<SCITEGIC>MOL_PROPERTY
Grad RMS
SciTegic.value.DoubleValue
0.000000

@<SCITEGIC>MOL_PROPERTY
U
SciTegic.value.DoubleValue
10.067

@<SCITEGIC>MOL_PROPERTY
W
SciTegic.value.DoubleValue
-62.945

@<SCITEGIC>MOL_PROPERTY
W(PB)
SciTegic.value.DoubleValue
-64.982

@<SCITEGIC>MOL_PROPERTY
W(SA)
SciTegic.value.DoubleValue
2.037

@<SCITEGIC>MOL_PROPERTY
Valence
SciTegic.value.DoubleValue
2.779

@<SCITEGIC>MOL_PROPERTY
Coulomb
SciTegic.value.DoubleValue
6.474

@<SCITEGIC>MOL_PROPERTY
VdW
SciTegic.value.DoubleValue
0.815

@<SCITEGIC>MOL_PROPERTY
VdW6
SciTegic.value.DoubleValue
-5.088

@<SCITEGIC>MOL_PROPERTY
VdW12
SciTegic.value.DoubleValue
5.902

@<SCITEGIC>MOL_PROPERTY
Bond
SciTegic.value.DoubleValue
0.078

@<SCITEGIC>MOL_PROPERTY
Angle
SciTegic.value.DoubleValue
2.651

@<SCITEGIC>MOL_PROPERTY
Pdih
SciTegic.value.DoubleValue
0.050

@<SCITEGIC>MOL_PROPERTY
Idih
SciTegic.value.DoubleValue
0.000

@<SCITEGIC>MOL_PROPERTY
Tether
SciTegic.value.DoubleValue
0.000

@<TRIPOS>MOLECULE
guest-s19_confgen4.mol2 : confsearch ligand conformer 184
          17          16           1
SMALL
USER_CHARGES
 
@<TRIPOS>ATOM
       1    C1      20.040722   17.002830   19.904456 C.2        1 MOL1         0.6173
       2    O1      19.156687   16.265831   19.513183 O.co2      1 MOL1        -0.6755
       3    O2      21.221429   16.773080   19.721172 O.co2      1 MOL1        -0.6755
       4    C2      19.635860   18.234919   20.633919 C.2        1 MOL1        -0.1504
       5    H1      18.565695   18.379171   20.762930 H          1 MOL1         0.0814
       6    C3      20.511087   19.141125   21.126211 C.2        1 MOL1        -0.1394
       7    H2      21.585097   19.002462   21.004585 H          1 MOL1         0.0817
       8    C4      20.095932   20.393133   21.870832 C.3        1 MOL1        -0.1849
       9    H3      19.036024   20.617333   21.688986 H          1 MOL1         0.0736
      10    H4      20.660820   21.248435   21.476665 H          1 MOL1         0.0736
      11    C5      20.349685   20.282755   23.390237 C.3        1 MOL1        -0.1866
      12    H5      21.409215   20.055870   23.572936 H          1 MOL1         0.0738
      13    H6      20.152159   21.256949   23.858347 H          1 MOL1         0.0738
      14    C6      19.464668   19.212418   24.063998 C.3        1 MOL1        -0.2879
      15    H7      19.680359   18.212297   23.666143 H          1 MOL1         0.0750
      16    H8      19.643518   19.189332   25.146748 H          1 MOL1         0.0750
      17    H9      18.399924   19.423782   23.900482 H          1 MOL1         0.0750
@<TRIPOS>BOND
    1     1     2    1
    2     1     3    2
    3     1     4    1
    4     4     5    1
    5     4     6    2
    6     6     7    1
    7     6     8    1
    8     8     9    1
    9     8    10    1
   10     8    11    1
   11    11    12    1
   12    11    13    1
   13    11    14    1
   14    14    15    1
   15    14    16    1
   16    14    17    1
@<TRIPOS>SUBSTRUCTURE
       1 MOL1            1 RESIDUE      1      MOL     
@<SCITEGIC>MOL_PROPERTY
VConf Rank
SciTegic.value.IntegerValue
184

@<SCITEGIC>MOL_PROPERTY
Conf_Id
SciTegic.value.IntegerValue
45

@<SCITEGIC>MOL_PROPERTY
Delta U+W
SciTegic.value.DoubleValue
0.562

@<SCITEGIC>MOL_PROPERTY
U+W
SciTegic.value.DoubleValue
-52.846

@<SCITEGIC>MOL_PROPERTY
Grad RMS
SciTegic.value.DoubleValue
0.000000

@<SCITEGIC>MOL_PROPERTY
U
SciTegic.value.DoubleValue
10.243

@<SCITEGIC>MOL_PROPERTY
W
SciTegic.value.DoubleValue
-63.089

@<SCITEGIC>MOL_PROPERTY
W(PB)
SciTegic.value.DoubleValue
-65.116

@<SCITEGIC>MOL_PROPERTY
W(SA)
SciTegic.value.DoubleValue
2.026

@<SCITEGIC>MOL_PROPERTY
Valence
SciTegic.value.DoubleValue
2.822

@<SCITEGIC>MOL_PROPERTY
Coulomb
SciTegic.value.DoubleValue
6.637

@<SCITEGIC>MOL_PROPERTY
VdW
SciTegic.value.DoubleValue
0.785

@<SCITEGIC>MOL_PROPERTY
VdW6
SciTegic.value.DoubleValue
-5.216

@<SCITEGIC>MOL_PROPERTY
VdW12
SciTegic.value.DoubleValue
6.001

@<SCITEGIC>MOL_PROPERTY
Bond
SciTegic.value.DoubleValue
0.080

@<SCITEGIC>MOL_PROPERTY
Angle
SciTegic.value.DoubleValue
2.678

@<SCITEGIC>MOL_PROPERTY
Pdih
SciTegic.value.DoubleValue
0.064

@<SCITEGIC>MOL_PROPERTY
Idih
SciTegic.value.DoubleValue
0.000

@<SCITEGIC>MOL_PROPERTY
Tether
SciTegic.value.DoubleValue
0.000

@<TRIPOS>MOLECULE
guest-s19_confgen4.mol2 : confsearch ligand conformer 185
          17          16           1
SMALL
USER_CHARGES
 
@<TRIPOS>ATOM
       1    C1      23.166322   20.126271   21.373289 C.2        1 MOL1         0.6173
       2    O1      23.783483   20.198208   20.328473 O.co2      1 MOL1        -0.6755
       3    O2      23.701064   20.206175   22.463271 O.co2      1 MOL1        -0.6755
       4    C2      21.693238   19.933368   21.289783 C.2        1 MOL1        -0.1504
       5    H1      21.279024   19.870046   20.286127 H          1 MOL1         0.0814
       6    C3      20.883553   19.835353   22.368620 C.2        1 MOL1        -0.1394
       7    H2      21.288340   19.895073   23.378745 H          1 MOL1         0.0817
       8    C4      19.386509   19.637032   22.274984 C.3        1 MOL1        -0.1849
       9    H3      18.981658   20.222740   21.438414 H          1 MOL1         0.0736
      10    H4      18.907026   20.020432   23.185746 H          1 MOL1         0.0736
      11    C5      19.027374   18.148455   22.090122 C.3        1 MOL1        -0.1866
      12    H5      19.502953   17.764377   21.176958 H          1 MOL1         0.0738
      13    H6      19.431586   17.565041   22.929055 H          1 MOL1         0.0738
      14    C6      17.502531   17.936714   22.003249 C.3        1 MOL1        -0.2879
      15    H7      17.004834   18.283600   22.918345 H          1 MOL1         0.0750
      16    H8      17.077553   18.485511   21.152572 H          1 MOL1         0.0750
      17    H9      17.266701   16.872640   21.871864 H          1 MOL1         0.0750
@<TRIPOS>BOND
    1     1     2    1
    2     1     3    2
    3     1     4    1
    4     4     5    1
    5     4     6    2
    6     6     7    1
    7     6     8    1
    8     8     9    1
    9     8    10    1
   10     8    11    1
   11    11    12    1
   12    11    13    1
   13    11    14    1
   14    14    15    1
   15    14    16    1
   16    14    17    1
@<TRIPOS>SUBSTRUCTURE
       1 MOL1            1 RESIDUE      1      MOL     
@<SCITEGIC>MOL_PROPERTY
VConf Rank
SciTegic.value.IntegerValue
185

@<SCITEGIC>MOL_PROPERTY
Conf_Id
SciTegic.value.IntegerValue
36

@<SCITEGIC>MOL_PROPERTY
Delta U+W
SciTegic.value.DoubleValue
0.000

@<SCITEGIC>MOL_PROPERTY
U+W
SciTegic.value.DoubleValue
-53.409

@<SCITEGIC>MOL_PROPERTY
Grad RMS
SciTegic.value.DoubleValue
0.000000

@<SCITEGIC>MOL_PROPERTY
U
SciTegic.value.DoubleValue
9.048

@<SCITEGIC>MOL_PROPERTY
W
SciTegic.value.DoubleValue
-62.457

@<SCITEGIC>MOL_PROPERTY
W(PB)
SciTegic.value.DoubleValue
-64.540

@<SCITEGIC>MOL_PROPERTY
W(SA)
SciTegic.value.DoubleValue
2.084

@<SCITEGIC>MOL_PROPERTY
Valence
SciTegic.value.DoubleValue
2.652

@<SCITEGIC>MOL_PROPERTY
Coulomb
SciTegic.value.DoubleValue
5.578

@<SCITEGIC>MOL_PROPERTY
VdW
SciTegic.value.DoubleValue
0.818

@<SCITEGIC>MOL_PROPERTY
VdW6
SciTegic.value.DoubleValue
-4.534

@<SCITEGIC>MOL_PROPERTY
VdW12
SciTegic.value.DoubleValue
5.352

@<SCITEGIC>MOL_PROPERTY
Bond
SciTegic.value.DoubleValue
0.063

@<SCITEGIC>MOL_PROPERTY
Angle
SciTegic.value.DoubleValue
2.579

@<SCITEGIC>MOL_PROPERTY
Pdih
SciTegic.value.DoubleValue
0.010

@<SCITEGIC>MOL_PROPERTY
Idih
SciTegic.value.DoubleValue
0.000

@<SCITEGIC>MOL_PROPERTY
Tether
SciTegic.value.DoubleValue
0.000

@<TRIPOS>MOLECULE
guest-s19_confgen4.mol2 : confsearch ligand conformer 186
          17          16           1
SMALL
USER_CHARGES
 
@<TRIPOS>ATOM
       1    C1      22.621010   17.045903   21.289344 C.2        1 MOL1         0.6173
       2    O1      22.529086   16.702831   20.125623 O.co2      1 MOL1        -0.6755
       3    O2      23.401163   16.534266   22.068635 O.co2      1 MOL1        -0.6755
       4    C2      21.751942   18.138496   21.804245 C.2        1 MOL1        -0.1504
       5    H1      21.884515   18.396288   22.852518 H          1 MOL1         0.0814
       6    C3      20.840014   18.794533   21.051192 C.2        1 MOL1        -0.1394
       7    H2      20.697447   18.542832   20.000433 H          1 MOL1         0.0817
       8    C4      19.958729   19.903407   21.583147 C.3        1 MOL1        -0.1849
       9    H3      19.649075   20.556072   20.755784 H          1 MOL1         0.0736
      10    H4      20.527196   20.532581   22.281566 H          1 MOL1         0.0736
      11    C5      18.709707   19.338371   22.290039 C.3        1 MOL1        -0.1866
      12    H5      18.141678   18.711235   21.588890 H          1 MOL1         0.0738
      13    H6      19.017763   18.688321   23.120759 H          1 MOL1         0.0738
      14    C6      17.801404   20.462683   22.827100 C.3        1 MOL1        -0.2879
      15    H7      17.452950   21.109768   22.011446 H          1 MOL1         0.0750
      16    H8      16.918893   20.041715   23.326189 H          1 MOL1         0.0750
      17    H9      18.336920   21.086430   23.554835 H          1 MOL1         0.0750
@<TRIPOS>BOND
    1     1     2    1
    2     1     3    2
    3     1     4    1
    4     4     5    1
    5     4     6    2
    6     6     7    1
    7     6     8    1
    8     8     9    1
    9     8    10    1
   10     8    11    1
   11    11    12    1
   12    11    13    1
   13    11    14    1
   14    14    15    1
   15    14    16    1
   16    14    17    1
@<TRIPOS>SUBSTRUCTURE
       1 MOL1            1 RESIDUE      1      MOL     
@<SCITEGIC>MOL_PROPERTY
VConf Rank
SciTegic.value.IntegerValue
186

@<SCITEGIC>MOL_PROPERTY
Conf_Id
SciTegic.value.IntegerValue
1

@<SCITEGIC>MOL_PROPERTY
Delta U+W
SciTegic.value.DoubleValue
0.030

@<SCITEGIC>MOL_PROPERTY
U+W
SciTegic.value.DoubleValue
-53.378

@<SCITEGIC>MOL_PROPERTY
Grad RMS
SciTegic.value.DoubleValue
0.000000

@<SCITEGIC>MOL_PROPERTY
U
SciTegic.value.DoubleValue
9.048

@<SCITEGIC>MOL_PROPERTY
W
SciTegic.value.DoubleValue
-62.426

@<SCITEGIC>MOL_PROPERTY
W(PB)
SciTegic.value.DoubleValue
-64.506

@<SCITEGIC>MOL_PROPERTY
W(SA)
SciTegic.value.DoubleValue
2.080

@<SCITEGIC>MOL_PROPERTY
Valence
SciTegic.value.DoubleValue
2.652

@<SCITEGIC>MOL_PROPERTY
Coulomb
SciTegic.value.DoubleValue
5.578

@<SCITEGIC>MOL_PROPERTY
VdW
SciTegic.value.DoubleValue
0.818

@<SCITEGIC>MOL_PROPERTY
VdW6
SciTegic.value.DoubleValue
-4.535

@<SCITEGIC>MOL_PROPERTY
VdW12
SciTegic.value.DoubleValue
5.352

@<SCITEGIC>MOL_PROPERTY
Bond
SciTegic.value.DoubleValue
0.063

@<SCITEGIC>MOL_PROPERTY
Angle
SciTegic.value.DoubleValue
2.579

@<SCITEGIC>MOL_PROPERTY
Pdih
SciTegic.value.DoubleValue
0.010

@<SCITEGIC>MOL_PROPERTY
Idih
SciTegic.value.DoubleValue
0.000

@<SCITEGIC>MOL_PROPERTY
Tether
SciTegic.value.DoubleValue
0.000

@<TRIPOS>MOLECULE
guest-s19_confgen4.mol2 : confsearch ligand conformer 187
          17          16           1
SMALL
USER_CHARGES
 
@<TRIPOS>ATOM
       1    C1      17.490413   17.332053   21.861040 C.2        1 MOL1         0.6173
       2    O1      17.842210   16.370582   22.518500 O.co2      1 MOL1        -0.6755
       3    O2      16.329088   17.543423   21.570423 O.co2      1 MOL1        -0.6755
       4    C2      18.507869   18.304001   21.377106 C.2        1 MOL1        -0.1504
       5    H1      18.126818   19.139631   20.794625 H          1 MOL1         0.0814
       6    C3      19.832672   18.194882   21.626052 C.2        1 MOL1        -0.1394
       7    H2      20.224853   17.363520   22.211397 H          1 MOL1         0.0817
       8    C4      20.861995   19.190282   21.133417 C.3        1 MOL1        -0.1849
       9    H3      20.619953   19.492073   20.105378 H          1 MOL1         0.0736
      10    H4      21.850179   18.713099   21.087780 H          1 MOL1         0.0736
      11    C5      20.936919   20.448531   22.026029 C.3        1 MOL1        -0.1866
      12    H5      21.618541   21.176232   21.564516 H          1 MOL1         0.0738
      13    H6      19.949770   20.928940   22.072634 H          1 MOL1         0.0738
      14    C6      21.428947   20.131905   23.454444 C.3        1 MOL1        -0.2879
      15    H7      22.420834   19.661965   23.432975 H          1 MOL1         0.0750
      16    H8      21.502211   21.051102   24.049940 H          1 MOL1         0.0750
      17    H9      20.738283   19.451577   23.969574 H          1 MOL1         0.0750
@<TRIPOS>BOND
    1     1     2    1
    2     1     3    2
    3     1     4    1
    4     4     5    1
    5     4     6    2
    6     6     7    1
    7     6     8    1
    8     8     9    1
    9     8    10    1
   10     8    11    1
   11    11    12    1
   12    11    13    1
   13    11    14    1
   14    14    15    1
   15    14    16    1
   16    14    17    1
@<TRIPOS>SUBSTRUCTURE
       1 MOL1            1 RESIDUE      1      MOL     
@<SCITEGIC>MOL_PROPERTY
VConf Rank
SciTegic.value.IntegerValue
187

@<SCITEGIC>MOL_PROPERTY
Conf_Id
SciTegic.value.IntegerValue
3

@<SCITEGIC>MOL_PROPERTY
Delta U+W
SciTegic.value.DoubleValue
0.531

@<SCITEGIC>MOL_PROPERTY
U+W
SciTegic.value.DoubleValue
-52.878

@<SCITEGIC>MOL_PROPERTY
Grad RMS
SciTegic.value.DoubleValue
0.000000

@<SCITEGIC>MOL_PROPERTY
U
SciTegic.value.DoubleValue
10.067

@<SCITEGIC>MOL_PROPERTY
W
SciTegic.value.DoubleValue
-62.945

@<SCITEGIC>MOL_PROPERTY
W(PB)
SciTegic.value.DoubleValue
-64.982

@<SCITEGIC>MOL_PROPERTY
W(SA)
SciTegic.value.DoubleValue
2.037

@<SCITEGIC>MOL_PROPERTY
Valence
SciTegic.value.DoubleValue
2.779

@<SCITEGIC>MOL_PROPERTY
Coulomb
SciTegic.value.DoubleValue
6.474

@<SCITEGIC>MOL_PROPERTY
VdW
SciTegic.value.DoubleValue
0.815

@<SCITEGIC>MOL_PROPERTY
VdW6
SciTegic.value.DoubleValue
-5.088

@<SCITEGIC>MOL_PROPERTY
VdW12
SciTegic.value.DoubleValue
5.902

@<SCITEGIC>MOL_PROPERTY
Bond
SciTegic.value.DoubleValue
0.078

@<SCITEGIC>MOL_PROPERTY
Angle
SciTegic.value.DoubleValue
2.651

@<SCITEGIC>MOL_PROPERTY
Pdih
SciTegic.value.DoubleValue
0.050

@<SCITEGIC>MOL_PROPERTY
Idih
SciTegic.value.DoubleValue
0.000

@<SCITEGIC>MOL_PROPERTY
Tether
SciTegic.value.DoubleValue
0.000

@<TRIPOS>MOLECULE
guest-s19_confgen4.mol2 : confsearch ligand conformer 188
          17          16           1
SMALL
USER_CHARGES
 
@<TRIPOS>ATOM
       1    C1      17.418819   17.681631   22.827321 C.2        1 MOL1         0.6173
       2    O1      16.424974   18.115940   23.376346 O.co2      1 MOL1        -0.6755
       3    O2      17.694630   16.496845   22.801693 O.co2      1 MOL1        -0.6755
       4    C2      18.320002   18.661051   22.161980 C.2        1 MOL1        -0.1504
       5    H1      18.014664   19.703071   22.222549 H          1 MOL1         0.0814
       6    C3      19.458697   18.319764   21.516627 C.2        1 MOL1        -0.1394
       7    H2      19.773895   17.278470   21.454373 H          1 MOL1         0.0817
       8    C4      20.375533   19.319480   20.842597 C.3        1 MOL1        -0.1849
       9    H3      19.855243   20.273450   20.681416 H          1 MOL1         0.0736
      10    H4      20.642583   18.945157   19.845312 H          1 MOL1         0.0736
      11    C5      21.669870   19.564119   21.648829 C.3        1 MOL1        -0.1866
      12    H5      22.189619   18.609952   21.812792 H          1 MOL1         0.0738
      13    H6      22.348106   20.193011   21.055795 H          1 MOL1         0.0738
      14    C6      21.403808   20.251486   23.005136 C.3        1 MOL1        -0.2879
      15    H7      20.779969   19.621815   23.652742 H          1 MOL1         0.0750
      16    H8      22.347340   20.444531   23.531774 H          1 MOL1         0.0750
      17    H9      20.891128   21.211948   22.864549 H          1 MOL1         0.0750
@<TRIPOS>BOND
    1     1     2    1
    2     1     3    2
    3     1     4    1
    4     4     5    1
    5     4     6    2
    6     6     7    1
    7     6     8    1
    8     8     9    1
    9     8    10    1
   10     8    11    1
   11    11    12    1
   12    11    13    1
   13    11    14    1
   14    14    15    1
   15    14    16    1
   16    14    17    1
@<TRIPOS>SUBSTRUCTURE
       1 MOL1            1 RESIDUE      1      MOL     
@<SCITEGIC>MOL_PROPERTY
VConf Rank
SciTegic.value.IntegerValue
188

@<SCITEGIC>MOL_PROPERTY
Conf_Id
SciTegic.value.IntegerValue
45

@<SCITEGIC>MOL_PROPERTY
Delta U+W
SciTegic.value.DoubleValue
0.562

@<SCITEGIC>MOL_PROPERTY
U+W
SciTegic.value.DoubleValue
-52.846

@<SCITEGIC>MOL_PROPERTY
Grad RMS
SciTegic.value.DoubleValue
0.000000

@<SCITEGIC>MOL_PROPERTY
U
SciTegic.value.DoubleValue
10.243

@<SCITEGIC>MOL_PROPERTY
W
SciTegic.value.DoubleValue
-63.089

@<SCITEGIC>MOL_PROPERTY
W(PB)
SciTegic.value.DoubleValue
-65.116

@<SCITEGIC>MOL_PROPERTY
W(SA)
SciTegic.value.DoubleValue
2.026

@<SCITEGIC>MOL_PROPERTY
Valence
SciTegic.value.DoubleValue
2.822

@<SCITEGIC>MOL_PROPERTY
Coulomb
SciTegic.value.DoubleValue
6.637

@<SCITEGIC>MOL_PROPERTY
VdW
SciTegic.value.DoubleValue
0.785

@<SCITEGIC>MOL_PROPERTY
VdW6
SciTegic.value.DoubleValue
-5.216

@<SCITEGIC>MOL_PROPERTY
VdW12
SciTegic.value.DoubleValue
6.001

@<SCITEGIC>MOL_PROPERTY
Bond
SciTegic.value.DoubleValue
0.080

@<SCITEGIC>MOL_PROPERTY
Angle
SciTegic.value.DoubleValue
2.678

@<SCITEGIC>MOL_PROPERTY
Pdih
SciTegic.value.DoubleValue
0.064

@<SCITEGIC>MOL_PROPERTY
Idih
SciTegic.value.DoubleValue
0.000

@<SCITEGIC>MOL_PROPERTY
Tether
SciTegic.value.DoubleValue
0.000

@<TRIPOS>MOLECULE
guest-s19_confgen4.mol2 : confsearch ligand conformer 189
          17          16           1
SMALL
USER_CHARGES
 
@<TRIPOS>ATOM
       1    C1      17.657184   16.718157   21.509344 C.2        1 MOL1         0.6173
       2    O1      16.469020   16.750331   21.764167 O.co2      1 MOL1        -0.6755
       3    O2      18.251528   15.686319   21.259425 O.co2      1 MOL1        -0.6755
       4    C2      18.395222   18.010233   21.507699 C.2        1 MOL1        -0.1504
       5    H1      17.805162   18.894134   21.738904 H          1 MOL1         0.0814
       6    C3      19.716750   18.123059   21.243277 C.2        1 MOL1        -0.1394
       7    H2      20.317884   17.243702   21.012750 H          1 MOL1         0.0817
       8    C4      20.460242   19.440804   21.245798 C.3        1 MOL1        -0.1849
       9    H3      19.828364   20.229376   20.814878 H          1 MOL1         0.0736
      10    H4      21.346812   19.364125   20.601980 H          1 MOL1         0.0736
      11    C5      20.891032   19.840185   22.671957 C.3        1 MOL1        -0.1866
      12    H5      20.004683   19.921446   23.316428 H          1 MOL1         0.0738
      13    H6      21.524553   19.050904   23.100038 H          1 MOL1         0.0738
      14    C6      21.657871   21.177864   22.681974 C.3        1 MOL1        -0.2879
      15    H7      22.567063   21.114240   22.069804 H          1 MOL1         0.0750
      16    H8      21.034651   21.990906   22.287011 H          1 MOL1         0.0750
      17    H9      21.955729   21.445250   23.704185 H          1 MOL1         0.0750
@<TRIPOS>BOND
    1     1     2    1
    2     1     3    2
    3     1     4    1
    4     4     5    1
    5     4     6    2
    6     6     7    1
    7     6     8    1
    8     8     9    1
    9     8    10    1
   10     8    11    1
   11    11    12    1
   12    11    13    1
   13    11    14    1
   14    14    15    1
   15    14    16    1
   16    14    17    1
@<TRIPOS>SUBSTRUCTURE
       1 MOL1            1 RESIDUE      1      MOL     
@<SCITEGIC>MOL_PROPERTY
VConf Rank
SciTegic.value.IntegerValue
189

@<SCITEGIC>MOL_PROPERTY
Conf_Id
SciTegic.value.IntegerValue
36

@<SCITEGIC>MOL_PROPERTY
Delta U+W
SciTegic.value.DoubleValue
0.000

@<SCITEGIC>MOL_PROPERTY
U+W
SciTegic.value.DoubleValue
-53.409

@<SCITEGIC>MOL_PROPERTY
Grad RMS
SciTegic.value.DoubleValue
0.000000

@<SCITEGIC>MOL_PROPERTY
U
SciTegic.value.DoubleValue
9.048

@<SCITEGIC>MOL_PROPERTY
W
SciTegic.value.DoubleValue
-62.457

@<SCITEGIC>MOL_PROPERTY
W(PB)
SciTegic.value.DoubleValue
-64.540

@<SCITEGIC>MOL_PROPERTY
W(SA)
SciTegic.value.DoubleValue
2.084

@<SCITEGIC>MOL_PROPERTY
Valence
SciTegic.value.DoubleValue
2.652

@<SCITEGIC>MOL_PROPERTY
Coulomb
SciTegic.value.DoubleValue
5.578

@<SCITEGIC>MOL_PROPERTY
VdW
SciTegic.value.DoubleValue
0.818

@<SCITEGIC>MOL_PROPERTY
VdW6
SciTegic.value.DoubleValue
-4.534

@<SCITEGIC>MOL_PROPERTY
VdW12
SciTegic.value.DoubleValue
5.352

@<SCITEGIC>MOL_PROPERTY
Bond
SciTegic.value.DoubleValue
0.063

@<SCITEGIC>MOL_PROPERTY
Angle
SciTegic.value.DoubleValue
2.579

@<SCITEGIC>MOL_PROPERTY
Pdih
SciTegic.value.DoubleValue
0.010

@<SCITEGIC>MOL_PROPERTY
Idih
SciTegic.value.DoubleValue
0.000

@<SCITEGIC>MOL_PROPERTY
Tether
SciTegic.value.DoubleValue
0.000

@<TRIPOS>MOLECULE
guest-s19_confgen4.mol2 : confsearch ligand conformer 190
          17          16           1
SMALL
USER_CHARGES
 
@<TRIPOS>ATOM
       1    C1      18.271322   21.562395   20.415714 C.2        1 MOL1         0.6173
       2    O1      18.170535   21.260480   19.241371 O.co2      1 MOL1        -0.6755
       3    O2      17.968734   22.659264   20.843526 O.co2      1 MOL1        -0.6755
       4    C2      18.783626   20.561595   21.390449 C.2        1 MOL1        -0.1504
       5    H1      18.848746   20.895445   22.423509 H          1 MOL1         0.0814
       6    C3      19.157938   19.305984   21.055163 C.2        1 MOL1        -0.1394
       7    H2      19.098849   18.961822   20.022770 H          1 MOL1         0.0817
       8    C4      19.679707   18.294834   22.052445 C.3        1 MOL1        -0.1849
       9    H3      19.498185   17.279212   21.675684 H          1 MOL1         0.0736
      10    H4      19.127424   18.380662   22.998185 H          1 MOL1         0.0736
      11    C5      21.188017   18.487439   22.311138 C.3        1 MOL1        -0.1866
      12    H5      21.738440   18.399006   21.364153 H          1 MOL1         0.0738
      13    H6      21.370898   19.501841   22.692061 H          1 MOL1         0.0738
      14    C6      21.729600   17.454539   23.319767 C.3        1 MOL1        -0.2879
      15    H7      21.587839   16.431048   22.948553 H          1 MOL1         0.0750
      16    H8      22.803163   17.607212   23.490891 H          1 MOL1         0.0750
      17    H9      21.216468   17.542954   24.286367 H          1 MOL1         0.0750
@<TRIPOS>BOND
    1     1     2    1
    2     1     3    2
    3     1     4    1
    4     4     5    1
    5     4     6    2
    6     6     7    1
    7     6     8    1
    8     8     9    1
    9     8    10    1
   10     8    11    1
   11    11    12    1
   12    11    13    1
   13    11    14    1
   14    14    15    1
   15    14    16    1
   16    14    17    1
@<TRIPOS>SUBSTRUCTURE
       1 MOL1            1 RESIDUE      1      MOL     
@<SCITEGIC>MOL_PROPERTY
VConf Rank
SciTegic.value.IntegerValue
190

@<SCITEGIC>MOL_PROPERTY
Conf_Id
SciTegic.value.IntegerValue
1

@<SCITEGIC>MOL_PROPERTY
Delta U+W
SciTegic.value.DoubleValue
0.030

@<SCITEGIC>MOL_PROPERTY
U+W
SciTegic.value.DoubleValue
-53.378

@<SCITEGIC>MOL_PROPERTY
Grad RMS
SciTegic.value.DoubleValue
0.000000

@<SCITEGIC>MOL_PROPERTY
U
SciTegic.value.DoubleValue
9.048

@<SCITEGIC>MOL_PROPERTY
W
SciTegic.value.DoubleValue
-62.426

@<SCITEGIC>MOL_PROPERTY
W(PB)
SciTegic.value.DoubleValue
-64.506

@<SCITEGIC>MOL_PROPERTY
W(SA)
SciTegic.value.DoubleValue
2.080

@<SCITEGIC>MOL_PROPERTY
Valence
SciTegic.value.DoubleValue
2.652

@<SCITEGIC>MOL_PROPERTY
Coulomb
SciTegic.value.DoubleValue
5.578

@<SCITEGIC>MOL_PROPERTY
VdW
SciTegic.value.DoubleValue
0.818

@<SCITEGIC>MOL_PROPERTY
VdW6
SciTegic.value.DoubleValue
-4.535

@<SCITEGIC>MOL_PROPERTY
VdW12
SciTegic.value.DoubleValue
5.352

@<SCITEGIC>MOL_PROPERTY
Bond
SciTegic.value.DoubleValue
0.063

@<SCITEGIC>MOL_PROPERTY
Angle
SciTegic.value.DoubleValue
2.579

@<SCITEGIC>MOL_PROPERTY
Pdih
SciTegic.value.DoubleValue
0.010

@<SCITEGIC>MOL_PROPERTY
Idih
SciTegic.value.DoubleValue
0.000

@<SCITEGIC>MOL_PROPERTY
Tether
SciTegic.value.DoubleValue
0.000

@<TRIPOS>MOLECULE
guest-s19_confgen4.mol2 : confsearch ligand conformer 191
          17          16           1
SMALL
USER_CHARGES
 
@<TRIPOS>ATOM
       1    C1      18.531056   21.762667   22.423028 C.2        1 MOL1         0.6173
       2    O1      17.409222   21.358315   22.664748 O.co2      1 MOL1        -0.6755
       3    O2      18.882085   22.905613   22.642717 O.co2      1 MOL1        -0.6755
       4    C2      19.534030   20.837755   21.829165 C.2        1 MOL1        -0.1504
       5    H1      20.516534   21.262723   21.637201 H          1 MOL1         0.0814
       6    C3      19.282642   19.542061   21.534264 C.2        1 MOL1        -0.1394
       7    H2      18.302804   19.105144   21.725623 H          1 MOL1         0.0817
       8    C4      20.309782   18.605550   20.933478 C.3        1 MOL1        -0.1849
       9    H3      20.889966   19.137733   20.167518 H          1 MOL1         0.0736
      10    H4      19.803668   17.779846   20.415449 H          1 MOL1         0.0736
      11    C5      21.276018   18.034448   21.994512 C.3        1 MOL1        -0.1866
      12    H5      22.058349   17.450386   21.490544 H          1 MOL1         0.0738
      13    H6      21.784914   18.858363   22.513760 H          1 MOL1         0.0738
      14    C6      20.559254   17.134997   23.024051 C.3        1 MOL1        -0.2879
      15    H7      20.053407   16.296412   22.528027 H          1 MOL1         0.0750
      16    H8      21.279170   16.720147   23.741357 H          1 MOL1         0.0750
      17    H9      19.808657   17.701639   23.590391 H          1 MOL1         0.0750
@<TRIPOS>BOND
    1     1     2    1
    2     1     3    2
    3     1     4    1
    4     4     5    1
    5     4     6    2
    6     6     7    1
    7     6     8    1
    8     8     9    1
    9     8    10    1
   10     8    11    1
   11    11    12    1
   12    11    13    1
   13    11    14    1
   14    14    15    1
   15    14    16    1
   16    14    17    1
@<TRIPOS>SUBSTRUCTURE
       1 MOL1            1 RESIDUE      1      MOL     
@<SCITEGIC>MOL_PROPERTY
VConf Rank
SciTegic.value.IntegerValue
191

@<SCITEGIC>MOL_PROPERTY
Conf_Id
SciTegic.value.IntegerValue
3

@<SCITEGIC>MOL_PROPERTY
Delta U+W
SciTegic.value.DoubleValue
0.531

@<SCITEGIC>MOL_PROPERTY
U+W
SciTegic.value.DoubleValue
-52.878

@<SCITEGIC>MOL_PROPERTY
Grad RMS
SciTegic.value.DoubleValue
0.000000

@<SCITEGIC>MOL_PROPERTY
U
SciTegic.value.DoubleValue
10.067

@<SCITEGIC>MOL_PROPERTY
W
SciTegic.value.DoubleValue
-62.945

@<SCITEGIC>MOL_PROPERTY
W(PB)
SciTegic.value.DoubleValue
-64.982

@<SCITEGIC>MOL_PROPERTY
W(SA)
SciTegic.value.DoubleValue
2.037

@<SCITEGIC>MOL_PROPERTY
Valence
SciTegic.value.DoubleValue
2.779

@<SCITEGIC>MOL_PROPERTY
Coulomb
SciTegic.value.DoubleValue
6.474

@<SCITEGIC>MOL_PROPERTY
VdW
SciTegic.value.DoubleValue
0.815

@<SCITEGIC>MOL_PROPERTY
VdW6
SciTegic.value.DoubleValue
-5.088

@<SCITEGIC>MOL_PROPERTY
VdW12
SciTegic.value.DoubleValue
5.902

@<SCITEGIC>MOL_PROPERTY
Bond
SciTegic.value.DoubleValue
0.078

@<SCITEGIC>MOL_PROPERTY
Angle
SciTegic.value.DoubleValue
2.651

@<SCITEGIC>MOL_PROPERTY
Pdih
SciTegic.value.DoubleValue
0.050

@<SCITEGIC>MOL_PROPERTY
Idih
SciTegic.value.DoubleValue
0.000

@<SCITEGIC>MOL_PROPERTY
Tether
SciTegic.value.DoubleValue
0.000

@<TRIPOS>MOLECULE
guest-s19_confgen4.mol2 : confsearch ligand conformer 192
          17          16           1
SMALL
USER_CHARGES
 
@<TRIPOS>ATOM
       1    C1      22.530575   20.497449   22.878607 C.2        1 MOL1         0.6173
       2    O1      23.439025   20.105741   23.585051 O.co2      1 MOL1        -0.6755
       3    O2      22.329662   21.676336   22.654318 O.co2      1 MOL1        -0.6755
       4    C2      21.641147   19.471165   22.270551 C.2        1 MOL1        -0.1504
       5    H1      21.876532   18.437189   22.511786 H          1 MOL1         0.0814
       6    C3      20.592551   19.763116   21.467559 C.2        1 MOL1        -0.1394
       7    H2      20.347492   20.796565   21.223740 H          1 MOL1         0.0817
       8    C4      19.687202   18.716189   20.852236 C.3        1 MOL1        -0.1849
       9    H3      20.162831   17.726522   20.885029 H          1 MOL1         0.0736
      10    H4      19.540600   18.949301   19.789138 H          1 MOL1         0.0736
      11    C5      18.308719   18.652627   21.545714 C.3        1 MOL1        -0.1866
      12    H5      17.833369   19.642880   21.515687 H          1 MOL1         0.0738
      13    H6      17.654704   17.973394   20.981707 H          1 MOL1         0.0738
      14    C6      18.400970   18.163829   23.007014 C.3        1 MOL1        -0.2879
      15    H7      18.995712   18.854399   23.618936 H          1 MOL1         0.0750
      16    H8      17.401126   18.093861   23.454543 H          1 MOL1         0.0750
      17    H9      18.866662   17.171158   23.060212 H          1 MOL1         0.0750
@<TRIPOS>BOND
    1     1     2    1
    2     1     3    2
    3     1     4    1
    4     4     5    1
    5     4     6    2
    6     6     7    1
    7     6     8    1
    8     8     9    1
    9     8    10    1
   10     8    11    1
   11    11    12    1
   12    11    13    1
   13    11    14    1
   14    14    15    1
   15    14    16    1
   16    14    17    1
@<TRIPOS>SUBSTRUCTURE
       1 MOL1            1 RESIDUE      1      MOL     
@<SCITEGIC>MOL_PROPERTY
VConf Rank
SciTegic.value.IntegerValue
192

@<SCITEGIC>MOL_PROPERTY
Conf_Id
SciTegic.value.IntegerValue
45

@<SCITEGIC>MOL_PROPERTY
Delta U+W
SciTegic.value.DoubleValue
0.562

@<SCITEGIC>MOL_PROPERTY
U+W
SciTegic.value.DoubleValue
-52.846

@<SCITEGIC>MOL_PROPERTY
Grad RMS
SciTegic.value.DoubleValue
0.000000

@<SCITEGIC>MOL_PROPERTY
U
SciTegic.value.DoubleValue
10.243

@<SCITEGIC>MOL_PROPERTY
W
SciTegic.value.DoubleValue
-63.089

@<SCITEGIC>MOL_PROPERTY
W(PB)
SciTegic.value.DoubleValue
-65.116

@<SCITEGIC>MOL_PROPERTY
W(SA)
SciTegic.value.DoubleValue
2.026

@<SCITEGIC>MOL_PROPERTY
Valence
SciTegic.value.DoubleValue
2.822

@<SCITEGIC>MOL_PROPERTY
Coulomb
SciTegic.value.DoubleValue
6.637

@<SCITEGIC>MOL_PROPERTY
VdW
SciTegic.value.DoubleValue
0.785

@<SCITEGIC>MOL_PROPERTY
VdW6
SciTegic.value.DoubleValue
-5.216

@<SCITEGIC>MOL_PROPERTY
VdW12
SciTegic.value.DoubleValue
6.001

@<SCITEGIC>MOL_PROPERTY
Bond
SciTegic.value.DoubleValue
0.080

@<SCITEGIC>MOL_PROPERTY
Angle
SciTegic.value.DoubleValue
2.678

@<SCITEGIC>MOL_PROPERTY
Pdih
SciTegic.value.DoubleValue
0.064

@<SCITEGIC>MOL_PROPERTY
Idih
SciTegic.value.DoubleValue
0.000

@<SCITEGIC>MOL_PROPERTY
Tether
SciTegic.value.DoubleValue
0.000

@<TRIPOS>MOLECULE
guest-s19_confgen4.mol2 : confsearch ligand conformer 193
          17          16           1
SMALL
USER_CHARGES
 
@<TRIPOS>ATOM
       1    C1      23.114225   20.201648   21.233789 C.2        1 MOL1         0.6173
       2    O1      23.973365   20.600120   21.995893 O.co2      1 MOL1        -0.6755
       3    O2      23.181810   20.347278   20.027713 O.co2      1 MOL1        -0.6755
       4    C2      21.938704   19.507196   21.825437 C.2        1 MOL1        -0.1504
       5    H1      21.940392   19.410352   22.908732 H          1 MOL1         0.0814
       6    C3      20.909962   19.014486   21.098793 C.2        1 MOL1        -0.1394
       7    H2      20.896979   19.108147   20.013052 H          1 MOL1         0.0817
       8    C4      19.717030   18.311397   21.708559 C.3        1 MOL1        -0.1849
       9    H3      20.041308   17.680360   22.547275 H          1 MOL1         0.0736
      10    H4      19.268029   17.637870   20.966166 H          1 MOL1         0.0736
      11    C5      18.658247   19.321488   22.196113 C.3        1 MOL1        -0.1866
      12    H5      19.104786   19.993512   22.942133 H          1 MOL1         0.0738
      13    H6      18.334000   19.950080   21.355099 H          1 MOL1         0.0738
      14    C6      17.434637   18.612415   22.810540 C.3        1 MOL1        -0.2879
      15    H7      16.949632   17.957363   22.074939 H          1 MOL1         0.0750
      16    H8      17.727610   18.000774   23.673962 H          1 MOL1         0.0750
      17    H9      16.693034   19.346550   23.151424 H          1 MOL1         0.0750
@<TRIPOS>BOND
    1     1     2    1
    2     1     3    2
    3     1     4    1
    4     4     5    1
    5     4     6    2
    6     6     7    1
    7     6     8    1
    8     8     9    1
    9     8    10    1
   10     8    11    1
   11    11    12    1
   12    11    13    1
   13    11    14    1
   14    14    15    1
   15    14    16    1
   16    14    17    1
@<TRIPOS>SUBSTRUCTURE
       1 MOL1            1 RESIDUE      1      MOL     
@<SCITEGIC>MOL_PROPERTY
VConf Rank
SciTegic.value.IntegerValue
193

@<SCITEGIC>MOL_PROPERTY
Conf_Id
SciTegic.value.IntegerValue
36

@<SCITEGIC>MOL_PROPERTY
Delta U+W
SciTegic.value.DoubleValue
0.000

@<SCITEGIC>MOL_PROPERTY
U+W
SciTegic.value.DoubleValue
-53.409

@<SCITEGIC>MOL_PROPERTY
Grad RMS
SciTegic.value.DoubleValue
0.000000

@<SCITEGIC>MOL_PROPERTY
U
SciTegic.value.DoubleValue
9.048

@<SCITEGIC>MOL_PROPERTY
W
SciTegic.value.DoubleValue
-62.457

@<SCITEGIC>MOL_PROPERTY
W(PB)
SciTegic.value.DoubleValue
-64.540

@<SCITEGIC>MOL_PROPERTY
W(SA)
SciTegic.value.DoubleValue
2.084

@<SCITEGIC>MOL_PROPERTY
Valence
SciTegic.value.DoubleValue
2.652

@<SCITEGIC>MOL_PROPERTY
Coulomb
SciTegic.value.DoubleValue
5.578

@<SCITEGIC>MOL_PROPERTY
VdW
SciTegic.value.DoubleValue
0.818

@<SCITEGIC>MOL_PROPERTY
VdW6
SciTegic.value.DoubleValue
-4.534

@<SCITEGIC>MOL_PROPERTY
VdW12
SciTegic.value.DoubleValue
5.352

@<SCITEGIC>MOL_PROPERTY
Bond
SciTegic.value.DoubleValue
0.063

@<SCITEGIC>MOL_PROPERTY
Angle
SciTegic.value.DoubleValue
2.579

@<SCITEGIC>MOL_PROPERTY
Pdih
SciTegic.value.DoubleValue
0.010

@<SCITEGIC>MOL_PROPERTY
Idih
SciTegic.value.DoubleValue
0.000

@<SCITEGIC>MOL_PROPERTY
Tether
SciTegic.value.DoubleValue
0.000

@<TRIPOS>MOLECULE
guest-s19_confgen4.mol2 : confsearch ligand conformer 194
          17          16           1
SMALL
USER_CHARGES
 
@<TRIPOS>ATOM
       1    C1      18.081940   17.489181   24.165565 C.2        1 MOL1         0.6173
       2    O1      17.234878   16.883978   23.535796 O.co2      1 MOL1        -0.6755
       3    O2      18.039521   17.618483   25.373533 O.co2      1 MOL1        -0.6755
       4    C2      19.230520   18.105685   23.448035 C.2        1 MOL1        -0.1504
       5    H1      19.951415   18.631704   24.069745 H          1 MOL1         0.0814
       6    C3      19.404334   18.041852   22.108334 C.2        1 MOL1        -0.1394
       7    H2      18.687036   17.519274   21.475744 H          1 MOL1         0.0817
       8    C4      20.574410   18.673246   21.386181 C.3        1 MOL1        -0.1849
       9    H3      20.749548   18.146235   20.438566 H          1 MOL1         0.0736
      10    H4      21.490116   18.557625   21.981932 H          1 MOL1         0.0736
      11    C5      20.321110   20.168672   21.105901 C.3        1 MOL1        -0.1866
      12    H5      19.405973   20.281581   20.508119 H          1 MOL1         0.0738
      13    H6      20.149733   20.698231   22.053401 H          1 MOL1         0.0738
      14    C6      21.505467   20.817496   20.361691 C.3        1 MOL1        -0.2879
      15    H7      21.678590   20.326619   19.394996 H          1 MOL1         0.0750
      16    H8      21.307097   21.880286   20.171279 H          1 MOL1         0.0750
      17    H9      22.427804   20.745583   20.952926 H          1 MOL1         0.0750
@<TRIPOS>BOND
    1     1     2    1
    2     1     3    2
    3     1     4    1
    4     4     5    1
    5     4     6    2
    6     6     7    1
    7     6     8    1
    8     8     9    1
    9     8    10    1
   10     8    11    1
   11    11    12    1
   12    11    13    1
   13    11    14    1
   14    14    15    1
   15    14    16    1
   16    14    17    1
@<TRIPOS>SUBSTRUCTURE
       1 MOL1            1 RESIDUE      1      MOL     
@<SCITEGIC>MOL_PROPERTY
VConf Rank
SciTegic.value.IntegerValue
194

@<SCITEGIC>MOL_PROPERTY
Conf_Id
SciTegic.value.IntegerValue
1

@<SCITEGIC>MOL_PROPERTY
Delta U+W
SciTegic.value.DoubleValue
0.030

@<SCITEGIC>MOL_PROPERTY
U+W
SciTegic.value.DoubleValue
-53.378

@<SCITEGIC>MOL_PROPERTY
Grad RMS
SciTegic.value.DoubleValue
0.000000

@<SCITEGIC>MOL_PROPERTY
U
SciTegic.value.DoubleValue
9.048

@<SCITEGIC>MOL_PROPERTY
W
SciTegic.value.DoubleValue
-62.426

@<SCITEGIC>MOL_PROPERTY
W(PB)
SciTegic.value.DoubleValue
-64.506

@<SCITEGIC>MOL_PROPERTY
W(SA)
SciTegic.value.DoubleValue
2.080

@<SCITEGIC>MOL_PROPERTY
Valence
SciTegic.value.DoubleValue
2.652

@<SCITEGIC>MOL_PROPERTY
Coulomb
SciTegic.value.DoubleValue
5.578

@<SCITEGIC>MOL_PROPERTY
VdW
SciTegic.value.DoubleValue
0.818

@<SCITEGIC>MOL_PROPERTY
VdW6
SciTegic.value.DoubleValue
-4.535

@<SCITEGIC>MOL_PROPERTY
VdW12
SciTegic.value.DoubleValue
5.352

@<SCITEGIC>MOL_PROPERTY
Bond
SciTegic.value.DoubleValue
0.063

@<SCITEGIC>MOL_PROPERTY
Angle
SciTegic.value.DoubleValue
2.579

@<SCITEGIC>MOL_PROPERTY
Pdih
SciTegic.value.DoubleValue
0.010

@<SCITEGIC>MOL_PROPERTY
Idih
SciTegic.value.DoubleValue
0.000

@<SCITEGIC>MOL_PROPERTY
Tether
SciTegic.value.DoubleValue
0.000

@<TRIPOS>MOLECULE
guest-s19_confgen4.mol2 : confsearch ligand conformer 195
          17          16           1
SMALL
USER_CHARGES
 
@<TRIPOS>ATOM
       1    C1      22.533390   18.326920   20.442023 C.2        1 MOL1         0.6173
       2    O1      23.336607   19.113745   20.906985 O.co2      1 MOL1        -0.6755
       3    O2      22.863067   17.355227   19.790153 O.co2      1 MOL1        -0.6755
       4    C2      21.078202   18.543877   20.664397 C.2        1 MOL1        -0.1504
       5    H1      20.414868   17.804684   20.221293 H          1 MOL1         0.0814
       6    C3      20.569806   19.579750   21.369724 C.2        1 MOL1        -0.1394
       7    H2      21.225466   20.324223   21.820797 H          1 MOL1         0.0817
       8    C4      19.087522   19.791931   21.595172 C.3        1 MOL1        -0.1849
       9    H3      18.538020   19.562270   20.672225 H          1 MOL1         0.0736
      10    H4      18.891229   20.850377   21.813011 H          1 MOL1         0.0736
      11    C5      18.536660   18.917709   22.743148 C.3        1 MOL1        -0.1866
      12    H5      17.445134   19.033654   22.790908 H          1 MOL1         0.0738
      13    H6      18.730506   17.857846   22.527412 H          1 MOL1         0.0738
      14    C6      19.143815   19.288918   24.112921 C.3        1 MOL1        -0.2879
      15    H7      18.951119   20.342100   24.355450 H          1 MOL1         0.0750
      16    H8      18.706361   18.672321   24.908754 H          1 MOL1         0.0750
      17    H9      20.229786   19.128246   24.121458 H          1 MOL1         0.0750
@<TRIPOS>BOND
    1     1     2    1
    2     1     3    2
    3     1     4    1
    4     4     5    1
    5     4     6    2
    6     6     7    1
    7     6     8    1
    8     8     9    1
    9     8    10    1
   10     8    11    1
   11    11    12    1
   12    11    13    1
   13    11    14    1
   14    14    15    1
   15    14    16    1
   16    14    17    1
@<TRIPOS>SUBSTRUCTURE
       1 MOL1            1 RESIDUE      1      MOL     
@<SCITEGIC>MOL_PROPERTY
VConf Rank
SciTegic.value.IntegerValue
195

@<SCITEGIC>MOL_PROPERTY
Conf_Id
SciTegic.value.IntegerValue
3

@<SCITEGIC>MOL_PROPERTY
Delta U+W
SciTegic.value.DoubleValue
0.531

@<SCITEGIC>MOL_PROPERTY
U+W
SciTegic.value.DoubleValue
-52.878

@<SCITEGIC>MOL_PROPERTY
Grad RMS
SciTegic.value.DoubleValue
0.000000

@<SCITEGIC>MOL_PROPERTY
U
SciTegic.value.DoubleValue
10.067

@<SCITEGIC>MOL_PROPERTY
W
SciTegic.value.DoubleValue
-62.945

@<SCITEGIC>MOL_PROPERTY
W(PB)
SciTegic.value.DoubleValue
-64.982

@<SCITEGIC>MOL_PROPERTY
W(SA)
SciTegic.value.DoubleValue
2.037

@<SCITEGIC>MOL_PROPERTY
Valence
SciTegic.value.DoubleValue
2.779

@<SCITEGIC>MOL_PROPERTY
Coulomb
SciTegic.value.DoubleValue
6.474

@<SCITEGIC>MOL_PROPERTY
VdW
SciTegic.value.DoubleValue
0.815

@<SCITEGIC>MOL_PROPERTY
VdW6
SciTegic.value.DoubleValue
-5.088

@<SCITEGIC>MOL_PROPERTY
VdW12
SciTegic.value.DoubleValue
5.902

@<SCITEGIC>MOL_PROPERTY
Bond
SciTegic.value.DoubleValue
0.078

@<SCITEGIC>MOL_PROPERTY
Angle
SciTegic.value.DoubleValue
2.651

@<SCITEGIC>MOL_PROPERTY
Pdih
SciTegic.value.DoubleValue
0.050

@<SCITEGIC>MOL_PROPERTY
Idih
SciTegic.value.DoubleValue
0.000

@<SCITEGIC>MOL_PROPERTY
Tether
SciTegic.value.DoubleValue
0.000

@<TRIPOS>MOLECULE
guest-s19_confgen4.mol2 : confsearch ligand conformer 196
          17          16           1
SMALL
USER_CHARGES
 
@<TRIPOS>ATOM
       1    C1      20.428967   18.537647   25.008861 C.2        1 MOL1         0.6173
       2    O1      21.209619   19.053418   25.784969 O.co2      1 MOL1        -0.6755
       3    O2      19.931288   17.444235   25.201769 O.co2      1 MOL1        -0.6755
       4    C2      20.080065   19.297670   23.778128 C.2        1 MOL1        -0.1504
       5    H1      20.559914   20.267373   23.668003 H          1 MOL1         0.0814
       6    C3      19.229036   18.845410   22.829025 C.2        1 MOL1        -0.1394
       7    H2      18.746787   17.873391   22.929693 H          1 MOL1         0.0817
       8    C4      18.877940   19.620300   21.575785 C.3        1 MOL1        -0.1849
       9    H3      19.145179   20.679788   21.688964 H          1 MOL1         0.0736
      10    H4      17.789646   19.593789   21.431142 H          1 MOL1         0.0736
      11    C5      19.564459   19.043466   20.318359 C.3        1 MOL1        -0.1866
      12    H5      19.299771   17.982926   20.205864 H          1 MOL1         0.0738
      13    H6      19.176468   19.559699   19.429447 H          1 MOL1         0.0738
      14    C6      21.100127   19.195145   20.357716 C.3        1 MOL1        -0.2879
      15    H7      21.531883   18.637266   21.198794 H          1 MOL1         0.0750
      16    H8      21.549847   18.810839   19.433094 H          1 MOL1         0.0750
      17    H9      21.387884   20.249360   20.462218 H          1 MOL1         0.0750
@<TRIPOS>BOND
    1     1     2    1
    2     1     3    2
    3     1     4    1
    4     4     5    1
    5     4     6    2
    6     6     7    1
    7     6     8    1
    8     8     9    1
    9     8    10    1
   10     8    11    1
   11    11    12    1
   12    11    13    1
   13    11    14    1
   14    14    15    1
   15    14    16    1
   16    14    17    1
@<TRIPOS>SUBSTRUCTURE
       1 MOL1            1 RESIDUE      1      MOL     
@<SCITEGIC>MOL_PROPERTY
VConf Rank
SciTegic.value.IntegerValue
196

@<SCITEGIC>MOL_PROPERTY
Conf_Id
SciTegic.value.IntegerValue
45

@<SCITEGIC>MOL_PROPERTY
Delta U+W
SciTegic.value.DoubleValue
0.562

@<SCITEGIC>MOL_PROPERTY
U+W
SciTegic.value.DoubleValue
-52.846

@<SCITEGIC>MOL_PROPERTY
Grad RMS
SciTegic.value.DoubleValue
0.000000

@<SCITEGIC>MOL_PROPERTY
U
SciTegic.value.DoubleValue
10.243

@<SCITEGIC>MOL_PROPERTY
W
SciTegic.value.DoubleValue
-63.089

@<SCITEGIC>MOL_PROPERTY
W(PB)
SciTegic.value.DoubleValue
-65.116

@<SCITEGIC>MOL_PROPERTY
W(SA)
SciTegic.value.DoubleValue
2.026

@<SCITEGIC>MOL_PROPERTY
Valence
SciTegic.value.DoubleValue
2.822

@<SCITEGIC>MOL_PROPERTY
Coulomb
SciTegic.value.DoubleValue
6.637

@<SCITEGIC>MOL_PROPERTY
VdW
SciTegic.value.DoubleValue
0.785

@<SCITEGIC>MOL_PROPERTY
VdW6
SciTegic.value.DoubleValue
-5.216

@<SCITEGIC>MOL_PROPERTY
VdW12
SciTegic.value.DoubleValue
6.001

@<SCITEGIC>MOL_PROPERTY
Bond
SciTegic.value.DoubleValue
0.080

@<SCITEGIC>MOL_PROPERTY
Angle
SciTegic.value.DoubleValue
2.678

@<SCITEGIC>MOL_PROPERTY
Pdih
SciTegic.value.DoubleValue
0.064

@<SCITEGIC>MOL_PROPERTY
Idih
SciTegic.value.DoubleValue
0.000

@<SCITEGIC>MOL_PROPERTY
Tether
SciTegic.value.DoubleValue
0.000

@<TRIPOS>MOLECULE
guest-s19_confgen4.mol2 : confsearch ligand conformer 197
          17          16           1
SMALL
USER_CHARGES
 
@<TRIPOS>ATOM
       1    C1      17.518468   20.695443   23.576223 C.2        1 MOL1         0.6173
       2    O1      16.314472   20.578779   23.455863 O.co2      1 MOL1        -0.6755
       3    O2      18.035257   21.605736   24.196458 O.co2      1 MOL1        -0.6755
       4    C2      18.377002   19.666794   22.928949 C.2        1 MOL1        -0.1504
       5    H1      17.852110   18.880915   22.390626 H          1 MOL1         0.0814
       6    C3      19.728466   19.672371   22.979914 C.2        1 MOL1        -0.1394
       7    H2      20.264581   20.456324   23.514490 H          1 MOL1         0.0817
       8    C4      20.594335   18.623549   22.316978 C.3        1 MOL1        -0.1849
       9    H3      20.126996   17.634177   22.414678 H          1 MOL1         0.0736
      10    H4      21.561575   18.564650   22.834051 H          1 MOL1         0.0736
      11    C5      20.824776   18.945458   20.826245 C.3        1 MOL1        -0.1866
      12    H5      19.858122   19.000593   20.306534 H          1 MOL1         0.0738
      13    H6      21.294117   19.934527   20.731220 H          1 MOL1         0.0738
      14    C6      21.714390   17.885940   20.145412 C.3        1 MOL1        -0.2879
      15    H7      22.699994   17.832612   20.626215 H          1 MOL1         0.0750
      16    H8      21.252197   16.891503   20.199357 H          1 MOL1         0.0750
      17    H9      21.866893   18.131664   19.086406 H          1 MOL1         0.0750
@<TRIPOS>BOND
    1     1     2    1
    2     1     3    2
    3     1     4    1
    4     4     5    1
    5     4     6    2
    6     6     7    1
    7     6     8    1
    8     8     9    1
    9     8    10    1
   10     8    11    1
   11    11    12    1
   12    11    13    1
   13    11    14    1
   14    14    15    1
   15    14    16    1
   16    14    17    1
@<TRIPOS>SUBSTRUCTURE
       1 MOL1            1 RESIDUE      1      MOL     
@<SCITEGIC>MOL_PROPERTY
VConf Rank
SciTegic.value.IntegerValue
197

@<SCITEGIC>MOL_PROPERTY
Conf_Id
SciTegic.value.IntegerValue
36

@<SCITEGIC>MOL_PROPERTY
Delta U+W
SciTegic.value.DoubleValue
0.000

@<SCITEGIC>MOL_PROPERTY
U+W
SciTegic.value.DoubleValue
-53.409

@<SCITEGIC>MOL_PROPERTY
Grad RMS
SciTegic.value.DoubleValue
0.000000

@<SCITEGIC>MOL_PROPERTY
U
SciTegic.value.DoubleValue
9.048

@<SCITEGIC>MOL_PROPERTY
W
SciTegic.value.DoubleValue
-62.457

@<SCITEGIC>MOL_PROPERTY
W(PB)
SciTegic.value.DoubleValue
-64.540

@<SCITEGIC>MOL_PROPERTY
W(SA)
SciTegic.value.DoubleValue
2.084

@<SCITEGIC>MOL_PROPERTY
Valence
SciTegic.value.DoubleValue
2.652

@<SCITEGIC>MOL_PROPERTY
Coulomb
SciTegic.value.DoubleValue
5.578

@<SCITEGIC>MOL_PROPERTY
VdW
SciTegic.value.DoubleValue
0.818

@<SCITEGIC>MOL_PROPERTY
VdW6
SciTegic.value.DoubleValue
-4.534

@<SCITEGIC>MOL_PROPERTY
VdW12
SciTegic.value.DoubleValue
5.352

@<SCITEGIC>MOL_PROPERTY
Bond
SciTegic.value.DoubleValue
0.063

@<SCITEGIC>MOL_PROPERTY
Angle
SciTegic.value.DoubleValue
2.579

@<SCITEGIC>MOL_PROPERTY
Pdih
SciTegic.value.DoubleValue
0.010

@<SCITEGIC>MOL_PROPERTY
Idih
SciTegic.value.DoubleValue
0.000

@<SCITEGIC>MOL_PROPERTY
Tether
SciTegic.value.DoubleValue
0.000

@<TRIPOS>MOLECULE
guest-s19_confgen4.mol2 : confsearch ligand conformer 198
          17          16           1
SMALL
USER_CHARGES
 
@<TRIPOS>ATOM
       1    C1      20.639847   17.181605   24.621298 C.2        1 MOL1         0.6173
       2    O1      21.479948   17.766280   25.279158 O.co2      1 MOL1        -0.6755
       3    O2      20.303895   16.035574   24.848135 O.co2      1 MOL1        -0.6755
       4    C2      19.979553   17.879528   23.485042 C.2        1 MOL1        -0.1504
       5    H1      19.238414   17.300666   22.938654 H          1 MOL1         0.0814
       6    C3      20.255428   19.151996   23.119249 C.2        1 MOL1        -0.1394
       7    H2      20.997753   19.740284   23.658363 H          1 MOL1         0.0817
       8    C4      19.580617   19.853832   21.961106 C.3        1 MOL1        -0.1849
       9    H3      19.613932   20.940194   22.119523 H          1 MOL1         0.0736
      10    H4      18.518460   19.576281   21.921162 H          1 MOL1         0.0736
      11    C5      20.260111   19.506655   20.620668 C.3        1 MOL1        -0.1866
      12    H5      21.321786   19.787151   20.662313 H          1 MOL1         0.0738
      13    H6      20.224009   18.420372   20.458662 H          1 MOL1         0.0738
      14    C6      19.583811   20.225490   19.436008 C.3        1 MOL1        -0.2879
      15    H7      19.633931   21.315539   19.557307 H          1 MOL1         0.0750
      16    H8      20.080509   19.966468   18.491906 H          1 MOL1         0.0750
      17    H9      18.527487   19.937818   19.353190 H          1 MOL1         0.0750
@<TRIPOS>BOND
    1     1     2    1
    2     1     3    2
    3     1     4    1
    4     4     5    1
    5     4     6    2
    6     6     7    1
    7     6     8    1
    8     8     9    1
    9     8    10    1
   10     8    11    1
   11    11    12    1
   12    11    13    1
   13    11    14    1
   14    14    15    1
   15    14    16    1
   16    14    17    1
@<TRIPOS>SUBSTRUCTURE
       1 MOL1            1 RESIDUE      1      MOL     
@<SCITEGIC>MOL_PROPERTY
VConf Rank
SciTegic.value.IntegerValue
198

@<SCITEGIC>MOL_PROPERTY
Conf_Id
SciTegic.value.IntegerValue
1

@<SCITEGIC>MOL_PROPERTY
Delta U+W
SciTegic.value.DoubleValue
0.030

@<SCITEGIC>MOL_PROPERTY
U+W
SciTegic.value.DoubleValue
-53.378

@<SCITEGIC>MOL_PROPERTY
Grad RMS
SciTegic.value.DoubleValue
0.000000

@<SCITEGIC>MOL_PROPERTY
U
SciTegic.value.DoubleValue
9.048

@<SCITEGIC>MOL_PROPERTY
W
SciTegic.value.DoubleValue
-62.426

@<SCITEGIC>MOL_PROPERTY
W(PB)
SciTegic.value.DoubleValue
-64.506

@<SCITEGIC>MOL_PROPERTY
W(SA)
SciTegic.value.DoubleValue
2.080

@<SCITEGIC>MOL_PROPERTY
Valence
SciTegic.value.DoubleValue
2.652

@<SCITEGIC>MOL_PROPERTY
Coulomb
SciTegic.value.DoubleValue
5.578

@<SCITEGIC>MOL_PROPERTY
VdW
SciTegic.value.DoubleValue
0.818

@<SCITEGIC>MOL_PROPERTY
VdW6
SciTegic.value.DoubleValue
-4.535

@<SCITEGIC>MOL_PROPERTY
VdW12
SciTegic.value.DoubleValue
5.352

@<SCITEGIC>MOL_PROPERTY
Bond
SciTegic.value.DoubleValue
0.063

@<SCITEGIC>MOL_PROPERTY
Angle
SciTegic.value.DoubleValue
2.579

@<SCITEGIC>MOL_PROPERTY
Pdih
SciTegic.value.DoubleValue
0.010

@<SCITEGIC>MOL_PROPERTY
Idih
SciTegic.value.DoubleValue
0.000

@<SCITEGIC>MOL_PROPERTY
Tether
SciTegic.value.DoubleValue
0.000

@<TRIPOS>MOLECULE
guest-s19_confgen4.mol2 : confsearch ligand conformer 199
          17          16           1
SMALL
USER_CHARGES
 
@<TRIPOS>ATOM
       1    C1      22.959816   19.986155   21.875696 C.2        1 MOL1         0.6173
       2    O1      23.419206   19.422018   22.850965 O.co2      1 MOL1        -0.6755
       3    O2      23.655353   20.449537   20.992907 O.co2      1 MOL1        -0.6755
       4    C2      21.485443   20.130802   21.736435 C.2        1 MOL1        -0.1504
       5    H1      21.141295   20.645576   20.842382 H          1 MOL1         0.0814
       6    C3      20.593706   19.663378   22.639378 C.2        1 MOL1        -0.1394
       7    H2      20.927436   19.143175   23.536936 H          1 MOL1         0.0817
       8    C4      19.094168   19.810929   22.488947 C.3        1 MOL1        -0.1849
       9    H3      18.859670   20.811087   22.100076 H          1 MOL1         0.0736
      10    H4      18.612302   19.744602   23.473680 H          1 MOL1         0.0736
      11    C5      18.490641   18.746857   21.546044 C.3        1 MOL1        -0.1866
      12    H5      17.425106   18.966210   21.392183 H          1 MOL1         0.0738
      13    H6      18.970006   18.811587   20.559410 H          1 MOL1         0.0738
      14    C6      18.635634   17.313959   22.101466 C.3        1 MOL1        -0.2879
      15    H7      18.152213   17.222405   23.082825 H          1 MOL1         0.0750
      16    H8      18.167373   16.588280   21.423949 H          1 MOL1         0.0750
      17    H9      19.692189   17.037241   22.212554 H          1 MOL1         0.0750
@<TRIPOS>BOND
    1     1     2    1
    2     1     3    2
    3     1     4    1
    4     4     5    1
    5     4     6    2
    6     6     7    1
    7     6     8    1
    8     8     9    1
    9     8    10    1
   10     8    11    1
   11    11    12    1
   12    11    13    1
   13    11    14    1
   14    14    15    1
   15    14    16    1
   16    14    17    1
@<TRIPOS>SUBSTRUCTURE
       1 MOL1            1 RESIDUE      1      MOL     
@<SCITEGIC>MOL_PROPERTY
VConf Rank
SciTegic.value.IntegerValue
199

@<SCITEGIC>MOL_PROPERTY
Conf_Id
SciTegic.value.IntegerValue
3

@<SCITEGIC>MOL_PROPERTY
Delta U+W
SciTegic.value.DoubleValue
0.531

@<SCITEGIC>MOL_PROPERTY
U+W
SciTegic.value.DoubleValue
-52.878

@<SCITEGIC>MOL_PROPERTY
Grad RMS
SciTegic.value.DoubleValue
0.000000

@<SCITEGIC>MOL_PROPERTY
U
SciTegic.value.DoubleValue
10.067

@<SCITEGIC>MOL_PROPERTY
W
SciTegic.value.DoubleValue
-62.945

@<SCITEGIC>MOL_PROPERTY
W(PB)
SciTegic.value.DoubleValue
-64.982

@<SCITEGIC>MOL_PROPERTY
W(SA)
SciTegic.value.DoubleValue
2.037

@<SCITEGIC>MOL_PROPERTY
Valence
SciTegic.value.DoubleValue
2.779

@<SCITEGIC>MOL_PROPERTY
Coulomb
SciTegic.value.DoubleValue
6.474

@<SCITEGIC>MOL_PROPERTY
VdW
SciTegic.value.DoubleValue
0.815

@<SCITEGIC>MOL_PROPERTY
VdW6
SciTegic.value.DoubleValue
-5.088

@<SCITEGIC>MOL_PROPERTY
VdW12
SciTegic.value.DoubleValue
5.902

@<SCITEGIC>MOL_PROPERTY
Bond
SciTegic.value.DoubleValue
0.078

@<SCITEGIC>MOL_PROPERTY
Angle
SciTegic.value.DoubleValue
2.651

@<SCITEGIC>MOL_PROPERTY
Pdih
SciTegic.value.DoubleValue
0.050

@<SCITEGIC>MOL_PROPERTY
Idih
SciTegic.value.DoubleValue
0.000

@<SCITEGIC>MOL_PROPERTY
Tether
SciTegic.value.DoubleValue
0.000

@<TRIPOS>MOLECULE
guest-s19_confgen4.mol2 : confsearch ligand conformer 200
          17          16           1
SMALL
USER_CHARGES
 
@<TRIPOS>ATOM
       1    C1      19.217265   20.978350   19.838042 C.2        1 MOL1         0.6173
       2    O1      18.135211   21.163488   19.315872 O.co2      1 MOL1        -0.6755
       3    O2      20.268723   21.271219   19.300351 O.co2      1 MOL1        -0.6755
       4    C2      19.230158   20.368681   21.195323 C.2        1 MOL1        -0.1504
       5    H1      18.256404   20.131612   21.617587 H          1 MOL1         0.0814
       6    C3      20.359023   20.104605   21.892110 C.2        1 MOL1        -0.1394
       7    H2      21.338892   20.335578   21.474945 H          1 MOL1         0.0817
       8    C4      20.369025   19.481318   23.272599 C.3        1 MOL1        -0.1849
       9    H3      19.378198   19.561728   23.740078 H          1 MOL1         0.0736
      10    H4      21.056783   20.046263   23.915899 H          1 MOL1         0.0736
      11    C5      20.810982   18.001773   23.244521 C.3        1 MOL1        -0.1866
      12    H5      21.800932   17.920135   22.774634 H          1 MOL1         0.0738
      13    H6      20.922778   17.641419   24.276434 H          1 MOL1         0.0738
      14    C6      19.806045   17.095710   22.501566 C.3        1 MOL1        -0.2879
      15    H7      19.715895   17.385771   21.446677 H          1 MOL1         0.0750
      16    H8      20.132335   16.048216   22.535561 H          1 MOL1         0.0750
      17    H9      18.810228   17.155857   22.959631 H          1 MOL1         0.0750
@<TRIPOS>BOND
    1     1     2    1
    2     1     3    2
    3     1     4    1
    4     4     5    1
    5     4     6    2
    6     6     7    1
    7     6     8    1
    8     8     9    1
    9     8    10    1
   10     8    11    1
   11    11    12    1
   12    11    13    1
   13    11    14    1
   14    14    15    1
   15    14    16    1
   16    14    17    1
@<TRIPOS>SUBSTRUCTURE
       1 MOL1            1 RESIDUE      1      MOL     
@<SCITEGIC>MOL_PROPERTY
VConf Rank
SciTegic.value.IntegerValue
200

@<SCITEGIC>MOL_PROPERTY
Conf_Id
SciTegic.value.IntegerValue
45

@<SCITEGIC>MOL_PROPERTY
Delta U+W
SciTegic.value.DoubleValue
0.562

@<SCITEGIC>MOL_PROPERTY
U+W
SciTegic.value.DoubleValue
-52.846

@<SCITEGIC>MOL_PROPERTY
Grad RMS
SciTegic.value.DoubleValue
0.000000

@<SCITEGIC>MOL_PROPERTY
U
SciTegic.value.DoubleValue
10.243

@<SCITEGIC>MOL_PROPERTY
W
SciTegic.value.DoubleValue
-63.089

@<SCITEGIC>MOL_PROPERTY
W(PB)
SciTegic.value.DoubleValue
-65.116

@<SCITEGIC>MOL_PROPERTY
W(SA)
SciTegic.value.DoubleValue
2.026

@<SCITEGIC>MOL_PROPERTY
Valence
SciTegic.value.DoubleValue
2.822

@<SCITEGIC>MOL_PROPERTY
Coulomb
SciTegic.value.DoubleValue
6.637

@<SCITEGIC>MOL_PROPERTY
VdW
SciTegic.value.DoubleValue
0.785

@<SCITEGIC>MOL_PROPERTY
VdW6
SciTegic.value.DoubleValue
-5.216

@<SCITEGIC>MOL_PROPERTY
VdW12
SciTegic.value.DoubleValue
6.001

@<SCITEGIC>MOL_PROPERTY
Bond
SciTegic.value.DoubleValue
0.080

@<SCITEGIC>MOL_PROPERTY
Angle
SciTegic.value.DoubleValue
2.678

@<SCITEGIC>MOL_PROPERTY
Pdih
SciTegic.value.DoubleValue
0.064

@<SCITEGIC>MOL_PROPERTY
Idih
SciTegic.value.DoubleValue
0.000

@<SCITEGIC>MOL_PROPERTY
Tether
SciTegic.value.DoubleValue
0.000

@<TRIPOS>MOLECULE
guest-s19_confgen4.mol2 : confsearch ligand conformer 201
          17          16           1
SMALL
USER_CHARGES
 
@<TRIPOS>ATOM
       1    C1      20.010269   20.875274   19.034506 C.2        1 MOL1         0.6173
       2    O1      20.138843   22.072034   18.864396 O.co2      1 MOL1        -0.6755
       3    O2      19.631654   20.120417   18.158586 O.co2      1 MOL1        -0.6755
       4    C2      20.337722   20.333136   20.380991 C.2        1 MOL1        -0.1504
       5    H1      20.670112   21.060955   21.117676 H          1 MOL1         0.0814
       6    C3      20.239760   19.025290   20.711182 C.2        1 MOL1        -0.1394
       7    H2      19.905533   18.287942   19.981535 H          1 MOL1         0.0817
       8    C4      20.572686   18.482420   22.083658 C.3        1 MOL1        -0.1849
       9    H3      21.450462   19.002742   22.490577 H          1 MOL1         0.0736
      10    H4      20.847572   17.422078   22.003035 H          1 MOL1         0.0736
      11    C5      19.381974   18.634720   23.052174 C.3        1 MOL1        -0.1866
      12    H5      19.108356   19.695597   23.137221 H          1 MOL1         0.0738
      13    H6      18.505896   18.111785   22.644013 H          1 MOL1         0.0738
      14    C6      19.710062   18.075067   24.450985 C.3        1 MOL1        -0.2879
      15    H7      19.956568   17.006448   24.398820 H          1 MOL1         0.0750
      16    H8      20.564398   18.602869   24.894798 H          1 MOL1         0.0750
      17    H9      18.851884   18.192264   25.125467 H          1 MOL1         0.0750
@<TRIPOS>BOND
    1     1     2    1
    2     1     3    2
    3     1     4    1
    4     4     5    1
    5     4     6    2
    6     6     7    1
    7     6     8    1
    8     8     9    1
    9     8    10    1
   10     8    11    1
   11    11    12    1
   12    11    13    1
   13    11    14    1
   14    14    15    1
   15    14    16    1
   16    14    17    1
@<TRIPOS>SUBSTRUCTURE
       1 MOL1            1 RESIDUE      1      MOL     
@<SCITEGIC>MOL_PROPERTY
VConf Rank
SciTegic.value.IntegerValue
201

@<SCITEGIC>MOL_PROPERTY
Conf_Id
SciTegic.value.IntegerValue
36

@<SCITEGIC>MOL_PROPERTY
Delta U+W
SciTegic.value.DoubleValue
0.000

@<SCITEGIC>MOL_PROPERTY
U+W
SciTegic.value.DoubleValue
-53.409

@<SCITEGIC>MOL_PROPERTY
Grad RMS
SciTegic.value.DoubleValue
0.000000

@<SCITEGIC>MOL_PROPERTY
U
SciTegic.value.DoubleValue
9.048

@<SCITEGIC>MOL_PROPERTY
W
SciTegic.value.DoubleValue
-62.457

@<SCITEGIC>MOL_PROPERTY
W(PB)
SciTegic.value.DoubleValue
-64.540

@<SCITEGIC>MOL_PROPERTY
W(SA)
SciTegic.value.DoubleValue
2.084

@<SCITEGIC>MOL_PROPERTY
Valence
SciTegic.value.DoubleValue
2.652

@<SCITEGIC>MOL_PROPERTY
Coulomb
SciTegic.value.DoubleValue
5.578

@<SCITEGIC>MOL_PROPERTY
VdW
SciTegic.value.DoubleValue
0.818

@<SCITEGIC>MOL_PROPERTY
VdW6
SciTegic.value.DoubleValue
-4.534

@<SCITEGIC>MOL_PROPERTY
VdW12
SciTegic.value.DoubleValue
5.352

@<SCITEGIC>MOL_PROPERTY
Bond
SciTegic.value.DoubleValue
0.063

@<SCITEGIC>MOL_PROPERTY
Angle
SciTegic.value.DoubleValue
2.579

@<SCITEGIC>MOL_PROPERTY
Pdih
SciTegic.value.DoubleValue
0.010

@<SCITEGIC>MOL_PROPERTY
Idih
SciTegic.value.DoubleValue
0.000

@<SCITEGIC>MOL_PROPERTY
Tether
SciTegic.value.DoubleValue
0.000

@<TRIPOS>MOLECULE
guest-s19_confgen4.mol2 : confsearch ligand conformer 202
          17          16           1
SMALL
USER_CHARGES
 
@<TRIPOS>ATOM
       1    C1      17.533712   16.815158   21.725409 C.2        1 MOL1         0.6173
       2    O1      17.431142   16.313604   22.829183 O.co2      1 MOL1        -0.6755
       3    O2      16.967918   16.373219   20.744453 O.co2      1 MOL1        -0.6755
       4    C2      18.382142   18.023966   21.543446 C.2        1 MOL1        -0.1504
       5    H1      18.430584   18.421994   20.532439 H          1 MOL1         0.0814
       6    C3      19.068557   18.620683   22.544371 C.2        1 MOL1        -0.1394
       7    H2      19.028846   18.228946   23.560608 H          1 MOL1         0.0817
       8    C4      19.930717   19.848817   22.350443 C.3        1 MOL1        -0.1849
       9    H3      20.014675   20.393063   23.300777 H          1 MOL1         0.0736
      10    H4      19.452104   20.535066   21.638546 H          1 MOL1         0.0736
      11    C5      21.338584   19.472936   21.844831 C.3        1 MOL1        -0.1866
      12    H5      21.816057   18.788276   22.559552 H          1 MOL1         0.0738
      13    H6      21.256593   18.931860   20.891902 H          1 MOL1         0.0738
      14    C6      22.226715   20.718775   21.653430 C.3        1 MOL1        -0.2879
      15    H7      22.351344   21.261680   22.599554 H          1 MOL1         0.0750
      16    H8      23.223371   20.431676   21.293734 H          1 MOL1         0.0750
      17    H9      21.786429   21.406013   20.919067 H          1 MOL1         0.0750
@<TRIPOS>BOND
    1     1     2    1
    2     1     3    2
    3     1     4    1
    4     4     5    1
    5     4     6    2
    6     6     7    1
    7     6     8    1
    8     8     9    1
    9     8    10    1
   10     8    11    1
   11    11    12    1
   12    11    13    1
   13    11    14    1
   14    14    15    1
   15    14    16    1
   16    14    17    1
@<TRIPOS>SUBSTRUCTURE
       1 MOL1            1 RESIDUE      1      MOL     
@<SCITEGIC>MOL_PROPERTY
VConf Rank
SciTegic.value.IntegerValue
202

@<SCITEGIC>MOL_PROPERTY
Conf_Id
SciTegic.value.IntegerValue
1

@<SCITEGIC>MOL_PROPERTY
Delta U+W
SciTegic.value.DoubleValue
0.030

@<SCITEGIC>MOL_PROPERTY
U+W
SciTegic.value.DoubleValue
-53.378

@<SCITEGIC>MOL_PROPERTY
Grad RMS
SciTegic.value.DoubleValue
0.000000

@<SCITEGIC>MOL_PROPERTY
U
SciTegic.value.DoubleValue
9.048

@<SCITEGIC>MOL_PROPERTY
W
SciTegic.value.DoubleValue
-62.426

@<SCITEGIC>MOL_PROPERTY
W(PB)
SciTegic.value.DoubleValue
-64.506

@<SCITEGIC>MOL_PROPERTY
W(SA)
SciTegic.value.DoubleValue
2.080

@<SCITEGIC>MOL_PROPERTY
Valence
SciTegic.value.DoubleValue
2.652

@<SCITEGIC>MOL_PROPERTY
Coulomb
SciTegic.value.DoubleValue
5.578

@<SCITEGIC>MOL_PROPERTY
VdW
SciTegic.value.DoubleValue
0.818

@<SCITEGIC>MOL_PROPERTY
VdW6
SciTegic.value.DoubleValue
-4.535

@<SCITEGIC>MOL_PROPERTY
VdW12
SciTegic.value.DoubleValue
5.352

@<SCITEGIC>MOL_PROPERTY
Bond
SciTegic.value.DoubleValue
0.063

@<SCITEGIC>MOL_PROPERTY
Angle
SciTegic.value.DoubleValue
2.579

@<SCITEGIC>MOL_PROPERTY
Pdih
SciTegic.value.DoubleValue
0.010

@<SCITEGIC>MOL_PROPERTY
Idih
SciTegic.value.DoubleValue
0.000

@<SCITEGIC>MOL_PROPERTY
Tether
SciTegic.value.DoubleValue
0.000

@<TRIPOS>MOLECULE
guest-s19_confgen4.mol2 : confsearch ligand conformer 203
          17          16           1
SMALL
USER_CHARGES
 
@<TRIPOS>ATOM
       1    C1      22.029181   19.270168   24.377636 C.2        1 MOL1         0.6173
       2    O1      21.947248   20.454153   24.645793 O.co2      1 MOL1        -0.6755
       3    O2      22.539388   18.458178   25.124744 O.co2      1 MOL1        -0.6755
       4    C2      21.491813   18.770466   23.083177 C.2        1 MOL1        -0.1504
       5    H1      21.597907   17.702770   22.905612 H          1 MOL1         0.0814
       6    C3      20.898218   19.559236   22.158799 C.2        1 MOL1        -0.1394
       7    H2      20.783666   20.629690   22.327930 H          1 MOL1         0.0817
       8    C4      20.350123   19.042809   20.845061 C.3        1 MOL1        -0.1849
       9    H3      21.039650   18.297628   20.425795 H          1 MOL1         0.0736
      10    H4      20.301882   19.860871   20.113801 H          1 MOL1         0.0736
      11    C5      18.951340   18.406766   21.001323 C.3        1 MOL1        -0.1866
      12    H5      18.651815   17.958139   20.044154 H          1 MOL1         0.0738
      13    H6      18.996689   17.586955   21.731584 H          1 MOL1         0.0738
      14    C6      17.881063   19.430922   21.435286 C.3        1 MOL1        -0.2879
      15    H7      17.809318   20.254076   20.712503 H          1 MOL1         0.0750
      16    H8      16.895182   18.953169   21.503840 H          1 MOL1         0.0750
      17    H9      18.117074   19.857803   22.418796 H          1 MOL1         0.0750
@<TRIPOS>BOND
    1     1     2    1
    2     1     3    2
    3     1     4    1
    4     4     5    1
    5     4     6    2
    6     6     7    1
    7     6     8    1
    8     8     9    1
    9     8    10    1
   10     8    11    1
   11    11    12    1
   12    11    13    1
   13    11    14    1
   14    14    15    1
   15    14    16    1
   16    14    17    1
@<TRIPOS>SUBSTRUCTURE
       1 MOL1            1 RESIDUE      1      MOL     
@<SCITEGIC>MOL_PROPERTY
VConf Rank
SciTegic.value.IntegerValue
203

@<SCITEGIC>MOL_PROPERTY
Conf_Id
SciTegic.value.IntegerValue
3

@<SCITEGIC>MOL_PROPERTY
Delta U+W
SciTegic.value.DoubleValue
0.531

@<SCITEGIC>MOL_PROPERTY
U+W
SciTegic.value.DoubleValue
-52.878

@<SCITEGIC>MOL_PROPERTY
Grad RMS
SciTegic.value.DoubleValue
0.000000

@<SCITEGIC>MOL_PROPERTY
U
SciTegic.value.DoubleValue
10.067

@<SCITEGIC>MOL_PROPERTY
W
SciTegic.value.DoubleValue
-62.945

@<SCITEGIC>MOL_PROPERTY
W(PB)
SciTegic.value.DoubleValue
-64.982

@<SCITEGIC>MOL_PROPERTY
W(SA)
SciTegic.value.DoubleValue
2.037

@<SCITEGIC>MOL_PROPERTY
Valence
SciTegic.value.DoubleValue
2.779

@<SCITEGIC>MOL_PROPERTY
Coulomb
SciTegic.value.DoubleValue
6.474

@<SCITEGIC>MOL_PROPERTY
VdW
SciTegic.value.DoubleValue
0.815

@<SCITEGIC>MOL_PROPERTY
VdW6
SciTegic.value.DoubleValue
-5.088

@<SCITEGIC>MOL_PROPERTY
VdW12
SciTegic.value.DoubleValue
5.902

@<SCITEGIC>MOL_PROPERTY
Bond
SciTegic.value.DoubleValue
0.078

@<SCITEGIC>MOL_PROPERTY
Angle
SciTegic.value.DoubleValue
2.651

@<SCITEGIC>MOL_PROPERTY
Pdih
SciTegic.value.DoubleValue
0.050

@<SCITEGIC>MOL_PROPERTY
Idih
SciTegic.value.DoubleValue
0.000

@<SCITEGIC>MOL_PROPERTY
Tether
SciTegic.value.DoubleValue
0.000

@<TRIPOS>MOLECULE
guest-s19_confgen4.mol2 : confsearch ligand conformer 204
          17          16           1
SMALL
USER_CHARGES
 
@<TRIPOS>ATOM
       1    C1      18.868724   18.142190   24.717322 C.2        1 MOL1         0.6173
       2    O1      18.296937   17.103754   24.986563 O.co2      1 MOL1        -0.6755
       3    O2      18.779173   19.142590   25.404074 O.co2      1 MOL1        -0.6755
       4    C2      19.711435   18.164897   23.491192 C.2        1 MOL1        -0.1504
       5    H1      19.747599   17.237819   22.923809 H          1 MOL1         0.0814
       6    C3      20.400737   19.250026   23.070546 C.2        1 MOL1        -0.1394
       7    H2      20.367101   20.183952   23.631054 H          1 MOL1         0.0817
       8    C4      21.255625   19.270867   21.820319 C.3        1 MOL1        -0.1849
       9    H3      21.484291   18.247978   21.491456 H          1 MOL1         0.0736
      10    H4      22.220990   19.739319   22.054051 H          1 MOL1         0.0736
      11    C5      20.587384   20.049772   20.666227 C.3        1 MOL1        -0.1866
      12    H5      20.355897   21.072338   20.995209 H          1 MOL1         0.0738
      13    H6      21.300522   20.141320   19.835413 H          1 MOL1         0.0738
      14    C6      19.302693   19.364898   20.153052 C.3        1 MOL1        -0.2879
      15    H7      18.539709   19.313112   20.940597 H          1 MOL1         0.0750
      16    H8      18.877745   19.923998   19.309433 H          1 MOL1         0.0750
      17    H9      19.512316   18.342890   19.811514 H          1 MOL1         0.0750
@<TRIPOS>BOND
    1     1     2    1
    2     1     3    2
    3     1     4    1
    4     4     5    1
    5     4     6    2
    6     6     7    1
    7     6     8    1
    8     8     9    1
    9     8    10    1
   10     8    11    1
   11    11    12    1
   12    11    13    1
   13    11    14    1
   14    14    15    1
   15    14    16    1
   16    14    17    1
@<TRIPOS>SUBSTRUCTURE
       1 MOL1            1 RESIDUE      1      MOL     
@<SCITEGIC>MOL_PROPERTY
VConf Rank
SciTegic.value.IntegerValue
204

@<SCITEGIC>MOL_PROPERTY
Conf_Id
SciTegic.value.IntegerValue
45

@<SCITEGIC>MOL_PROPERTY
Delta U+W
SciTegic.value.DoubleValue
0.562

@<SCITEGIC>MOL_PROPERTY
U+W
SciTegic.value.DoubleValue
-52.846

@<SCITEGIC>MOL_PROPERTY
Grad RMS
SciTegic.value.DoubleValue
0.000000

@<SCITEGIC>MOL_PROPERTY
U
SciTegic.value.DoubleValue
10.243

@<SCITEGIC>MOL_PROPERTY
W
SciTegic.value.DoubleValue
-63.089

@<SCITEGIC>MOL_PROPERTY
W(PB)
SciTegic.value.DoubleValue
-65.116

@<SCITEGIC>MOL_PROPERTY
W(SA)
SciTegic.value.DoubleValue
2.026

@<SCITEGIC>MOL_PROPERTY
Valence
SciTegic.value.DoubleValue
2.822

@<SCITEGIC>MOL_PROPERTY
Coulomb
SciTegic.value.DoubleValue
6.637

@<SCITEGIC>MOL_PROPERTY
VdW
SciTegic.value.DoubleValue
0.785

@<SCITEGIC>MOL_PROPERTY
VdW6
SciTegic.value.DoubleValue
-5.216

@<SCITEGIC>MOL_PROPERTY
VdW12
SciTegic.value.DoubleValue
6.001

@<SCITEGIC>MOL_PROPERTY
Bond
SciTegic.value.DoubleValue
0.080

@<SCITEGIC>MOL_PROPERTY
Angle
SciTegic.value.DoubleValue
2.678

@<SCITEGIC>MOL_PROPERTY
Pdih
SciTegic.value.DoubleValue
0.064

@<SCITEGIC>MOL_PROPERTY
Idih
SciTegic.value.DoubleValue
0.000

@<SCITEGIC>MOL_PROPERTY
Tether
SciTegic.value.DoubleValue
0.000

@<TRIPOS>MOLECULE
guest-s19_confgen4.mol2 : confsearch ligand conformer 205
          17          16           1
SMALL
USER_CHARGES
 
@<TRIPOS>ATOM
       1    C1      16.633132   18.936132   21.678537 C.2        1 MOL1         0.6173
       2    O1      15.946817   18.530358   20.760919 O.co2      1 MOL1        -0.6755
       3    O2      16.179781   19.571899   22.611632 O.co2      1 MOL1        -0.6755
       4    C2      18.088307   18.628043   21.637195 C.2        1 MOL1        -0.1504
       5    H1      18.428197   18.056740   20.776383 H          1 MOL1         0.0814
       6    C3      18.968356   19.016817   22.587697 C.2        1 MOL1        -0.1394
       7    H2      18.638982   19.591596   23.453095 H          1 MOL1         0.0817
       8    C4      20.447219   18.701175   22.536983 C.3        1 MOL1        -0.1849
       9    H3      20.601538   17.687054   22.143849 H          1 MOL1         0.0736
      10    H4      20.859841   18.707829   23.554866 H          1 MOL1         0.0736
      11    C5      21.209479   19.719297   21.664401 C.3        1 MOL1        -0.1866
      12    H5      20.800601   19.710868   20.644446 H          1 MOL1         0.0738
      13    H6      21.055274   20.732549   22.060773 H          1 MOL1         0.0738
      14    C6      22.719261   19.410004   21.615203 C.3        1 MOL1        -0.2879
      15    H7      23.160203   19.443381   22.620135 H          1 MOL1         0.0750
      16    H8      22.902488   18.413122   21.193194 H          1 MOL1         0.0750
      17    H9      23.244275   20.144171   20.990311 H          1 MOL1         0.0750
@<TRIPOS>BOND
    1     1     2    1
    2     1     3    2
    3     1     4    1
    4     4     5    1
    5     4     6    2
    6     6     7    1
    7     6     8    1
    8     8     9    1
    9     8    10    1
   10     8    11    1
   11    11    12    1
   12    11    13    1
   13    11    14    1
   14    14    15    1
   15    14    16    1
   16    14    17    1
@<TRIPOS>SUBSTRUCTURE
       1 MOL1            1 RESIDUE      1      MOL     
@<SCITEGIC>MOL_PROPERTY
VConf Rank
SciTegic.value.IntegerValue
205

@<SCITEGIC>MOL_PROPERTY
Conf_Id
SciTegic.value.IntegerValue
36

@<SCITEGIC>MOL_PROPERTY
Delta U+W
SciTegic.value.DoubleValue
0.000

@<SCITEGIC>MOL_PROPERTY
U+W
SciTegic.value.DoubleValue
-53.409

@<SCITEGIC>MOL_PROPERTY
Grad RMS
SciTegic.value.DoubleValue
0.000000

@<SCITEGIC>MOL_PROPERTY
U
SciTegic.value.DoubleValue
9.048

@<SCITEGIC>MOL_PROPERTY
W
SciTegic.value.DoubleValue
-62.457

@<SCITEGIC>MOL_PROPERTY
W(PB)
SciTegic.value.DoubleValue
-64.540

@<SCITEGIC>MOL_PROPERTY
W(SA)
SciTegic.value.DoubleValue
2.084

@<SCITEGIC>MOL_PROPERTY
Valence
SciTegic.value.DoubleValue
2.652

@<SCITEGIC>MOL_PROPERTY
Coulomb
SciTegic.value.DoubleValue
5.578

@<SCITEGIC>MOL_PROPERTY
VdW
SciTegic.value.DoubleValue
0.818

@<SCITEGIC>MOL_PROPERTY
VdW6
SciTegic.value.DoubleValue
-4.534

@<SCITEGIC>MOL_PROPERTY
VdW12
SciTegic.value.DoubleValue
5.352

@<SCITEGIC>MOL_PROPERTY
Bond
SciTegic.value.DoubleValue
0.063

@<SCITEGIC>MOL_PROPERTY
Angle
SciTegic.value.DoubleValue
2.579

@<SCITEGIC>MOL_PROPERTY
Pdih
SciTegic.value.DoubleValue
0.010

@<SCITEGIC>MOL_PROPERTY
Idih
SciTegic.value.DoubleValue
0.000

@<SCITEGIC>MOL_PROPERTY
Tether
SciTegic.value.DoubleValue
0.000

@<TRIPOS>MOLECULE
guest-s19_confgen4.mol2 : confsearch ligand conformer 206
          17          16           1
SMALL
USER_CHARGES
 
@<TRIPOS>ATOM
       1    C1      22.570321   17.221934   23.071763 C.2        1 MOL1         0.6173
       2    O1      22.233369   16.058004   22.961645 O.co2      1 MOL1        -0.6755
       3    O2      23.558034   17.567422   23.690444 O.co2      1 MOL1        -0.6755
       4    C2      21.754427   18.287199   22.428576 C.2        1 MOL1        -0.1504
       5    H1      22.110722   19.305648   22.565418 H          1 MOL1         0.0814
       6    C3      20.632497   18.048200   21.712170 C.2        1 MOL1        -0.1394
       7    H2      20.265391   17.031845   21.570647 H          1 MOL1         0.0817
       8    C4      19.807405   19.137597   21.062802 C.3        1 MOL1        -0.1849
       9    H3      19.250020   18.720014   20.213489 H          1 MOL1         0.0736
      10    H4      20.467137   19.914097   20.652184 H          1 MOL1         0.0736
      11    C5      18.821474   19.769633   22.066539 C.3        1 MOL1        -0.1866
      12    H5      18.161326   18.991440   22.474199 H          1 MOL1         0.0738
      13    H6      19.377883   20.191577   22.915027 H          1 MOL1         0.0738
      14    C6      17.970091   20.874851   21.409908 C.3        1 MOL1        -0.2879
      15    H7      17.378525   20.472605   20.577034 H          1 MOL1         0.0750
      16    H8      17.275361   21.312240   22.138724 H          1 MOL1         0.0750
      17    H9      18.605508   21.681427   21.021174 H          1 MOL1         0.0750
@<TRIPOS>BOND
    1     1     2    1
    2     1     3    2
    3     1     4    1
    4     4     5    1
    5     4     6    2
    6     6     7    1
    7     6     8    1
    8     8     9    1
    9     8    10    1
   10     8    11    1
   11    11    12    1
   12    11    13    1
   13    11    14    1
   14    14    15    1
   15    14    16    1
   16    14    17    1
@<TRIPOS>SUBSTRUCTURE
       1 MOL1            1 RESIDUE      1      MOL     
@<SCITEGIC>MOL_PROPERTY
VConf Rank
SciTegic.value.IntegerValue
206

@<SCITEGIC>MOL_PROPERTY
Conf_Id
SciTegic.value.IntegerValue
1

@<SCITEGIC>MOL_PROPERTY
Delta U+W
SciTegic.value.DoubleValue
0.030

@<SCITEGIC>MOL_PROPERTY
U+W
SciTegic.value.DoubleValue
-53.378

@<SCITEGIC>MOL_PROPERTY
Grad RMS
SciTegic.value.DoubleValue
0.000000

@<SCITEGIC>MOL_PROPERTY
U
SciTegic.value.DoubleValue
9.048

@<SCITEGIC>MOL_PROPERTY
W
SciTegic.value.DoubleValue
-62.426

@<SCITEGIC>MOL_PROPERTY
W(PB)
SciTegic.value.DoubleValue
-64.506

@<SCITEGIC>MOL_PROPERTY
W(SA)
SciTegic.value.DoubleValue
2.080

@<SCITEGIC>MOL_PROPERTY
Valence
SciTegic.value.DoubleValue
2.652

@<SCITEGIC>MOL_PROPERTY
Coulomb
SciTegic.value.DoubleValue
5.578

@<SCITEGIC>MOL_PROPERTY
VdW
SciTegic.value.DoubleValue
0.818

@<SCITEGIC>MOL_PROPERTY
VdW6
SciTegic.value.DoubleValue
-4.535

@<SCITEGIC>MOL_PROPERTY
VdW12
SciTegic.value.DoubleValue
5.352

@<SCITEGIC>MOL_PROPERTY
Bond
SciTegic.value.DoubleValue
0.063

@<SCITEGIC>MOL_PROPERTY
Angle
SciTegic.value.DoubleValue
2.579

@<SCITEGIC>MOL_PROPERTY
Pdih
SciTegic.value.DoubleValue
0.010

@<SCITEGIC>MOL_PROPERTY
Idih
SciTegic.value.DoubleValue
0.000

@<SCITEGIC>MOL_PROPERTY
Tether
SciTegic.value.DoubleValue
0.000

@<TRIPOS>MOLECULE
guest-s19_confgen4.mol2 : confsearch ligand conformer 207
          17          16           1
SMALL
USER_CHARGES
 
@<TRIPOS>ATOM
       1    C1      20.110263   16.120531   22.878760 C.2        1 MOL1         0.6173
       2    O1      18.945968   15.809479   22.711111 O.co2      1 MOL1        -0.6755
       3    O2      21.000071   15.302148   23.006441 O.co2      1 MOL1        -0.6755
       4    C2      20.486006   17.559108   22.937114 C.2        1 MOL1        -0.1504
       5    H1      21.542295   17.768034   23.089963 H          1 MOL1         0.0814
       6    C3      19.602100   18.574676   22.809368 C.2        1 MOL1        -0.1394
       7    H2      18.542005   18.376697   22.652524 H          1 MOL1         0.0817
       8    C4      19.992539   20.036650   22.865964 C.3        1 MOL1        -0.1849
       9    H3      20.741447   20.187570   23.655195 H          1 MOL1         0.0736
      10    H4      19.122554   20.644252   23.149233 H          1 MOL1         0.0736
      11    C5      20.562386   20.545099   21.523461 C.3        1 MOL1        -0.1866
      12    H5      20.924271   21.574296   21.653641 H          1 MOL1         0.0738
      13    H6      21.433886   19.939778   21.237975 H          1 MOL1         0.0738
      14    C6      19.516304   20.517912   20.388699 C.3        1 MOL1        -0.2879
      15    H7      18.640600   21.127397   20.647189 H          1 MOL1         0.0750
      16    H8      19.944289   20.916342   19.459727 H          1 MOL1         0.0750
      17    H9      19.174573   19.493828   20.189466 H          1 MOL1         0.0750
@<TRIPOS>BOND
    1     1     2    1
    2     1     3    2
    3     1     4    1
    4     4     5    1
    5     4     6    2
    6     6     7    1
    7     6     8    1
    8     8     9    1
    9     8    10    1
   10     8    11    1
   11    11    12    1
   12    11    13    1
   13    11    14    1
   14    14    15    1
   15    14    16    1
   16    14    17    1
@<TRIPOS>SUBSTRUCTURE
       1 MOL1            1 RESIDUE      1      MOL     
@<SCITEGIC>MOL_PROPERTY
VConf Rank
SciTegic.value.IntegerValue
207

@<SCITEGIC>MOL_PROPERTY
Conf_Id
SciTegic.value.IntegerValue
3

@<SCITEGIC>MOL_PROPERTY
Delta U+W
SciTegic.value.DoubleValue
0.531

@<SCITEGIC>MOL_PROPERTY
U+W
SciTegic.value.DoubleValue
-52.878

@<SCITEGIC>MOL_PROPERTY
Grad RMS
SciTegic.value.DoubleValue
0.000000

@<SCITEGIC>MOL_PROPERTY
U
SciTegic.value.DoubleValue
10.067

@<SCITEGIC>MOL_PROPERTY
W
SciTegic.value.DoubleValue
-62.945

@<SCITEGIC>MOL_PROPERTY
W(PB)
SciTegic.value.DoubleValue
-64.982

@<SCITEGIC>MOL_PROPERTY
W(SA)
SciTegic.value.DoubleValue
2.037

@<SCITEGIC>MOL_PROPERTY
Valence
SciTegic.value.DoubleValue
2.779

@<SCITEGIC>MOL_PROPERTY
Coulomb
SciTegic.value.DoubleValue
6.474

@<SCITEGIC>MOL_PROPERTY
VdW
SciTegic.value.DoubleValue
0.815

@<SCITEGIC>MOL_PROPERTY
VdW6
SciTegic.value.DoubleValue
-5.088

@<SCITEGIC>MOL_PROPERTY
VdW12
SciTegic.value.DoubleValue
5.902

@<SCITEGIC>MOL_PROPERTY
Bond
SciTegic.value.DoubleValue
0.078

@<SCITEGIC>MOL_PROPERTY
Angle
SciTegic.value.DoubleValue
2.651

@<SCITEGIC>MOL_PROPERTY
Pdih
SciTegic.value.DoubleValue
0.050

@<SCITEGIC>MOL_PROPERTY
Idih
SciTegic.value.DoubleValue
0.000

@<SCITEGIC>MOL_PROPERTY
Tether
SciTegic.value.DoubleValue
0.000

@<TRIPOS>MOLECULE
guest-s19_confgen4.mol2 : confsearch ligand conformer 208
          17          16           1
SMALL
USER_CHARGES
 
@<TRIPOS>ATOM
       1    C1      17.966933   21.129295   23.055302 C.2        1 MOL1         0.6173
       2    O1      18.141961   22.268450   23.441915 O.co2      1 MOL1        -0.6755
       3    O2      16.974259   20.482855   23.333083 O.co2      1 MOL1        -0.6755
       4    C2      19.025546   20.522070   22.204015 C.2        1 MOL1        -0.1504
       5    H1      19.885345   21.154052   21.994133 H          1 MOL1         0.0814
       6    C3      18.964183   19.265678   21.706725 C.2        1 MOL1        -0.1394
       7    H2      18.108068   18.624480   21.915174 H          1 MOL1         0.0817
       8    C4      20.044811   18.649316   20.842620 C.3        1 MOL1        -0.1849
       9    H3      20.701762   19.427856   20.431485 H          1 MOL1         0.0736
      10    H4      19.576541   18.157902   19.979344 H          1 MOL1         0.0736
      11    C5      20.889723   17.610803   21.612544 C.3        1 MOL1        -0.1866
      12    H5      20.233016   16.833040   22.026401 H          1 MOL1         0.0738
      13    H6      21.567414   17.107626   20.909162 H          1 MOL1         0.0738
      14    C6      21.722773   18.245872   22.746363 C.3        1 MOL1        -0.2879
      15    H7      21.075019   18.704289   23.504863 H          1 MOL1         0.0750
      16    H8      22.338752   17.486294   23.244838 H          1 MOL1         0.0750
      17    H9      22.392775   19.021844   22.353862 H          1 MOL1         0.0750
@<TRIPOS>BOND
    1     1     2    1
    2     1     3    2
    3     1     4    1
    4     4     5    1
    5     4     6    2
    6     6     7    1
    7     6     8    1
    8     8     9    1
    9     8    10    1
   10     8    11    1
   11    11    12    1
   12    11    13    1
   13    11    14    1
   14    14    15    1
   15    14    16    1
   16    14    17    1
@<TRIPOS>SUBSTRUCTURE
       1 MOL1            1 RESIDUE      1      MOL     
@<SCITEGIC>MOL_PROPERTY
VConf Rank
SciTegic.value.IntegerValue
208

@<SCITEGIC>MOL_PROPERTY
Conf_Id
SciTegic.value.IntegerValue
45

@<SCITEGIC>MOL_PROPERTY
Delta U+W
SciTegic.value.DoubleValue
0.562

@<SCITEGIC>MOL_PROPERTY
U+W
SciTegic.value.DoubleValue
-52.846

@<SCITEGIC>MOL_PROPERTY
Grad RMS
SciTegic.value.DoubleValue
0.000000

@<SCITEGIC>MOL_PROPERTY
U
SciTegic.value.DoubleValue
10.243

@<SCITEGIC>MOL_PROPERTY
W
SciTegic.value.DoubleValue
-63.089

@<SCITEGIC>MOL_PROPERTY
W(PB)
SciTegic.value.DoubleValue
-65.116

@<SCITEGIC>MOL_PROPERTY
W(SA)
SciTegic.value.DoubleValue
2.026

@<SCITEGIC>MOL_PROPERTY
Valence
SciTegic.value.DoubleValue
2.822

@<SCITEGIC>MOL_PROPERTY
Coulomb
SciTegic.value.DoubleValue
6.637

@<SCITEGIC>MOL_PROPERTY
VdW
SciTegic.value.DoubleValue
0.785

@<SCITEGIC>MOL_PROPERTY
VdW6
SciTegic.value.DoubleValue
-5.216

@<SCITEGIC>MOL_PROPERTY
VdW12
SciTegic.value.DoubleValue
6.001

@<SCITEGIC>MOL_PROPERTY
Bond
SciTegic.value.DoubleValue
0.080

@<SCITEGIC>MOL_PROPERTY
Angle
SciTegic.value.DoubleValue
2.678

@<SCITEGIC>MOL_PROPERTY
Pdih
SciTegic.value.DoubleValue
0.064

@<SCITEGIC>MOL_PROPERTY
Idih
SciTegic.value.DoubleValue
0.000

@<SCITEGIC>MOL_PROPERTY
Tether
SciTegic.value.DoubleValue
0.000

@<TRIPOS>MOLECULE
guest-s19_confgen4.mol2 : confsearch ligand conformer 209
          17          16           1
SMALL
USER_CHARGES
 
@<TRIPOS>ATOM
       1    C1      17.677060   17.437958   20.126864 C.2        1 MOL1         0.6173
       2    O1      17.714230   17.074982   18.967308 O.co2      1 MOL1        -0.6755
       3    O2      16.654664   17.438484   20.786485 O.co2      1 MOL1        -0.6755
       4    C2      18.950720   17.895949   20.745084 C.2        1 MOL1        -0.1504
       5    H1      19.826897   17.870406   20.101213 H          1 MOL1         0.0814
       6    C3      19.056162   18.327097   22.022612 C.2        1 MOL1        -0.1394
       7    H2      18.184244   18.359026   22.675692 H          1 MOL1         0.0817
       8    C4      20.355002   18.793283   22.643035 C.3        1 MOL1        -0.1849
       9    H3      21.185594   18.166221   22.291299 H          1 MOL1         0.0736
      10    H4      20.308068   18.667042   23.733103 H          1 MOL1         0.0736
      11    C5      20.639849   20.271312   22.306424 C.3        1 MOL1        -0.1866
      12    H5      20.691299   20.398566   21.216140 H          1 MOL1         0.0738
      13    H6      19.808725   20.896673   22.661001 H          1 MOL1         0.0738
      14    C6      21.957547   20.756984   22.943073 C.3        1 MOL1        -0.2879
      15    H7      21.920853   20.670296   24.036952 H          1 MOL1         0.0750
      16    H8      22.809723   20.167161   22.580664 H          1 MOL1         0.0750
      17    H9      22.143113   21.809597   22.692669 H          1 MOL1         0.0750
@<TRIPOS>BOND
    1     1     2    1
    2     1     3    2
    3     1     4    1
    4     4     5    1
    5     4     6    2
    6     6     7    1
    7     6     8    1
    8     8     9    1
    9     8    10    1
   10     8    11    1
   11    11    12    1
   12    11    13    1
   13    11    14    1
   14    14    15    1
   15    14    16    1
   16    14    17    1
@<TRIPOS>SUBSTRUCTURE
       1 MOL1            1 RESIDUE      1      MOL     
@<SCITEGIC>MOL_PROPERTY
VConf Rank
SciTegic.value.IntegerValue
209

@<SCITEGIC>MOL_PROPERTY
Conf_Id
SciTegic.value.IntegerValue
36

@<SCITEGIC>MOL_PROPERTY
Delta U+W
SciTegic.value.DoubleValue
0.000

@<SCITEGIC>MOL_PROPERTY
U+W
SciTegic.value.DoubleValue
-53.409

@<SCITEGIC>MOL_PROPERTY
Grad RMS
SciTegic.value.DoubleValue
0.000000

@<SCITEGIC>MOL_PROPERTY
U
SciTegic.value.DoubleValue
9.048

@<SCITEGIC>MOL_PROPERTY
W
SciTegic.value.DoubleValue
-62.457

@<SCITEGIC>MOL_PROPERTY
W(PB)
SciTegic.value.DoubleValue
-64.540

@<SCITEGIC>MOL_PROPERTY
W(SA)
SciTegic.value.DoubleValue
2.084

@<SCITEGIC>MOL_PROPERTY
Valence
SciTegic.value.DoubleValue
2.652

@<SCITEGIC>MOL_PROPERTY
Coulomb
SciTegic.value.DoubleValue
5.578

@<SCITEGIC>MOL_PROPERTY
VdW
SciTegic.value.DoubleValue
0.818

@<SCITEGIC>MOL_PROPERTY
VdW6
SciTegic.value.DoubleValue
-4.534

@<SCITEGIC>MOL_PROPERTY
VdW12
SciTegic.value.DoubleValue
5.352

@<SCITEGIC>MOL_PROPERTY
Bond
SciTegic.value.DoubleValue
0.063

@<SCITEGIC>MOL_PROPERTY
Angle
SciTegic.value.DoubleValue
2.579

@<SCITEGIC>MOL_PROPERTY
Pdih
SciTegic.value.DoubleValue
0.010

@<SCITEGIC>MOL_PROPERTY
Idih
SciTegic.value.DoubleValue
0.000

@<SCITEGIC>MOL_PROPERTY
Tether
SciTegic.value.DoubleValue
0.000

@<TRIPOS>MOLECULE
guest-s19_confgen4.mol2 : confsearch ligand conformer 210
          17          16           1
SMALL
USER_CHARGES
 
@<TRIPOS>ATOM
       1    C1      17.052685   18.156173   20.598547 C.2        1 MOL1         0.6173
       2    O1      16.263980   19.052932   20.831274 O.co2      1 MOL1        -0.6755
       3    O2      16.711187   17.072370   20.166742 O.co2      1 MOL1        -0.6755
       4    C2      18.504348   18.372159   20.843872 C.2        1 MOL1        -0.1504
       5    H1      19.154656   17.530935   20.615071 H          1 MOL1         0.0814
       6    C3      19.024514   19.525164   21.322511 C.2        1 MOL1        -0.1394
       7    H2      18.381846   20.373514   21.557144 H          1 MOL1         0.0817
       8    C4      20.502037   19.735980   21.570948 C.3        1 MOL1        -0.1849
       9    H3      20.733941   20.808445   21.521680 H          1 MOL1         0.0736
      10    H4      21.088909   19.252609   20.778017 H          1 MOL1         0.0736
      11    C5      20.925860   19.178907   22.945379 C.3        1 MOL1        -0.1866
      12    H5      20.339059   19.665419   23.736921 H          1 MOL1         0.0738
      13    H6      20.698256   18.104984   22.994833 H          1 MOL1         0.0738
      14    C6      22.428958   19.398203   23.210198 C.3        1 MOL1        -0.2879
      15    H7      22.678307   20.467362   23.197787 H          1 MOL1         0.0750
      16    H8      22.711474   18.995798   24.191719 H          1 MOL1         0.0750
      17    H9      23.039474   18.894777   22.449101 H          1 MOL1         0.0750
@<TRIPOS>BOND
    1     1     2    1
    2     1     3    2
    3     1     4    1
    4     4     5    1
    5     4     6    2
    6     6     7    1
    7     6     8    1
    8     8     9    1
    9     8    10    1
   10     8    11    1
   11    11    12    1
   12    11    13    1
   13    11    14    1
   14    14    15    1
   15    14    16    1
   16    14    17    1
@<TRIPOS>SUBSTRUCTURE
       1 MOL1            1 RESIDUE      1      MOL     
@<SCITEGIC>MOL_PROPERTY
VConf Rank
SciTegic.value.IntegerValue
210

@<SCITEGIC>MOL_PROPERTY
Conf_Id
SciTegic.value.IntegerValue
1

@<SCITEGIC>MOL_PROPERTY
Delta U+W
SciTegic.value.DoubleValue
0.030

@<SCITEGIC>MOL_PROPERTY
U+W
SciTegic.value.DoubleValue
-53.378

@<SCITEGIC>MOL_PROPERTY
Grad RMS
SciTegic.value.DoubleValue
0.000000

@<SCITEGIC>MOL_PROPERTY
U
SciTegic.value.DoubleValue
9.048

@<SCITEGIC>MOL_PROPERTY
W
SciTegic.value.DoubleValue
-62.426

@<SCITEGIC>MOL_PROPERTY
W(PB)
SciTegic.value.DoubleValue
-64.506

@<SCITEGIC>MOL_PROPERTY
W(SA)
SciTegic.value.DoubleValue
2.080

@<SCITEGIC>MOL_PROPERTY
Valence
SciTegic.value.DoubleValue
2.652

@<SCITEGIC>MOL_PROPERTY
Coulomb
SciTegic.value.DoubleValue
5.578

@<SCITEGIC>MOL_PROPERTY
VdW
SciTegic.value.DoubleValue
0.818

@<SCITEGIC>MOL_PROPERTY
VdW6
SciTegic.value.DoubleValue
-4.535

@<SCITEGIC>MOL_PROPERTY
VdW12
SciTegic.value.DoubleValue
5.352

@<SCITEGIC>MOL_PROPERTY
Bond
SciTegic.value.DoubleValue
0.063

@<SCITEGIC>MOL_PROPERTY
Angle
SciTegic.value.DoubleValue
2.579

@<SCITEGIC>MOL_PROPERTY
Pdih
SciTegic.value.DoubleValue
0.010

@<SCITEGIC>MOL_PROPERTY
Idih
SciTegic.value.DoubleValue
0.000

@<SCITEGIC>MOL_PROPERTY
Tether
SciTegic.value.DoubleValue
0.000

@<TRIPOS>MOLECULE
guest-s19_confgen4.mol2 : confsearch ligand conformer 211
          17          16           1
SMALL
USER_CHARGES
 
@<TRIPOS>ATOM
       1    C1      21.832079   19.442889   19.584979 C.2        1 MOL1         0.6173
       2    O1      21.923288   20.655778   19.553005 O.co2      1 MOL1        -0.6755
       3    O2      22.578070   18.708568   18.966853 O.co2      1 MOL1        -0.6755
       4    C2      20.766862   18.806967   20.406567 C.2        1 MOL1        -0.1504
       5    H1      20.740237   17.719866   20.390374 H          1 MOL1         0.0814
       6    C3      19.869923   19.499576   21.144660 C.2        1 MOL1        -0.1394
       7    H2      19.889671   20.588854   21.170765 H          1 MOL1         0.0817
       8    C4      18.790839   18.845236   21.981577 C.3        1 MOL1        -0.1849
       9    H3      18.362424   17.996263   21.431821 H          1 MOL1         0.0736
      10    H4      17.965953   19.551729   22.145058 H          1 MOL1         0.0736
      11    C5      19.323523   18.349244   23.343855 C.3        1 MOL1        -0.1866
      12    H5      18.528452   17.793306   23.859556 H          1 MOL1         0.0738
      13    H6      20.148299   17.641109   23.183490 H          1 MOL1         0.0738
      14    C6      19.799522   19.505309   24.249201 C.3        1 MOL1        -0.2879
      15    H7      18.986784   20.219872   24.433599 H          1 MOL1         0.0750
      16    H8      20.139353   19.120720   25.219517 H          1 MOL1         0.0750
      17    H9      20.636277   20.048514   23.790954 H          1 MOL1         0.0750
@<TRIPOS>BOND
    1     1     2    1
    2     1     3    2
    3     1     4    1
    4     4     5    1
    5     4     6    2
    6     6     7    1
    7     6     8    1
    8     8     9    1
    9     8    10    1
   10     8    11    1
   11    11    12    1
   12    11    13    1
   13    11    14    1
   14    14    15    1
   15    14    16    1
   16    14    17    1
@<TRIPOS>SUBSTRUCTURE
       1 MOL1            1 RESIDUE      1      MOL     
@<SCITEGIC>MOL_PROPERTY
VConf Rank
SciTegic.value.IntegerValue
211

@<SCITEGIC>MOL_PROPERTY
Conf_Id
SciTegic.value.IntegerValue
3

@<SCITEGIC>MOL_PROPERTY
Delta U+W
SciTegic.value.DoubleValue
0.531

@<SCITEGIC>MOL_PROPERTY
U+W
SciTegic.value.DoubleValue
-52.878

@<SCITEGIC>MOL_PROPERTY
Grad RMS
SciTegic.value.DoubleValue
0.000000

@<SCITEGIC>MOL_PROPERTY
U
SciTegic.value.DoubleValue
10.067

@<SCITEGIC>MOL_PROPERTY
W
SciTegic.value.DoubleValue
-62.945

@<SCITEGIC>MOL_PROPERTY
W(PB)
SciTegic.value.DoubleValue
-64.982

@<SCITEGIC>MOL_PROPERTY
W(SA)
SciTegic.value.DoubleValue
2.037

@<SCITEGIC>MOL_PROPERTY
Valence
SciTegic.value.DoubleValue
2.779

@<SCITEGIC>MOL_PROPERTY
Coulomb
SciTegic.value.DoubleValue
6.474

@<SCITEGIC>MOL_PROPERTY
VdW
SciTegic.value.DoubleValue
0.815

@<SCITEGIC>MOL_PROPERTY
VdW6
SciTegic.value.DoubleValue
-5.088

@<SCITEGIC>MOL_PROPERTY
VdW12
SciTegic.value.DoubleValue
5.902

@<SCITEGIC>MOL_PROPERTY
Bond
SciTegic.value.DoubleValue
0.078

@<SCITEGIC>MOL_PROPERTY
Angle
SciTegic.value.DoubleValue
2.651

@<SCITEGIC>MOL_PROPERTY
Pdih
SciTegic.value.DoubleValue
0.050

@<SCITEGIC>MOL_PROPERTY
Idih
SciTegic.value.DoubleValue
0.000

@<SCITEGIC>MOL_PROPERTY
Tether
SciTegic.value.DoubleValue
0.000

@<TRIPOS>MOLECULE
guest-s19_confgen4.mol2 : confsearch ligand conformer 212
          17          16           1
SMALL
USER_CHARGES
 
@<TRIPOS>ATOM
       1    C1      22.422516   20.628387   21.182029 C.2        1 MOL1         0.6173
       2    O1      23.187376   20.398480   20.265562 O.co2      1 MOL1        -0.6755
       3    O2      22.719223   21.332512   22.128930 O.co2      1 MOL1        -0.6755
       4    C2      21.069198   20.013092   21.118653 C.2        1 MOL1        -0.1504
       5    H1      20.869732   19.395741   20.245843 H          1 MOL1         0.0814
       6    C3      20.119862   20.181035   22.067410 C.2        1 MOL1        -0.1394
       7    H2      20.312662   20.794947   22.946875 H          1 MOL1         0.0817
       8    C4      18.743955   19.551066   22.001423 C.3        1 MOL1        -0.1849
       9    H3      18.520576   19.216908   20.979083 H          1 MOL1         0.0736
      10    H4      17.989772   20.311002   22.245787 H          1 MOL1         0.0736
      11    C5      18.594848   18.364968   22.979230 C.3        1 MOL1        -0.1866
      12    H5      18.820707   18.697761   24.001823 H          1 MOL1         0.0738
      13    H6      17.547826   18.031896   22.981706 H          1 MOL1         0.0738
      14    C6      19.501229   17.171800   22.608212 C.3        1 MOL1        -0.2879
      15    H7      20.562057   17.449728   22.657758 H          1 MOL1         0.0750
      16    H8      19.340226   16.334922   23.300006 H          1 MOL1         0.0750
      17    H9      19.287114   16.817477   21.591501 H          1 MOL1         0.0750
@<TRIPOS>BOND
    1     1     2    1
    2     1     3    2
    3     1     4    1
    4     4     5    1
    5     4     6    2
    6     6     7    1
    7     6     8    1
    8     8     9    1
    9     8    10    1
   10     8    11    1
   11    11    12    1
   12    11    13    1
   13    11    14    1
   14    14    15    1
   15    14    16    1
   16    14    17    1
@<TRIPOS>SUBSTRUCTURE
       1 MOL1            1 RESIDUE      1      MOL     
@<SCITEGIC>MOL_PROPERTY
VConf Rank
SciTegic.value.IntegerValue
212

@<SCITEGIC>MOL_PROPERTY
Conf_Id
SciTegic.value.IntegerValue
45

@<SCITEGIC>MOL_PROPERTY
Delta U+W
SciTegic.value.DoubleValue
0.562

@<SCITEGIC>MOL_PROPERTY
U+W
SciTegic.value.DoubleValue
-52.846

@<SCITEGIC>MOL_PROPERTY
Grad RMS
SciTegic.value.DoubleValue
0.000000

@<SCITEGIC>MOL_PROPERTY
U
SciTegic.value.DoubleValue
10.243

@<SCITEGIC>MOL_PROPERTY
W
SciTegic.value.DoubleValue
-63.089

@<SCITEGIC>MOL_PROPERTY
W(PB)
SciTegic.value.DoubleValue
-65.116

@<SCITEGIC>MOL_PROPERTY
W(SA)
SciTegic.value.DoubleValue
2.026

@<SCITEGIC>MOL_PROPERTY
Valence
SciTegic.value.DoubleValue
2.822

@<SCITEGIC>MOL_PROPERTY
Coulomb
SciTegic.value.DoubleValue
6.637

@<SCITEGIC>MOL_PROPERTY
VdW
SciTegic.value.DoubleValue
0.785

@<SCITEGIC>MOL_PROPERTY
VdW6
SciTegic.value.DoubleValue
-5.216

@<SCITEGIC>MOL_PROPERTY
VdW12
SciTegic.value.DoubleValue
6.001

@<SCITEGIC>MOL_PROPERTY
Bond
SciTegic.value.DoubleValue
0.080

@<SCITEGIC>MOL_PROPERTY
Angle
SciTegic.value.DoubleValue
2.678

@<SCITEGIC>MOL_PROPERTY
Pdih
SciTegic.value.DoubleValue
0.064

@<SCITEGIC>MOL_PROPERTY
Idih
SciTegic.value.DoubleValue
0.000

@<SCITEGIC>MOL_PROPERTY
Tether
SciTegic.value.DoubleValue
0.000

@<TRIPOS>MOLECULE
guest-s19_confgen4.mol2 : confsearch ligand conformer 213
          17          16           1
SMALL
USER_CHARGES
 
@<TRIPOS>ATOM
       1    C1      22.174113   20.272830   19.614132 C.2        1 MOL1         0.6173
       2    O1      22.198378   21.348792   19.048959 O.co2      1 MOL1        -0.6755
       3    O2      22.843191   19.322406   19.254377 O.co2      1 MOL1        -0.6755
       4    C2      21.280314   20.137042   20.796015 C.2        1 MOL1        -0.1504
       5    H1      20.710266   21.023597   21.064294 H          1 MOL1         0.0814
       6    C3      21.152798   19.000549   21.517962 C.2        1 MOL1        -0.1394
       7    H2      21.717417   18.105773   21.256514 H          1 MOL1         0.0817
       8    C4      20.239812   18.870156   22.717417 C.3        1 MOL1        -0.1849
       9    H3      20.257405   19.797919   23.305426 H          1 MOL1         0.0736
      10    H4      20.611178   18.074751   23.377573 H          1 MOL1         0.0736
      11    C5      18.792350   18.552219   22.289888 C.3        1 MOL1        -0.1866
      12    H5      18.417786   19.349276   21.632650 H          1 MOL1         0.0738
      13    H6      18.777074   17.622853   21.703702 H          1 MOL1         0.0738
      14    C6      17.857158   18.408384   23.507367 C.3        1 MOL1        -0.2879
      15    H7      18.191304   17.595794   24.165755 H          1 MOL1         0.0750
      16    H8      17.830427   19.336088   24.093956 H          1 MOL1         0.0750
      17    H9      16.832779   18.182607   23.183633 H          1 MOL1         0.0750
@<TRIPOS>BOND
    1     1     2    1
    2     1     3    2
    3     1     4    1
    4     4     5    1
    5     4     6    2
    6     6     7    1
    7     6     8    1
    8     8     9    1
    9     8    10    1
   10     8    11    1
   11    11    12    1
   12    11    13    1
   13    11    14    1
   14    14    15    1
   15    14    16    1
   16    14    17    1
@<TRIPOS>SUBSTRUCTURE
       1 MOL1            1 RESIDUE      1      MOL     
@<SCITEGIC>MOL_PROPERTY
VConf Rank
SciTegic.value.IntegerValue
213

@<SCITEGIC>MOL_PROPERTY
Conf_Id
SciTegic.value.IntegerValue
36

@<SCITEGIC>MOL_PROPERTY
Delta U+W
SciTegic.value.DoubleValue
0.000

@<SCITEGIC>MOL_PROPERTY
U+W
SciTegic.value.DoubleValue
-53.409

@<SCITEGIC>MOL_PROPERTY
Grad RMS
SciTegic.value.DoubleValue
0.000000

@<SCITEGIC>MOL_PROPERTY
U
SciTegic.value.DoubleValue
9.048

@<SCITEGIC>MOL_PROPERTY
W
SciTegic.value.DoubleValue
-62.457

@<SCITEGIC>MOL_PROPERTY
W(PB)
SciTegic.value.DoubleValue
-64.540

@<SCITEGIC>MOL_PROPERTY
W(SA)
SciTegic.value.DoubleValue
2.084

@<SCITEGIC>MOL_PROPERTY
Valence
SciTegic.value.DoubleValue
2.652

@<SCITEGIC>MOL_PROPERTY
Coulomb
SciTegic.value.DoubleValue
5.578

@<SCITEGIC>MOL_PROPERTY
VdW
SciTegic.value.DoubleValue
0.818

@<SCITEGIC>MOL_PROPERTY
VdW6
SciTegic.value.DoubleValue
-4.534

@<SCITEGIC>MOL_PROPERTY
VdW12
SciTegic.value.DoubleValue
5.352

@<SCITEGIC>MOL_PROPERTY
Bond
SciTegic.value.DoubleValue
0.063

@<SCITEGIC>MOL_PROPERTY
Angle
SciTegic.value.DoubleValue
2.579

@<SCITEGIC>MOL_PROPERTY
Pdih
SciTegic.value.DoubleValue
0.010

@<SCITEGIC>MOL_PROPERTY
Idih
SciTegic.value.DoubleValue
0.000

@<SCITEGIC>MOL_PROPERTY
Tether
SciTegic.value.DoubleValue
0.000

@<TRIPOS>MOLECULE
guest-s19_confgen4.mol2 : confsearch ligand conformer 214
          17          16           1
SMALL
USER_CHARGES
 
@<TRIPOS>ATOM
       1    C1      21.724971   19.434150   19.026729 C.2        1 MOL1         0.6173
       2    O1      21.995884   20.615024   18.914764 O.co2      1 MOL1        -0.6755
       3    O2      21.881969   18.632701   18.126319 O.co2      1 MOL1        -0.6755
       4    C2      21.177467   18.924527   20.313075 C.2        1 MOL1        -0.1504
       5    H1      20.956906   17.860033   20.346469 H          1 MOL1         0.0814
       6    C3      20.950818   19.701749   21.396423 C.2        1 MOL1        -0.1394
       7    H2      21.166166   20.769859   21.373173 H          1 MOL1         0.0817
       8    C4      20.391972   19.175814   22.700387 C.3        1 MOL1        -0.1849
       9    H3      20.700732   19.832956   23.524535 H          1 MOL1         0.0736
      10    H4      20.812911   18.184438   22.916698 H          1 MOL1         0.0736
      11    C5      18.852556   19.089718   22.657940 C.3        1 MOL1        -0.1866
      12    H5      18.433823   20.082839   22.443602 H          1 MOL1         0.0738
      13    H6      18.542031   18.429283   21.836380 H          1 MOL1         0.0738
      14    C6      18.274458   18.563153   23.986871 C.3        1 MOL1        -0.2879
      15    H7      18.543842   19.223440   24.821666 H          1 MOL1         0.0750
      16    H8      17.179120   18.508933   23.937633 H          1 MOL1         0.0750
      17    H9      18.653864   17.557116   24.209082 H          1 MOL1         0.0750
@<TRIPOS>BOND
    1     1     2    1
    2     1     3    2
    3     1     4    1
    4     4     5    1
    5     4     6    2
    6     6     7    1
    7     6     8    1
    8     8     9    1
    9     8    10    1
   10     8    11    1
   11    11    12    1
   12    11    13    1
   13    11    14    1
   14    14    15    1
   15    14    16    1
   16    14    17    1
@<TRIPOS>SUBSTRUCTURE
       1 MOL1            1 RESIDUE      1      MOL     
@<SCITEGIC>MOL_PROPERTY
VConf Rank
SciTegic.value.IntegerValue
214

@<SCITEGIC>MOL_PROPERTY
Conf_Id
SciTegic.value.IntegerValue
1

@<SCITEGIC>MOL_PROPERTY
Delta U+W
SciTegic.value.DoubleValue
0.030

@<SCITEGIC>MOL_PROPERTY
U+W
SciTegic.value.DoubleValue
-53.378

@<SCITEGIC>MOL_PROPERTY
Grad RMS
SciTegic.value.DoubleValue
0.000000

@<SCITEGIC>MOL_PROPERTY
U
SciTegic.value.DoubleValue
9.048

@<SCITEGIC>MOL_PROPERTY
W
SciTegic.value.DoubleValue
-62.426

@<SCITEGIC>MOL_PROPERTY
W(PB)
SciTegic.value.DoubleValue
-64.506

@<SCITEGIC>MOL_PROPERTY
W(SA)
SciTegic.value.DoubleValue
2.080

@<SCITEGIC>MOL_PROPERTY
Valence
SciTegic.value.DoubleValue
2.652

@<SCITEGIC>MOL_PROPERTY
Coulomb
SciTegic.value.DoubleValue
5.578

@<SCITEGIC>MOL_PROPERTY
VdW
SciTegic.value.DoubleValue
0.818

@<SCITEGIC>MOL_PROPERTY
VdW6
SciTegic.value.DoubleValue
-4.535

@<SCITEGIC>MOL_PROPERTY
VdW12
SciTegic.value.DoubleValue
5.352

@<SCITEGIC>MOL_PROPERTY
Bond
SciTegic.value.DoubleValue
0.063

@<SCITEGIC>MOL_PROPERTY
Angle
SciTegic.value.DoubleValue
2.579

@<SCITEGIC>MOL_PROPERTY
Pdih
SciTegic.value.DoubleValue
0.010

@<SCITEGIC>MOL_PROPERTY
Idih
SciTegic.value.DoubleValue
0.000

@<SCITEGIC>MOL_PROPERTY
Tether
SciTegic.value.DoubleValue
0.000

@<TRIPOS>MOLECULE
guest-s19_confgen4.mol2 : confsearch ligand conformer 215
          17          16           1
SMALL
USER_CHARGES
 
@<TRIPOS>ATOM
       1    C1      20.100885   18.514534   19.023078 C.2        1 MOL1         0.6173
       2    O1      20.306848   19.634230   18.593776 O.co2      1 MOL1        -0.6755
       3    O2      20.254199   17.512211   18.352515 O.co2      1 MOL1        -0.6755
       4    C2      19.637176   18.338634   20.425977 C.2        1 MOL1        -0.1504
       5    H1      19.471127   17.312570   20.745947 H          1 MOL1         0.0814
       6    C3      19.426218   19.362516   21.283968 C.2        1 MOL1        -0.1394
       7    H2      19.592716   20.394188   20.974890 H          1 MOL1         0.0817
       8    C4      18.957889   19.175509   22.711802 C.3        1 MOL1        -0.1849
       9    H3      18.189076   18.391817   22.747589 H          1 MOL1         0.0736
      10    H4      18.474798   20.094840   23.069219 H          1 MOL1         0.0736
      11    C5      20.112963   18.795372   23.664095 C.3        1 MOL1        -0.1866
      12    H5      19.700396   18.570336   24.657222 H          1 MOL1         0.0738
      13    H6      20.597561   17.875046   23.309705 H          1 MOL1         0.0738
      14    C6      21.163800   19.918225   23.796967 C.3        1 MOL1        -0.2879
      15    H7      20.703598   20.845521   24.162315 H          1 MOL1         0.0750
      16    H8      21.950703   19.628427   24.505281 H          1 MOL1         0.0750
      17    H9      21.641603   20.129823   22.831487 H          1 MOL1         0.0750
@<TRIPOS>BOND
    1     1     2    1
    2     1     3    2
    3     1     4    1
    4     4     5    1
    5     4     6    2
    6     6     7    1
    7     6     8    1
    8     8     9    1
    9     8    10    1
   10     8    11    1
   11    11    12    1
   12    11    13    1
   13    11    14    1
   14    14    15    1
   15    14    16    1
   16    14    17    1
@<TRIPOS>SUBSTRUCTURE
       1 MOL1            1 RESIDUE      1      MOL     
@<SCITEGIC>MOL_PROPERTY
VConf Rank
SciTegic.value.IntegerValue
215

@<SCITEGIC>MOL_PROPERTY
Conf_Id
SciTegic.value.IntegerValue
3

@<SCITEGIC>MOL_PROPERTY
Delta U+W
SciTegic.value.DoubleValue
0.531

@<SCITEGIC>MOL_PROPERTY
U+W
SciTegic.value.DoubleValue
-52.878

@<SCITEGIC>MOL_PROPERTY
Grad RMS
SciTegic.value.DoubleValue
0.000000

@<SCITEGIC>MOL_PROPERTY
U
SciTegic.value.DoubleValue
10.067

@<SCITEGIC>MOL_PROPERTY
W
SciTegic.value.DoubleValue
-62.945

@<SCITEGIC>MOL_PROPERTY
W(PB)
SciTegic.value.DoubleValue
-64.982

@<SCITEGIC>MOL_PROPERTY
W(SA)
SciTegic.value.DoubleValue
2.037

@<SCITEGIC>MOL_PROPERTY
Valence
SciTegic.value.DoubleValue
2.779

@<SCITEGIC>MOL_PROPERTY
Coulomb
SciTegic.value.DoubleValue
6.474

@<SCITEGIC>MOL_PROPERTY
VdW
SciTegic.value.DoubleValue
0.815

@<SCITEGIC>MOL_PROPERTY
VdW6
SciTegic.value.DoubleValue
-5.088

@<SCITEGIC>MOL_PROPERTY
VdW12
SciTegic.value.DoubleValue
5.902

@<SCITEGIC>MOL_PROPERTY
Bond
SciTegic.value.DoubleValue
0.078

@<SCITEGIC>MOL_PROPERTY
Angle
SciTegic.value.DoubleValue
2.651

@<SCITEGIC>MOL_PROPERTY
Pdih
SciTegic.value.DoubleValue
0.050

@<SCITEGIC>MOL_PROPERTY
Idih
SciTegic.value.DoubleValue
0.000

@<SCITEGIC>MOL_PROPERTY
Tether
SciTegic.value.DoubleValue
0.000

@<TRIPOS>MOLECULE
guest-s19_confgen4.mol2 : confsearch ligand conformer 216
          17          16           1
SMALL
USER_CHARGES
 
@<TRIPOS>ATOM
       1    C1      17.995859   16.959440   22.859808 C.2        1 MOL1         0.6173
       2    O1      17.183474   16.368192   22.175529 O.co2      1 MOL1        -0.6755
       3    O2      17.905805   17.039636   24.070555 O.co2      1 MOL1        -0.6755
       4    C2      19.143154   17.602078   22.163531 C.2        1 MOL1        -0.1504
       5    H1      19.162841   17.492084   21.081764 H          1 MOL1         0.0814
       6    C3      20.118223   18.292819   22.797330 C.2        1 MOL1        -0.1394
       7    H2      20.104191   18.410966   23.880549 H          1 MOL1         0.0817
       8    C4      21.283509   18.948291   22.085430 C.3        1 MOL1        -0.1849
       9    H3      21.397132   18.538989   21.072364 H          1 MOL1         0.0736
      10    H4      22.212089   18.704968   22.618854 H          1 MOL1         0.0736
      11    C5      21.136286   20.483861   22.011160 C.3        1 MOL1        -0.1866
      12    H5      21.019919   20.893863   23.023987 H          1 MOL1         0.0738
      13    H6      22.061643   20.913362   21.603187 H          1 MOL1         0.0738
      14    C6      19.946820   20.924634   21.131546 C.3        1 MOL1        -0.2879
      15    H7      18.994689   20.567199   21.544753 H          1 MOL1         0.0750
      16    H8      19.896870   22.019444   21.070199 H          1 MOL1         0.0750
      17    H9      20.046374   20.531896   20.111283 H          1 MOL1         0.0750
@<TRIPOS>BOND
    1     1     2    1
    2     1     3    2
    3     1     4    1
    4     4     5    1
    5     4     6    2
    6     6     7    1
    7     6     8    1
    8     8     9    1
    9     8    10    1
   10     8    11    1
   11    11    12    1
   12    11    13    1
   13    11    14    1
   14    14    15    1
   15    14    16    1
   16    14    17    1
@<TRIPOS>SUBSTRUCTURE
       1 MOL1            1 RESIDUE      1      MOL     
@<SCITEGIC>MOL_PROPERTY
VConf Rank
SciTegic.value.IntegerValue
216

@<SCITEGIC>MOL_PROPERTY
Conf_Id
SciTegic.value.IntegerValue
45

@<SCITEGIC>MOL_PROPERTY
Delta U+W
SciTegic.value.DoubleValue
0.562

@<SCITEGIC>MOL_PROPERTY
U+W
SciTegic.value.DoubleValue
-52.846

@<SCITEGIC>MOL_PROPERTY
Grad RMS
SciTegic.value.DoubleValue
0.000000

@<SCITEGIC>MOL_PROPERTY
U
SciTegic.value.DoubleValue
10.243

@<SCITEGIC>MOL_PROPERTY
W
SciTegic.value.DoubleValue
-63.089

@<SCITEGIC>MOL_PROPERTY
W(PB)
SciTegic.value.DoubleValue
-65.116

@<SCITEGIC>MOL_PROPERTY
W(SA)
SciTegic.value.DoubleValue
2.026

@<SCITEGIC>MOL_PROPERTY
Valence
SciTegic.value.DoubleValue
2.822

@<SCITEGIC>MOL_PROPERTY
Coulomb
SciTegic.value.DoubleValue
6.637

@<SCITEGIC>MOL_PROPERTY
VdW
SciTegic.value.DoubleValue
0.785

@<SCITEGIC>MOL_PROPERTY
VdW6
SciTegic.value.DoubleValue
-5.216

@<SCITEGIC>MOL_PROPERTY
VdW12
SciTegic.value.DoubleValue
6.001

@<SCITEGIC>MOL_PROPERTY
Bond
SciTegic.value.DoubleValue
0.080

@<SCITEGIC>MOL_PROPERTY
Angle
SciTegic.value.DoubleValue
2.678

@<SCITEGIC>MOL_PROPERTY
Pdih
SciTegic.value.DoubleValue
0.064

@<SCITEGIC>MOL_PROPERTY
Idih
SciTegic.value.DoubleValue
0.000

@<SCITEGIC>MOL_PROPERTY
Tether
SciTegic.value.DoubleValue
0.000

@<TRIPOS>MOLECULE
guest-s19_confgen4.mol2 : confsearch ligand conformer 217
          17          16           1
SMALL
USER_CHARGES
 
@<TRIPOS>ATOM
       1    C1      22.456374   21.286521   21.134524 C.2        1 MOL1         0.6173
       2    O1      23.556534   21.065748   20.666966 O.co2      1 MOL1        -0.6755
       3    O2      22.147239   22.359350   21.618123 O.co2      1 MOL1        -0.6755
       4    C2      21.460736   20.181190   21.101212 C.2        1 MOL1        -0.1504
       5    H1      21.801018   19.249204   20.655658 H          1 MOL1         0.0814
       6    C3      20.202311   20.285456   21.585547 C.2        1 MOL1        -0.1394
       7    H2      19.851782   21.213818   22.036155 H          1 MOL1         0.0817
       8    C4      19.196533   19.155693   21.549735 C.3        1 MOL1        -0.1849
       9    H3      19.289948   18.599426   20.607052 H          1 MOL1         0.0736
      10    H4      18.178880   19.568466   21.569424 H          1 MOL1         0.0736
      11    C5      19.387231   18.195620   22.741754 C.3        1 MOL1        -0.1866
      12    H5      20.403659   17.778476   22.721135 H          1 MOL1         0.0738
      13    H6      19.291327   18.753887   23.683406 H          1 MOL1         0.0738
      14    C6      18.359641   17.046269   22.717740 C.3        1 MOL1        -0.2879
      15    H7      17.334099   17.434859   22.769628 H          1 MOL1         0.0750
      16    H8      18.455469   16.452776   21.799035 H          1 MOL1         0.0750
      17    H9      18.510969   16.374276   23.572525 H          1 MOL1         0.0750
@<TRIPOS>BOND
    1     1     2    1
    2     1     3    2
    3     1     4    1
    4     4     5    1
    5     4     6    2
    6     6     7    1
    7     6     8    1
    8     8     9    1
    9     8    10    1
   10     8    11    1
   11    11    12    1
   12    11    13    1
   13    11    14    1
   14    14    15    1
   15    14    16    1
   16    14    17    1
@<TRIPOS>SUBSTRUCTURE
       1 MOL1            1 RESIDUE      1      MOL     
@<SCITEGIC>MOL_PROPERTY
VConf Rank
SciTegic.value.IntegerValue
217

@<SCITEGIC>MOL_PROPERTY
Conf_Id
SciTegic.value.IntegerValue
36

@<SCITEGIC>MOL_PROPERTY
Delta U+W
SciTegic.value.DoubleValue
0.000

@<SCITEGIC>MOL_PROPERTY
U+W
SciTegic.value.DoubleValue
-53.409

@<SCITEGIC>MOL_PROPERTY
Grad RMS
SciTegic.value.DoubleValue
0.000000

@<SCITEGIC>MOL_PROPERTY
U
SciTegic.value.DoubleValue
9.048

@<SCITEGIC>MOL_PROPERTY
W
SciTegic.value.DoubleValue
-62.457

@<SCITEGIC>MOL_PROPERTY
W(PB)
SciTegic.value.DoubleValue
-64.540

@<SCITEGIC>MOL_PROPERTY
W(SA)
SciTegic.value.DoubleValue
2.084

@<SCITEGIC>MOL_PROPERTY
Valence
SciTegic.value.DoubleValue
2.652

@<SCITEGIC>MOL_PROPERTY
Coulomb
SciTegic.value.DoubleValue
5.578

@<SCITEGIC>MOL_PROPERTY
VdW
SciTegic.value.DoubleValue
0.818

@<SCITEGIC>MOL_PROPERTY
VdW6
SciTegic.value.DoubleValue
-4.534

@<SCITEGIC>MOL_PROPERTY
VdW12
SciTegic.value.DoubleValue
5.352

@<SCITEGIC>MOL_PROPERTY
Bond
SciTegic.value.DoubleValue
0.063

@<SCITEGIC>MOL_PROPERTY
Angle
SciTegic.value.DoubleValue
2.579

@<SCITEGIC>MOL_PROPERTY
Pdih
SciTegic.value.DoubleValue
0.010

@<SCITEGIC>MOL_PROPERTY
Idih
SciTegic.value.DoubleValue
0.000

@<SCITEGIC>MOL_PROPERTY
Tether
SciTegic.value.DoubleValue
0.000

@<TRIPOS>MOLECULE
guest-s19_confgen4.mol2 : confsearch ligand conformer 218
          17          16           1
SMALL
USER_CHARGES
 
@<TRIPOS>ATOM
       1    C1      19.818393   17.771090   25.010573 C.2        1 MOL1         0.6173
       2    O1      19.054955   16.826116   24.942901 O.co2      1 MOL1        -0.6755
       3    O2      20.218976   18.221695   26.066127 O.co2      1 MOL1        -0.6755
       4    C2      20.297853   18.419510   23.760041 C.2        1 MOL1        -0.1504
       5    H1      20.977963   19.258101   23.890897 H          1 MOL1         0.0814
       6    C3      19.934083   18.024376   22.518820 C.2        1 MOL1        -0.1394
       7    H2      19.251519   17.186781   22.376296 H          1 MOL1         0.0817
       8    C4      20.424872   18.690526   21.252089 C.3        1 MOL1        -0.1849
       9    H3      20.377445   17.976454   20.418879 H          1 MOL1         0.0736
      10    H4      21.480701   18.973512   21.361409 H          1 MOL1         0.0736
      11    C5      19.584232   19.937979   20.911201 C.3        1 MOL1        -0.1866
      12    H5      18.529010   19.652042   20.800231 H          1 MOL1         0.0738
      13    H6      19.633938   20.655297   21.742190 H          1 MOL1         0.0738
      14    C6      20.072398   20.617548   19.616054 C.3        1 MOL1        -0.2879
      15    H7      20.003248   19.931140   18.761951 H          1 MOL1         0.0750
      16    H8      19.462848   21.502129   19.390014 H          1 MOL1         0.0750
      17    H9      21.117057   20.941436   19.712072 H          1 MOL1         0.0750
@<TRIPOS>BOND
    1     1     2    1
    2     1     3    2
    3     1     4    1
    4     4     5    1
    5     4     6    2
    6     6     7    1
    7     6     8    1
    8     8     9    1
    9     8    10    1
   10     8    11    1
   11    11    12    1
   12    11    13    1
   13    11    14    1
   14    14    15    1
   15    14    16    1
   16    14    17    1
@<TRIPOS>SUBSTRUCTURE
       1 MOL1            1 RESIDUE      1      MOL     
@<SCITEGIC>MOL_PROPERTY
VConf Rank
SciTegic.value.IntegerValue
218

@<SCITEGIC>MOL_PROPERTY
Conf_Id
SciTegic.value.IntegerValue
1

@<SCITEGIC>MOL_PROPERTY
Delta U+W
SciTegic.value.DoubleValue
0.030

@<SCITEGIC>MOL_PROPERTY
U+W
SciTegic.value.DoubleValue
-53.378

@<SCITEGIC>MOL_PROPERTY
Grad RMS
SciTegic.value.DoubleValue
0.000000

@<SCITEGIC>MOL_PROPERTY
U
SciTegic.value.DoubleValue
9.048

@<SCITEGIC>MOL_PROPERTY
W
SciTegic.value.DoubleValue
-62.426

@<SCITEGIC>MOL_PROPERTY
W(PB)
SciTegic.value.DoubleValue
-64.506

@<SCITEGIC>MOL_PROPERTY
W(SA)
SciTegic.value.DoubleValue
2.080

@<SCITEGIC>MOL_PROPERTY
Valence
SciTegic.value.DoubleValue
2.652

@<SCITEGIC>MOL_PROPERTY
Coulomb
SciTegic.value.DoubleValue
5.578

@<SCITEGIC>MOL_PROPERTY
VdW
SciTegic.value.DoubleValue
0.818

@<SCITEGIC>MOL_PROPERTY
VdW6
SciTegic.value.DoubleValue
-4.535

@<SCITEGIC>MOL_PROPERTY
VdW12
SciTegic.value.DoubleValue
5.352

@<SCITEGIC>MOL_PROPERTY
Bond
SciTegic.value.DoubleValue
0.063

@<SCITEGIC>MOL_PROPERTY
Angle
SciTegic.value.DoubleValue
2.579

@<SCITEGIC>MOL_PROPERTY
Pdih
SciTegic.value.DoubleValue
0.010

@<SCITEGIC>MOL_PROPERTY
Idih
SciTegic.value.DoubleValue
0.000

@<SCITEGIC>MOL_PROPERTY
Tether
SciTegic.value.DoubleValue
0.000

@<TRIPOS>MOLECULE
guest-s19_confgen4.mol2 : confsearch ligand conformer 219
          17          16           1
SMALL
USER_CHARGES
 
@<TRIPOS>ATOM
       1    C1      19.799960   21.705848   23.662620 C.2        1 MOL1         0.6173
       2    O1      18.954768   21.390846   24.479238 O.co2      1 MOL1        -0.6755
       3    O2      20.508200   22.685578   23.790428 O.co2      1 MOL1        -0.6755
       4    C2      19.991690   20.873379   22.444290 C.2        1 MOL1        -0.1504
       5    H1      20.762358   21.210909   21.755157 H          1 MOL1         0.0814
       6    C3      19.276757   19.757763   22.173628 C.2        1 MOL1        -0.1394
       7    H2      18.504571   19.408723   22.858826 H          1 MOL1         0.0817
       8    C4      19.480200   18.913273   20.933280 C.3        1 MOL1        -0.1849
       9    H3      19.641739   19.566695   20.065253 H          1 MOL1         0.0736
      10    H4      18.568465   18.339541   20.719122 H          1 MOL1         0.0736
      11    C5      20.677840   17.947570   21.069797 C.3        1 MOL1        -0.1866
      12    H5      20.841637   17.440434   20.108997 H          1 MOL1         0.0738
      13    H6      21.591942   18.518910   21.282907 H          1 MOL1         0.0738
      14    C6      20.459694   16.886560   22.169515 C.3        1 MOL1        -0.2879
      15    H7      19.557141   16.294254   21.970221 H          1 MOL1         0.0750
      16    H8      21.313396   16.198146   22.216290 H          1 MOL1         0.0750
      17    H9      20.351200   17.355366   23.156263 H          1 MOL1         0.0750
@<TRIPOS>BOND
    1     1     2    1
    2     1     3    2
    3     1     4    1
    4     4     5    1
    5     4     6    2
    6     6     7    1
    7     6     8    1
    8     8     9    1
    9     8    10    1
   10     8    11    1
   11    11    12    1
   12    11    13    1
   13    11    14    1
   14    14    15    1
   15    14    16    1
   16    14    17    1
@<TRIPOS>SUBSTRUCTURE
       1 MOL1            1 RESIDUE      1      MOL     
@<SCITEGIC>MOL_PROPERTY
VConf Rank
SciTegic.value.IntegerValue
219

@<SCITEGIC>MOL_PROPERTY
Conf_Id
SciTegic.value.IntegerValue
3

@<SCITEGIC>MOL_PROPERTY
Delta U+W
SciTegic.value.DoubleValue
0.531

@<SCITEGIC>MOL_PROPERTY
U+W
SciTegic.value.DoubleValue
-52.878

@<SCITEGIC>MOL_PROPERTY
Grad RMS
SciTegic.value.DoubleValue
0.000000

@<SCITEGIC>MOL_PROPERTY
U
SciTegic.value.DoubleValue
10.067

@<SCITEGIC>MOL_PROPERTY
W
SciTegic.value.DoubleValue
-62.945

@<SCITEGIC>MOL_PROPERTY
W(PB)
SciTegic.value.DoubleValue
-64.982

@<SCITEGIC>MOL_PROPERTY
W(SA)
SciTegic.value.DoubleValue
2.037

@<SCITEGIC>MOL_PROPERTY
Valence
SciTegic.value.DoubleValue
2.779

@<SCITEGIC>MOL_PROPERTY
Coulomb
SciTegic.value.DoubleValue
6.474

@<SCITEGIC>MOL_PROPERTY
VdW
SciTegic.value.DoubleValue
0.815

@<SCITEGIC>MOL_PROPERTY
VdW6
SciTegic.value.DoubleValue
-5.088

@<SCITEGIC>MOL_PROPERTY
VdW12
SciTegic.value.DoubleValue
5.902

@<SCITEGIC>MOL_PROPERTY
Bond
SciTegic.value.DoubleValue
0.078

@<SCITEGIC>MOL_PROPERTY
Angle
SciTegic.value.DoubleValue
2.651

@<SCITEGIC>MOL_PROPERTY
Pdih
SciTegic.value.DoubleValue
0.050

@<SCITEGIC>MOL_PROPERTY
Idih
SciTegic.value.DoubleValue
0.000

@<SCITEGIC>MOL_PROPERTY
Tether
SciTegic.value.DoubleValue
0.000

@<TRIPOS>MOLECULE
guest-s19_confgen4.mol2 : confsearch ligand conformer 220
          17          16           1
SMALL
USER_CHARGES
 
@<TRIPOS>ATOM
       1    C1      20.737551   16.340993   21.112019 C.2        1 MOL1         0.6173
       2    O1      20.904534   15.317426   21.746217 O.co2      1 MOL1        -0.6755
       3    O2      21.199503   16.511201   19.999330 O.co2      1 MOL1        -0.6755
       4    C2      19.926646   17.416639   21.744073 C.2        1 MOL1        -0.1504
       5    H1      19.544086   17.199353   22.738628 H          1 MOL1         0.0814
       6    C3      19.662771   18.605758   21.155896 C.2        1 MOL1        -0.1394
       7    H2      20.045250   18.833069   20.161132 H          1 MOL1         0.0817
       8    C4      18.839187   19.699939   21.803054 C.3        1 MOL1        -0.1849
       9    H3      18.249061   19.297170   22.637480 H          1 MOL1         0.0736
      10    H4      18.113663   20.082006   21.072541 H          1 MOL1         0.0736
      11    C5      19.711470   20.872363   22.302766 C.3        1 MOL1        -0.1866
      12    H5      20.304114   21.274158   21.469224 H          1 MOL1         0.0738
      13    H6      19.056853   21.686402   22.643376 H          1 MOL1         0.0738
      14    C6      20.649414   20.464176   23.458826 C.3        1 MOL1        -0.2879
      15    H7      21.363656   19.695265   23.136817 H          1 MOL1         0.0750
      16    H8      21.224098   21.329479   23.813585 H          1 MOL1         0.0750
      17    H9      20.077023   20.066324   24.306868 H          1 MOL1         0.0750
@<TRIPOS>BOND
    1     1     2    1
    2     1     3    2
    3     1     4    1
    4     4     5    1
    5     4     6    2
    6     6     7    1
    7     6     8    1
    8     8     9    1
    9     8    10    1
   10     8    11    1
   11    11    12    1
   12    11    13    1
   13    11    14    1
   14    14    15    1
   15    14    16    1
   16    14    17    1
@<TRIPOS>SUBSTRUCTURE
       1 MOL1            1 RESIDUE      1      MOL     
@<SCITEGIC>MOL_PROPERTY
VConf Rank
SciTegic.value.IntegerValue
220

@<SCITEGIC>MOL_PROPERTY
Conf_Id
SciTegic.value.IntegerValue
45

@<SCITEGIC>MOL_PROPERTY
Delta U+W
SciTegic.value.DoubleValue
0.562

@<SCITEGIC>MOL_PROPERTY
U+W
SciTegic.value.DoubleValue
-52.846

@<SCITEGIC>MOL_PROPERTY
Grad RMS
SciTegic.value.DoubleValue
0.000000

@<SCITEGIC>MOL_PROPERTY
U
SciTegic.value.DoubleValue
10.243

@<SCITEGIC>MOL_PROPERTY
W
SciTegic.value.DoubleValue
-63.089

@<SCITEGIC>MOL_PROPERTY
W(PB)
SciTegic.value.DoubleValue
-65.116

@<SCITEGIC>MOL_PROPERTY
W(SA)
SciTegic.value.DoubleValue
2.026

@<SCITEGIC>MOL_PROPERTY
Valence
SciTegic.value.DoubleValue
2.822

@<SCITEGIC>MOL_PROPERTY
Coulomb
SciTegic.value.DoubleValue
6.637

@<SCITEGIC>MOL_PROPERTY
VdW
SciTegic.value.DoubleValue
0.785

@<SCITEGIC>MOL_PROPERTY
VdW6
SciTegic.value.DoubleValue
-5.216

@<SCITEGIC>MOL_PROPERTY
VdW12
SciTegic.value.DoubleValue
6.001

@<SCITEGIC>MOL_PROPERTY
Bond
SciTegic.value.DoubleValue
0.080

@<SCITEGIC>MOL_PROPERTY
Angle
SciTegic.value.DoubleValue
2.678

@<SCITEGIC>MOL_PROPERTY
Pdih
SciTegic.value.DoubleValue
0.064

@<SCITEGIC>MOL_PROPERTY
Idih
SciTegic.value.DoubleValue
0.000

@<SCITEGIC>MOL_PROPERTY
Tether
SciTegic.value.DoubleValue
0.000

@<TRIPOS>MOLECULE
guest-s19_confgen4.mol2 : confsearch ligand conformer 221
          17          16           1
SMALL
USER_CHARGES
 
@<TRIPOS>ATOM
       1    C1      20.773139   16.252660   20.313159 C.2        1 MOL1         0.6173
       2    O1      21.397863   15.291262   20.717063 O.co2      1 MOL1        -0.6755
       3    O2      20.509098   16.422533   19.137650 O.co2      1 MOL1        -0.6755
       4    C2      20.321063   17.251056   21.319634 C.2        1 MOL1        -0.1504
       5    H1      20.589927   17.039393   22.352019 H          1 MOL1         0.0814
       6    C3      19.620139   18.366266   21.012881 C.2        1 MOL1        -0.1394
       7    H2      19.347519   18.589269   19.981512 H          1 MOL1         0.0817
       8    C4      19.166033   19.377789   22.042369 C.3        1 MOL1        -0.1849
       9    H3      18.848101   18.863411   22.959508 H          1 MOL1         0.0736
      10    H4      18.286326   19.916675   21.665401 H          1 MOL1         0.0736
      11    C5      20.286267   20.385372   22.372320 C.3        1 MOL1        -0.1866
      12    H5      21.165775   19.848123   22.753618 H          1 MOL1         0.0738
      13    H6      20.601128   20.900002   21.453850 H          1 MOL1         0.0738
      14    C6      19.828227   21.425721   23.414145 C.3        1 MOL1        -0.2879
      15    H7      18.968390   21.999746   23.044541 H          1 MOL1         0.0750
      16    H8      19.536966   20.938556   24.353971 H          1 MOL1         0.0750
      17    H9      20.637790   22.133202   23.635976 H          1 MOL1         0.0750
@<TRIPOS>BOND
    1     1     2    1
    2     1     3    2
    3     1     4    1
    4     4     5    1
    5     4     6    2
    6     6     7    1
    7     6     8    1
    8     8     9    1
    9     8    10    1
   10     8    11    1
   11    11    12    1
   12    11    13    1
   13    11    14    1
   14    14    15    1
   15    14    16    1
   16    14    17    1
@<TRIPOS>SUBSTRUCTURE
       1 MOL1            1 RESIDUE      1      MOL     
@<SCITEGIC>MOL_PROPERTY
VConf Rank
SciTegic.value.IntegerValue
221

@<SCITEGIC>MOL_PROPERTY
Conf_Id
SciTegic.value.IntegerValue
36

@<SCITEGIC>MOL_PROPERTY
Delta U+W
SciTegic.value.DoubleValue
0.000

@<SCITEGIC>MOL_PROPERTY
U+W
SciTegic.value.DoubleValue
-53.409

@<SCITEGIC>MOL_PROPERTY
Grad RMS
SciTegic.value.DoubleValue
0.000000

@<SCITEGIC>MOL_PROPERTY
U
SciTegic.value.DoubleValue
9.048

@<SCITEGIC>MOL_PROPERTY
W
SciTegic.value.DoubleValue
-62.457

@<SCITEGIC>MOL_PROPERTY
W(PB)
SciTegic.value.DoubleValue
-64.540

@<SCITEGIC>MOL_PROPERTY
W(SA)
SciTegic.value.DoubleValue
2.084

@<SCITEGIC>MOL_PROPERTY
Valence
SciTegic.value.DoubleValue
2.652

@<SCITEGIC>MOL_PROPERTY
Coulomb
SciTegic.value.DoubleValue
5.578

@<SCITEGIC>MOL_PROPERTY
VdW
SciTegic.value.DoubleValue
0.818

@<SCITEGIC>MOL_PROPERTY
VdW6
SciTegic.value.DoubleValue
-4.534

@<SCITEGIC>MOL_PROPERTY
VdW12
SciTegic.value.DoubleValue
5.352

@<SCITEGIC>MOL_PROPERTY
Bond
SciTegic.value.DoubleValue
0.063

@<SCITEGIC>MOL_PROPERTY
Angle
SciTegic.value.DoubleValue
2.579

@<SCITEGIC>MOL_PROPERTY
Pdih
SciTegic.value.DoubleValue
0.010

@<SCITEGIC>MOL_PROPERTY
Idih
SciTegic.value.DoubleValue
0.000

@<SCITEGIC>MOL_PROPERTY
Tether
SciTegic.value.DoubleValue
0.000

@<TRIPOS>MOLECULE
guest-s19_confgen4.mol2 : confsearch ligand conformer 222
          17          16           1
SMALL
USER_CHARGES
 
@<TRIPOS>ATOM
       1    C1      17.726441   18.802999   24.375325 C.2        1 MOL1         0.6173
       2    O1      17.190157   19.889305   24.488158 O.co2      1 MOL1        -0.6755
       3    O2      17.568806   17.902676   25.176746 O.co2      1 MOL1        -0.6755
       4    C2      18.617713   18.540615   23.213022 C.2        1 MOL1        -0.1504
       5    H1      19.064994   17.550075   23.172023 H          1 MOL1         0.0814
       6    C3      18.883837   19.449025   22.247074 C.2        1 MOL1        -0.1394
       7    H2      18.442793   20.445118   22.279504 H          1 MOL1         0.0817
       8    C4      19.793004   19.174717   21.069190 C.3        1 MOL1        -0.1849
       9    H3      19.521423   19.833839   20.233613 H          1 MOL1         0.0736
      10    H4      19.648188   18.145037   20.714798 H          1 MOL1         0.0736
      11    C5      21.274120   19.394322   21.439443 C.3        1 MOL1        -0.1866
      12    H5      21.416847   20.425453   21.791527 H          1 MOL1         0.0738
      13    H6      21.548617   18.732593   22.272705 H          1 MOL1         0.0738
      14    C6      22.206828   19.125674   20.241357 C.3        1 MOL1        -0.2879
      15    H7      21.974331   19.796769   19.404096 H          1 MOL1         0.0750
      16    H8      23.255345   19.286942   20.523731 H          1 MOL1         0.0750
      17    H9      22.106049   18.090575   19.889434 H          1 MOL1         0.0750
@<TRIPOS>BOND
    1     1     2    1
    2     1     3    2
    3     1     4    1
    4     4     5    1
    5     4     6    2
    6     6     7    1
    7     6     8    1
    8     8     9    1
    9     8    10    1
   10     8    11    1
   11    11    12    1
   12    11    13    1
   13    11    14    1
   14    14    15    1
   15    14    16    1
   16    14    17    1
@<TRIPOS>SUBSTRUCTURE
       1 MOL1            1 RESIDUE      1      MOL     
@<SCITEGIC>MOL_PROPERTY
VConf Rank
SciTegic.value.IntegerValue
222

@<SCITEGIC>MOL_PROPERTY
Conf_Id
SciTegic.value.IntegerValue
1

@<SCITEGIC>MOL_PROPERTY
Delta U+W
SciTegic.value.DoubleValue
0.030

@<SCITEGIC>MOL_PROPERTY
U+W
SciTegic.value.DoubleValue
-53.378

@<SCITEGIC>MOL_PROPERTY
Grad RMS
SciTegic.value.DoubleValue
0.000000

@<SCITEGIC>MOL_PROPERTY
U
SciTegic.value.DoubleValue
9.048

@<SCITEGIC>MOL_PROPERTY
W
SciTegic.value.DoubleValue
-62.426

@<SCITEGIC>MOL_PROPERTY
W(PB)
SciTegic.value.DoubleValue
-64.506

@<SCITEGIC>MOL_PROPERTY
W(SA)
SciTegic.value.DoubleValue
2.080

@<SCITEGIC>MOL_PROPERTY
Valence
SciTegic.value.DoubleValue
2.652

@<SCITEGIC>MOL_PROPERTY
Coulomb
SciTegic.value.DoubleValue
5.578

@<SCITEGIC>MOL_PROPERTY
VdW
SciTegic.value.DoubleValue
0.818

@<SCITEGIC>MOL_PROPERTY
VdW6
SciTegic.value.DoubleValue
-4.535

@<SCITEGIC>MOL_PROPERTY
VdW12
SciTegic.value.DoubleValue
5.352

@<SCITEGIC>MOL_PROPERTY
Bond
SciTegic.value.DoubleValue
0.063

@<SCITEGIC>MOL_PROPERTY
Angle
SciTegic.value.DoubleValue
2.579

@<SCITEGIC>MOL_PROPERTY
Pdih
SciTegic.value.DoubleValue
0.010

@<SCITEGIC>MOL_PROPERTY
Idih
SciTegic.value.DoubleValue
0.000

@<SCITEGIC>MOL_PROPERTY
Tether
SciTegic.value.DoubleValue
0.000

@<TRIPOS>MOLECULE
guest-s19_confgen4.mol2 : confsearch ligand conformer 223
          17          16           1
SMALL
USER_CHARGES
 
@<TRIPOS>ATOM
       1    C1      18.623275   21.831879   21.879099 C.2        1 MOL1         0.6173
       2    O1      18.728705   22.057079   20.688044 O.co2      1 MOL1        -0.6755
       3    O2      17.860093   22.443355   22.601221 O.co2      1 MOL1        -0.6755
       4    C2      19.456670   20.768768   22.503068 C.2        1 MOL1        -0.1504
       5    H1      19.314189   20.619343   23.570838 H          1 MOL1         0.0814
       6    C3      20.345077   20.010355   21.821506 C.2        1 MOL1        -0.1394
       7    H2      20.493313   20.149348   20.750849 H          1 MOL1         0.0817
       8    C4      21.187114   18.927376   22.462712 C.3        1 MOL1        -0.1849
       9    H3      21.546132   19.271431   23.442130 H          1 MOL1         0.0736
      10    H4      22.083558   18.743407   21.855393 H          1 MOL1         0.0736
      11    C5      20.406891   17.606905   22.644843 C.3        1 MOL1        -0.1866
      12    H5      21.029130   16.896598   23.206479 H          1 MOL1         0.0738
      13    H6      19.509882   17.787571   23.253253 H          1 MOL1         0.0738
      14    C6      20.002265   16.968554   21.298924 C.3        1 MOL1        -0.2879
      15    H7      20.885308   16.767255   20.678555 H          1 MOL1         0.0750
      16    H8      19.480357   16.017186   21.464509 H          1 MOL1         0.0750
      17    H9      19.329599   17.627389   20.734408 H          1 MOL1         0.0750
@<TRIPOS>BOND
    1     1     2    1
    2     1     3    2
    3     1     4    1
    4     4     5    1
    5     4     6    2
    6     6     7    1
    7     6     8    1
    8     8     9    1
    9     8    10    1
   10     8    11    1
   11    11    12    1
   12    11    13    1
   13    11    14    1
   14    14    15    1
   15    14    16    1
   16    14    17    1
@<TRIPOS>SUBSTRUCTURE
       1 MOL1            1 RESIDUE      1      MOL     
@<SCITEGIC>MOL_PROPERTY
VConf Rank
SciTegic.value.IntegerValue
223

@<SCITEGIC>MOL_PROPERTY
Conf_Id
SciTegic.value.IntegerValue
3

@<SCITEGIC>MOL_PROPERTY
Delta U+W
SciTegic.value.DoubleValue
0.531

@<SCITEGIC>MOL_PROPERTY
U+W
SciTegic.value.DoubleValue
-52.878

@<SCITEGIC>MOL_PROPERTY
Grad RMS
SciTegic.value.DoubleValue
0.000000

@<SCITEGIC>MOL_PROPERTY
U
SciTegic.value.DoubleValue
10.067

@<SCITEGIC>MOL_PROPERTY
W
SciTegic.value.DoubleValue
-62.945

@<SCITEGIC>MOL_PROPERTY
W(PB)
SciTegic.value.DoubleValue
-64.982

@<SCITEGIC>MOL_PROPERTY
W(SA)
SciTegic.value.DoubleValue
2.037

@<SCITEGIC>MOL_PROPERTY
Valence
SciTegic.value.DoubleValue
2.779

@<SCITEGIC>MOL_PROPERTY
Coulomb
SciTegic.value.DoubleValue
6.474

@<SCITEGIC>MOL_PROPERTY
VdW
SciTegic.value.DoubleValue
0.815

@<SCITEGIC>MOL_PROPERTY
VdW6
SciTegic.value.DoubleValue
-5.088

@<SCITEGIC>MOL_PROPERTY
VdW12
SciTegic.value.DoubleValue
5.902

@<SCITEGIC>MOL_PROPERTY
Bond
SciTegic.value.DoubleValue
0.078

@<SCITEGIC>MOL_PROPERTY
Angle
SciTegic.value.DoubleValue
2.651

@<SCITEGIC>MOL_PROPERTY
Pdih
SciTegic.value.DoubleValue
0.050

@<SCITEGIC>MOL_PROPERTY
Idih
SciTegic.value.DoubleValue
0.000

@<SCITEGIC>MOL_PROPERTY
Tether
SciTegic.value.DoubleValue
0.000

@<TRIPOS>MOLECULE
guest-s19_confgen4.mol2 : confsearch ligand conformer 224
          17          16           1
SMALL
USER_CHARGES
 
@<TRIPOS>ATOM
       1    C1      20.652817   22.042426   22.104526 C.2        1 MOL1         0.6173
       2    O1      21.373159   22.678797   21.360267 O.co2      1 MOL1        -0.6755
       3    O2      20.352172   22.425412   23.219596 O.co2      1 MOL1        -0.6755
       4    C2      20.125753   20.743218   21.606192 C.2        1 MOL1        -0.1504
       5    H1      20.433154   20.460994   20.601921 H          1 MOL1         0.0814
       6    C3      19.317462   19.931973   22.326006 C.2        1 MOL1        -0.1394
       7    H2      19.007635   20.205367   23.334362 H          1 MOL1         0.0817
       8    C4      18.784725   18.608569   21.816960 C.3        1 MOL1        -0.1849
       9    H3      18.878336   18.548984   20.724062 H          1 MOL1         0.0736
      10    H4      17.710176   18.547063   22.035067 H          1 MOL1         0.0736
      11    C5      19.497235   17.401470   22.465349 C.3        1 MOL1        -0.1866
      12    H5      19.406341   17.461700   23.558770 H          1 MOL1         0.0738
      13    H6      18.987984   16.477481   22.158581 H          1 MOL1         0.0738
      14    C6      20.986894   17.309224   22.071350 C.3        1 MOL1        -0.2879
      15    H7      21.543890   18.188869   22.419250 H          1 MOL1         0.0750
      16    H8      21.449962   16.419801   22.517849 H          1 MOL1         0.0750
      17    H9      21.101182   17.240371   20.981722 H          1 MOL1         0.0750
@<TRIPOS>BOND
    1     1     2    1
    2     1     3    2
    3     1     4    1
    4     4     5    1
    5     4     6    2
    6     6     7    1
    7     6     8    1
    8     8     9    1
    9     8    10    1
   10     8    11    1
   11    11    12    1
   12    11    13    1
   13    11    14    1
   14    14    15    1
   15    14    16    1
   16    14    17    1
@<TRIPOS>SUBSTRUCTURE
       1 MOL1            1 RESIDUE      1      MOL     
@<SCITEGIC>MOL_PROPERTY
VConf Rank
SciTegic.value.IntegerValue
224

@<SCITEGIC>MOL_PROPERTY
Conf_Id
SciTegic.value.IntegerValue
45

@<SCITEGIC>MOL_PROPERTY
Delta U+W
SciTegic.value.DoubleValue
0.562

@<SCITEGIC>MOL_PROPERTY
U+W
SciTegic.value.DoubleValue
-52.846

@<SCITEGIC>MOL_PROPERTY
Grad RMS
SciTegic.value.DoubleValue
0.000000

@<SCITEGIC>MOL_PROPERTY
U
SciTegic.value.DoubleValue
10.243

@<SCITEGIC>MOL_PROPERTY
W
SciTegic.value.DoubleValue
-63.089

@<SCITEGIC>MOL_PROPERTY
W(PB)
SciTegic.value.DoubleValue
-65.116

@<SCITEGIC>MOL_PROPERTY
W(SA)
SciTegic.value.DoubleValue
2.026

@<SCITEGIC>MOL_PROPERTY
Valence
SciTegic.value.DoubleValue
2.822

@<SCITEGIC>MOL_PROPERTY
Coulomb
SciTegic.value.DoubleValue
6.637

@<SCITEGIC>MOL_PROPERTY
VdW
SciTegic.value.DoubleValue
0.785

@<SCITEGIC>MOL_PROPERTY
VdW6
SciTegic.value.DoubleValue
-5.216

@<SCITEGIC>MOL_PROPERTY
VdW12
SciTegic.value.DoubleValue
6.001

@<SCITEGIC>MOL_PROPERTY
Bond
SciTegic.value.DoubleValue
0.080

@<SCITEGIC>MOL_PROPERTY
Angle
SciTegic.value.DoubleValue
2.678

@<SCITEGIC>MOL_PROPERTY
Pdih
SciTegic.value.DoubleValue
0.064

@<SCITEGIC>MOL_PROPERTY
Idih
SciTegic.value.DoubleValue
0.000

@<SCITEGIC>MOL_PROPERTY
Tether
SciTegic.value.DoubleValue
0.000

@<TRIPOS>MOLECULE
guest-s19_confgen4.mol2 : confsearch ligand conformer 225
          17          16           1
SMALL
USER_CHARGES
 
@<TRIPOS>ATOM
       1    C1      22.173654   19.802497   24.394333 C.2        1 MOL1         0.6173
       2    O1      23.191609   20.466171   24.362574 O.co2      1 MOL1        -0.6755
       3    O2      21.891595   19.069573   25.323665 O.co2      1 MOL1        -0.6755
       4    C2      21.247001   19.909046   23.234970 C.2        1 MOL1        -0.1504
       5    H1      21.558462   20.581215   22.438673 H          1 MOL1         0.0814
       6    C3      20.082218   19.228911   23.136062 C.2        1 MOL1        -0.1394
       7    H2      19.761695   18.551040   23.926966 H          1 MOL1         0.0817
       8    C4      19.146477   19.341316   21.952427 C.3        1 MOL1        -0.1849
       9    H3      19.112467   20.380533   21.597912 H          1 MOL1         0.0736
      10    H4      18.125416   19.084272   22.265078 H          1 MOL1         0.0736
      11    C5      19.582895   18.412537   20.800940 C.3        1 MOL1        -0.1866
      12    H5      20.602831   18.671184   20.484090 H          1 MOL1         0.0738
      13    H6      19.614177   17.373534   21.157395 H          1 MOL1         0.0738
      14    C6      18.628677   18.514217   19.594020 C.3        1 MOL1        -0.2879
      15    H7      17.606469   18.229756   19.876162 H          1 MOL1         0.0750
      16    H8      18.603005   19.538182   19.198708 H          1 MOL1         0.0750
      17    H9      18.955103   17.847054   18.785645 H          1 MOL1         0.0750
@<TRIPOS>BOND
    1     1     2    1
    2     1     3    2
    3     1     4    1
    4     4     5    1
    5     4     6    2
    6     6     7    1
    7     6     8    1
    8     8     9    1
    9     8    10    1
   10     8    11    1
   11    11    12    1
   12    11    13    1
   13    11    14    1
   14    14    15    1
   15    14    16    1
   16    14    17    1
@<TRIPOS>SUBSTRUCTURE
       1 MOL1            1 RESIDUE      1      MOL     
@<SCITEGIC>MOL_PROPERTY
VConf Rank
SciTegic.value.IntegerValue
225

@<SCITEGIC>MOL_PROPERTY
Conf_Id
SciTegic.value.IntegerValue
36

@<SCITEGIC>MOL_PROPERTY
Delta U+W
SciTegic.value.DoubleValue
0.000

@<SCITEGIC>MOL_PROPERTY
U+W
SciTegic.value.DoubleValue
-53.409

@<SCITEGIC>MOL_PROPERTY
Grad RMS
SciTegic.value.DoubleValue
0.000000

@<SCITEGIC>MOL_PROPERTY
U
SciTegic.value.DoubleValue
9.048

@<SCITEGIC>MOL_PROPERTY
W
SciTegic.value.DoubleValue
-62.457

@<SCITEGIC>MOL_PROPERTY
W(PB)
SciTegic.value.DoubleValue
-64.540

@<SCITEGIC>MOL_PROPERTY
W(SA)
SciTegic.value.DoubleValue
2.084

@<SCITEGIC>MOL_PROPERTY
Valence
SciTegic.value.DoubleValue
2.652

@<SCITEGIC>MOL_PROPERTY
Coulomb
SciTegic.value.DoubleValue
5.578

@<SCITEGIC>MOL_PROPERTY
VdW
SciTegic.value.DoubleValue
0.818

@<SCITEGIC>MOL_PROPERTY
VdW6
SciTegic.value.DoubleValue
-4.534

@<SCITEGIC>MOL_PROPERTY
VdW12
SciTegic.value.DoubleValue
5.352

@<SCITEGIC>MOL_PROPERTY
Bond
SciTegic.value.DoubleValue
0.063

@<SCITEGIC>MOL_PROPERTY
Angle
SciTegic.value.DoubleValue
2.579

@<SCITEGIC>MOL_PROPERTY
Pdih
SciTegic.value.DoubleValue
0.010

@<SCITEGIC>MOL_PROPERTY
Idih
SciTegic.value.DoubleValue
0.000

@<SCITEGIC>MOL_PROPERTY
Tether
SciTegic.value.DoubleValue
0.000

@<TRIPOS>MOLECULE
guest-s19_confgen4.mol2 : confsearch ligand conformer 226
          17          16           1
SMALL
USER_CHARGES
 
@<TRIPOS>ATOM
       1    C1      20.144808   15.966870   20.654264 C.2        1 MOL1         0.6173
       2    O1      19.071901   15.445277   20.893436 O.co2      1 MOL1        -0.6755
       3    O2      21.102177   15.345420   20.235994 O.co2      1 MOL1        -0.6755
       4    C2      20.316645   17.428481   20.874104 C.2        1 MOL1        -0.1504
       5    H1      21.299639   17.831183   20.640732 H          1 MOL1         0.0814
       6    C3      19.339256   18.241298   21.335760 C.2        1 MOL1        -0.1394
       7    H2      18.351375   17.847939   21.574786 H          1 MOL1         0.0817
       8    C4      19.522858   19.726557   21.558322 C.3        1 MOL1        -0.1849
       9    H3      18.548958   20.230743   21.497482 H          1 MOL1         0.0736
      10    H4      20.145400   20.151896   20.759364 H          1 MOL1         0.0736
      11    C5      20.167949   20.013775   22.929593 C.3        1 MOL1        -0.1866
      12    H5      19.542400   19.589303   23.727138 H          1 MOL1         0.0738
      13    H6      21.144384   19.513358   22.990558 H          1 MOL1         0.0738
      14    C6      20.350037   21.526225   23.168052 C.3        1 MOL1        -0.2879
      15    H7      19.383805   22.047031   23.143800 H          1 MOL1         0.0750
      16    H8      20.809850   21.710695   24.147681 H          1 MOL1         0.0750
      17    H9      20.998050   21.969682   22.400679 H          1 MOL1         0.0750
@<TRIPOS>BOND
    1     1     2    1
    2     1     3    2
    3     1     4    1
    4     4     5    1
    5     4     6    2
    6     6     7    1
    7     6     8    1
    8     8     9    1
    9     8    10    1
   10     8    11    1
   11    11    12    1
   12    11    13    1
   13    11    14    1
   14    14    15    1
   15    14    16    1
   16    14    17    1
@<TRIPOS>SUBSTRUCTURE
       1 MOL1            1 RESIDUE      1      MOL     
@<SCITEGIC>MOL_PROPERTY
VConf Rank
SciTegic.value.IntegerValue
226

@<SCITEGIC>MOL_PROPERTY
Conf_Id
SciTegic.value.IntegerValue
1

@<SCITEGIC>MOL_PROPERTY
Delta U+W
SciTegic.value.DoubleValue
0.030

@<SCITEGIC>MOL_PROPERTY
U+W
SciTegic.value.DoubleValue
-53.378

@<SCITEGIC>MOL_PROPERTY
Grad RMS
SciTegic.value.DoubleValue
0.000000

@<SCITEGIC>MOL_PROPERTY
U
SciTegic.value.DoubleValue
9.048

@<SCITEGIC>MOL_PROPERTY
W
SciTegic.value.DoubleValue
-62.426

@<SCITEGIC>MOL_PROPERTY
W(PB)
SciTegic.value.DoubleValue
-64.506

@<SCITEGIC>MOL_PROPERTY
W(SA)
SciTegic.value.DoubleValue
2.080

@<SCITEGIC>MOL_PROPERTY
Valence
SciTegic.value.DoubleValue
2.652

@<SCITEGIC>MOL_PROPERTY
Coulomb
SciTegic.value.DoubleValue
5.578

@<SCITEGIC>MOL_PROPERTY
VdW
SciTegic.value.DoubleValue
0.818

@<SCITEGIC>MOL_PROPERTY
VdW6
SciTegic.value.DoubleValue
-4.535

@<SCITEGIC>MOL_PROPERTY
VdW12
SciTegic.value.DoubleValue
5.352

@<SCITEGIC>MOL_PROPERTY
Bond
SciTegic.value.DoubleValue
0.063

@<SCITEGIC>MOL_PROPERTY
Angle
SciTegic.value.DoubleValue
2.579

@<SCITEGIC>MOL_PROPERTY
Pdih
SciTegic.value.DoubleValue
0.010

@<SCITEGIC>MOL_PROPERTY
Idih
SciTegic.value.DoubleValue
0.000

@<SCITEGIC>MOL_PROPERTY
Tether
SciTegic.value.DoubleValue
0.000

@<TRIPOS>MOLECULE
guest-s19_confgen4.mol2 : confsearch ligand conformer 227
          17          16           1
SMALL
USER_CHARGES
 
@<TRIPOS>ATOM
       1    C1      20.692496   21.575746   23.739646 C.2        1 MOL1         0.6173
       2    O1      19.693613   21.649370   24.430481 O.co2      1 MOL1        -0.6755
       3    O2      21.718988   22.173555   23.998010 O.co2      1 MOL1        -0.6755
       4    C2      20.680806   20.726099   22.518149 C.2        1 MOL1        -0.1504
       5    H1      21.605138   20.705299   21.945490 H          1 MOL1         0.0814
       6    C3      19.610832   20.005989   22.111231 C.2        1 MOL1        -0.1394
       7    H2      18.680888   20.016912   22.679284 H          1 MOL1         0.0817
       8    C4      19.607611   19.140306   20.868815 C.3        1 MOL1        -0.1849
       9    H3      20.137202   19.658168   20.057718 H          1 MOL1         0.0736
      10    H4      18.576979   18.995411   20.517964 H          1 MOL1         0.0736
      11    C5      20.269459   17.765554   21.108766 C.3        1 MOL1        -0.1866
      12    H5      20.333351   17.226099   20.153748 H          1 MOL1         0.0738
      13    H6      21.301371   17.907280   21.458763 H          1 MOL1         0.0738
      14    C6      19.489935   16.903026   22.124197 C.3        1 MOL1        -0.2879
      15    H7      18.457947   16.737579   21.788380 H          1 MOL1         0.0750
      16    H8      19.968324   15.922503   22.245139 H          1 MOL1         0.0750
      17    H9      19.456617   17.384904   23.110049 H          1 MOL1         0.0750
@<TRIPOS>BOND
    1     1     2    1
    2     1     3    2
    3     1     4    1
    4     4     5    1
    5     4     6    2
    6     6     7    1
    7     6     8    1
    8     8     9    1
    9     8    10    1
   10     8    11    1
   11    11    12    1
   12    11    13    1
   13    11    14    1
   14    14    15    1
   15    14    16    1
   16    14    17    1
@<TRIPOS>SUBSTRUCTURE
       1 MOL1            1 RESIDUE      1      MOL     
@<SCITEGIC>MOL_PROPERTY
VConf Rank
SciTegic.value.IntegerValue
227

@<SCITEGIC>MOL_PROPERTY
Conf_Id
SciTegic.value.IntegerValue
3

@<SCITEGIC>MOL_PROPERTY
Delta U+W
SciTegic.value.DoubleValue
0.531

@<SCITEGIC>MOL_PROPERTY
U+W
SciTegic.value.DoubleValue
-52.878

@<SCITEGIC>MOL_PROPERTY
Grad RMS
SciTegic.value.DoubleValue
0.000000

@<SCITEGIC>MOL_PROPERTY
U
SciTegic.value.DoubleValue
10.067

@<SCITEGIC>MOL_PROPERTY
W
SciTegic.value.DoubleValue
-62.945

@<SCITEGIC>MOL_PROPERTY
W(PB)
SciTegic.value.DoubleValue
-64.982

@<SCITEGIC>MOL_PROPERTY
W(SA)
SciTegic.value.DoubleValue
2.037

@<SCITEGIC>MOL_PROPERTY
Valence
SciTegic.value.DoubleValue
2.779

@<SCITEGIC>MOL_PROPERTY
Coulomb
SciTegic.value.DoubleValue
6.474

@<SCITEGIC>MOL_PROPERTY
VdW
SciTegic.value.DoubleValue
0.815

@<SCITEGIC>MOL_PROPERTY
VdW6
SciTegic.value.DoubleValue
-5.088

@<SCITEGIC>MOL_PROPERTY
VdW12
SciTegic.value.DoubleValue
5.902

@<SCITEGIC>MOL_PROPERTY
Bond
SciTegic.value.DoubleValue
0.078

@<SCITEGIC>MOL_PROPERTY
Angle
SciTegic.value.DoubleValue
2.651

@<SCITEGIC>MOL_PROPERTY
Pdih
SciTegic.value.DoubleValue
0.050

@<SCITEGIC>MOL_PROPERTY
Idih
SciTegic.value.DoubleValue
0.000

@<SCITEGIC>MOL_PROPERTY
Tether
SciTegic.value.DoubleValue
0.000

@<TRIPOS>MOLECULE
guest-s19_confgen4.mol2 : confsearch ligand conformer 228
          17          16           1
SMALL
USER_CHARGES
 
@<TRIPOS>ATOM
       1    C1      22.151176   17.455836   23.376389 C.2        1 MOL1         0.6173
       2    O1      23.063115   17.809883   24.098053 O.co2      1 MOL1        -0.6755
       3    O2      22.165908   16.406860   22.760045 O.co2      1 MOL1        -0.6755
       4    C2      20.975356   18.360339   23.260662 C.2        1 MOL1        -0.1504
       5    H1      21.026967   19.280798   23.837548 H          1 MOL1         0.0814
       6    C3      19.893107   18.095026   22.493895 C.2        1 MOL1        -0.1394
       7    H2      19.834850   17.176862   21.909858 H          1 MOL1         0.0817
       8    C4      18.698778   19.019153   22.375977 C.3        1 MOL1        -0.1849
       9    H3      18.688768   19.744818   23.200628 H          1 MOL1         0.0736
      10    H4      17.777943   18.429384   22.477188 H          1 MOL1         0.0736
      11    C5      18.668060   19.767873   21.025554 C.3        1 MOL1        -0.1866
      12    H5      18.680721   19.042744   20.200032 H          1 MOL1         0.0738
      13    H6      17.721886   20.320330   20.943436 H          1 MOL1         0.0738
      14    C6      19.842976   20.756558   20.867734 C.3        1 MOL1        -0.2879
      15    H7      20.806938   20.231506   20.880065 H          1 MOL1         0.0750
      16    H8      19.766975   21.297670   19.915742 H          1 MOL1         0.0750
      17    H9      19.845356   21.496082   21.679023 H          1 MOL1         0.0750
@<TRIPOS>BOND
    1     1     2    1
    2     1     3    2
    3     1     4    1
    4     4     5    1
    5     4     6    2
    6     6     7    1
    7     6     8    1
    8     8     9    1
    9     8    10    1
   10     8    11    1
   11    11    12    1
   12    11    13    1
   13    11    14    1
   14    14    15    1
   15    14    16    1
   16    14    17    1
@<TRIPOS>SUBSTRUCTURE
       1 MOL1            1 RESIDUE      1      MOL     
@<SCITEGIC>MOL_PROPERTY
VConf Rank
SciTegic.value.IntegerValue
228

@<SCITEGIC>MOL_PROPERTY
Conf_Id
SciTegic.value.IntegerValue
45

@<SCITEGIC>MOL_PROPERTY
Delta U+W
SciTegic.value.DoubleValue
0.562

@<SCITEGIC>MOL_PROPERTY
U+W
SciTegic.value.DoubleValue
-52.846

@<SCITEGIC>MOL_PROPERTY
Grad RMS
SciTegic.value.DoubleValue
0.000000

@<SCITEGIC>MOL_PROPERTY
U
SciTegic.value.DoubleValue
10.243

@<SCITEGIC>MOL_PROPERTY
W
SciTegic.value.DoubleValue
-63.089

@<SCITEGIC>MOL_PROPERTY
W(PB)
SciTegic.value.DoubleValue
-65.116

@<SCITEGIC>MOL_PROPERTY
W(SA)
SciTegic.value.DoubleValue
2.026

@<SCITEGIC>MOL_PROPERTY
Valence
SciTegic.value.DoubleValue
2.822

@<SCITEGIC>MOL_PROPERTY
Coulomb
SciTegic.value.DoubleValue
6.637

@<SCITEGIC>MOL_PROPERTY
VdW
SciTegic.value.DoubleValue
0.785

@<SCITEGIC>MOL_PROPERTY
VdW6
SciTegic.value.DoubleValue
-5.216

@<SCITEGIC>MOL_PROPERTY
VdW12
SciTegic.value.DoubleValue
6.001

@<SCITEGIC>MOL_PROPERTY
Bond
SciTegic.value.DoubleValue
0.080

@<SCITEGIC>MOL_PROPERTY
Angle
SciTegic.value.DoubleValue
2.678

@<SCITEGIC>MOL_PROPERTY
Pdih
SciTegic.value.DoubleValue
0.064

@<SCITEGIC>MOL_PROPERTY
Idih
SciTegic.value.DoubleValue
0.000

@<SCITEGIC>MOL_PROPERTY
Tether
SciTegic.value.DoubleValue
0.000

@<TRIPOS>MOLECULE
guest-s19_confgen4.mol2 : confsearch ligand conformer 229
          17          16           1
SMALL
USER_CHARGES
 
@<TRIPOS>ATOM
       1    C1      16.651187   19.119876   22.370868 C.2        1 MOL1         0.6173
       2    O1      15.992680   19.671352   23.231070 O.co2      1 MOL1        -0.6755
       3    O2      16.194419   18.264406   21.636070 O.co2      1 MOL1        -0.6755
       4    C2      18.075377   19.526835   22.228637 C.2        1 MOL1        -0.1504
       5    H1      18.420113   20.295954   22.916039 H          1 MOL1         0.0814
       6    C3      18.923071   18.997683   21.317321 C.2        1 MOL1        -0.1394
       7    H2      18.588794   18.224877   20.625365 H          1 MOL1         0.0817
       8    C4      20.370782   19.415660   21.180692 C.3        1 MOL1        -0.1849
       9    H3      20.464636   20.499652   21.332222 H          1 MOL1         0.0736
      10    H4      20.717557   19.211867   20.158634 H          1 MOL1         0.0736
      11    C5      21.268598   18.669492   22.188746 C.3        1 MOL1        -0.1866
      12    H5      20.925530   18.875723   23.212140 H          1 MOL1         0.0738
      13    H6      21.174581   17.585637   22.033868 H          1 MOL1         0.0738
      14    C6      22.747491   19.083041   22.049547 C.3        1 MOL1        -0.2879
      15    H7      23.125471   18.858023   21.043600 H          1 MOL1         0.0750
      16    H8      22.873349   20.158596   22.230593 H          1 MOL1         0.0750
      17    H9      23.370116   18.542362   22.774209 H          1 MOL1         0.0750
@<TRIPOS>BOND
    1     1     2    1
    2     1     3    2
    3     1     4    1
    4     4     5    1
    5     4     6    2
    6     6     7    1
    7     6     8    1
    8     8     9    1
    9     8    10    1
   10     8    11    1
   11    11    12    1
   12    11    13    1
   13    11    14    1
   14    14    15    1
   15    14    16    1
   16    14    17    1
@<TRIPOS>SUBSTRUCTURE
       1 MOL1            1 RESIDUE      1      MOL     
@<SCITEGIC>MOL_PROPERTY
VConf Rank
SciTegic.value.IntegerValue
229

@<SCITEGIC>MOL_PROPERTY
Conf_Id
SciTegic.value.IntegerValue
36

@<SCITEGIC>MOL_PROPERTY
Delta U+W
SciTegic.value.DoubleValue
0.000

@<SCITEGIC>MOL_PROPERTY
U+W
SciTegic.value.DoubleValue
-53.409

@<SCITEGIC>MOL_PROPERTY
Grad RMS
SciTegic.value.DoubleValue
0.000000

@<SCITEGIC>MOL_PROPERTY
U
SciTegic.value.DoubleValue
9.048

@<SCITEGIC>MOL_PROPERTY
W
SciTegic.value.DoubleValue
-62.457

@<SCITEGIC>MOL_PROPERTY
W(PB)
SciTegic.value.DoubleValue
-64.540

@<SCITEGIC>MOL_PROPERTY
W(SA)
SciTegic.value.DoubleValue
2.084

@<SCITEGIC>MOL_PROPERTY
Valence
SciTegic.value.DoubleValue
2.652

@<SCITEGIC>MOL_PROPERTY
Coulomb
SciTegic.value.DoubleValue
5.578

@<SCITEGIC>MOL_PROPERTY
VdW
SciTegic.value.DoubleValue
0.818

@<SCITEGIC>MOL_PROPERTY
VdW6
SciTegic.value.DoubleValue
-4.534

@<SCITEGIC>MOL_PROPERTY
VdW12
SciTegic.value.DoubleValue
5.352

@<SCITEGIC>MOL_PROPERTY
Bond
SciTegic.value.DoubleValue
0.063

@<SCITEGIC>MOL_PROPERTY
Angle
SciTegic.value.DoubleValue
2.579

@<SCITEGIC>MOL_PROPERTY
Pdih
SciTegic.value.DoubleValue
0.010

@<SCITEGIC>MOL_PROPERTY
Idih
SciTegic.value.DoubleValue
0.000

@<SCITEGIC>MOL_PROPERTY
Tether
SciTegic.value.DoubleValue
0.000

@<TRIPOS>MOLECULE
guest-s19_confgen4.mol2 : confsearch ligand conformer 230
          17          16           1
SMALL
USER_CHARGES
 
@<TRIPOS>ATOM
       1    C1      19.463476   17.461413   19.013397 C.2        1 MOL1         0.6173
       2    O1      20.509021   16.917667   18.710792 O.co2      1 MOL1        -0.6755
       3    O2      18.515519   17.536943   18.256179 O.co2      1 MOL1        -0.6755
       4    C2      19.314085   18.066662   20.364514 C.2        1 MOL1        -0.1504
       5    H1      18.355079   18.536446   20.570715 H          1 MOL1         0.0814
       6    C3      20.284942   18.057588   21.306024 C.2        1 MOL1        -0.1394
       7    H2      21.250293   17.591601   21.109230 H          1 MOL1         0.0817
       8    C4      20.125519   18.677107   22.677162 C.3        1 MOL1        -0.1849
       9    H3      20.809431   18.187717   23.383666 H          1 MOL1         0.0736
      10    H4      19.108611   18.500273   23.053239 H          1 MOL1         0.0736
      11    C5      20.412889   20.192189   22.646105 C.3        1 MOL1        -0.1866
      12    H5      21.431239   20.366388   22.271693 H          1 MOL1         0.0738
      13    H6      19.726669   20.683987   21.942688 H          1 MOL1         0.0738
      14    C6      20.261533   20.829582   24.041937 C.3        1 MOL1        -0.2879
      15    H7      20.959774   20.377209   24.758351 H          1 MOL1         0.0750
      16    H8      20.469717   21.906625   23.999911 H          1 MOL1         0.0750
      17    H9      19.241696   20.696337   24.426142 H          1 MOL1         0.0750
@<TRIPOS>BOND
    1     1     2    1
    2     1     3    2
    3     1     4    1
    4     4     5    1
    5     4     6    2
    6     6     7    1
    7     6     8    1
    8     8     9    1
    9     8    10    1
   10     8    11    1
   11    11    12    1
   12    11    13    1
   13    11    14    1
   14    14    15    1
   15    14    16    1
   16    14    17    1
@<TRIPOS>SUBSTRUCTURE
       1 MOL1            1 RESIDUE      1      MOL     
@<SCITEGIC>MOL_PROPERTY
VConf Rank
SciTegic.value.IntegerValue
230

@<SCITEGIC>MOL_PROPERTY
Conf_Id
SciTegic.value.IntegerValue
1

@<SCITEGIC>MOL_PROPERTY
Delta U+W
SciTegic.value.DoubleValue
0.030

@<SCITEGIC>MOL_PROPERTY
U+W
SciTegic.value.DoubleValue
-53.378

@<SCITEGIC>MOL_PROPERTY
Grad RMS
SciTegic.value.DoubleValue
0.000000

@<SCITEGIC>MOL_PROPERTY
U
SciTegic.value.DoubleValue
9.048

@<SCITEGIC>MOL_PROPERTY
W
SciTegic.value.DoubleValue
-62.426

@<SCITEGIC>MOL_PROPERTY
W(PB)
SciTegic.value.DoubleValue
-64.506

@<SCITEGIC>MOL_PROPERTY
W(SA)
SciTegic.value.DoubleValue
2.080

@<SCITEGIC>MOL_PROPERTY
Valence
SciTegic.value.DoubleValue
2.652

@<SCITEGIC>MOL_PROPERTY
Coulomb
SciTegic.value.DoubleValue
5.578

@<SCITEGIC>MOL_PROPERTY
VdW
SciTegic.value.DoubleValue
0.818

@<SCITEGIC>MOL_PROPERTY
VdW6
SciTegic.value.DoubleValue
-4.535

@<SCITEGIC>MOL_PROPERTY
VdW12
SciTegic.value.DoubleValue
5.352

@<SCITEGIC>MOL_PROPERTY
Bond
SciTegic.value.DoubleValue
0.063

@<SCITEGIC>MOL_PROPERTY
Angle
SciTegic.value.DoubleValue
2.579

@<SCITEGIC>MOL_PROPERTY
Pdih
SciTegic.value.DoubleValue
0.010

@<SCITEGIC>MOL_PROPERTY
Idih
SciTegic.value.DoubleValue
0.000

@<SCITEGIC>MOL_PROPERTY
Tether
SciTegic.value.DoubleValue
0.000

@<TRIPOS>MOLECULE
guest-s19_confgen4.mol2 : confsearch ligand conformer 231
          17          16           1
SMALL
USER_CHARGES
 
@<TRIPOS>ATOM
       1    C1      20.921952   21.920834   21.241179 C.2        1 MOL1         0.6173
       2    O1      20.695313   21.890203   20.046131 O.co2      1 MOL1        -0.6755
       3    O2      21.120772   22.954807   21.848781 O.co2      1 MOL1        -0.6755
       4    C2      20.966321   20.650079   22.014033 C.2        1 MOL1        -0.1504
       5    H1      21.174495   20.747948   23.076975 H          1 MOL1         0.0814
       6    C3      20.762911   19.429127   21.469160 C.2        1 MOL1        -0.1394
       7    H2      20.550261   19.319848   20.405940 H          1 MOL1         0.0817
       8    C4      20.805794   18.140283   22.262921 C.3        1 MOL1        -0.1849
       9    H3      21.632846   18.179602   22.984701 H          1 MOL1         0.0736
      10    H4      21.023458   17.297165   21.593543 H          1 MOL1         0.0736
      11    C5      19.486169   17.871758   23.019259 C.3        1 MOL1        -0.1866
      12    H5      19.611525   16.985846   23.656911 H          1 MOL1         0.0738
      13    H6      19.266323   18.713219   23.690853 H          1 MOL1         0.0738
      14    C6      18.294113   17.642441   22.065778 C.3        1 MOL1        -0.2879
      15    H7      18.486671   16.796872   21.392665 H          1 MOL1         0.0750
      16    H8      17.381760   17.421729   22.634817 H          1 MOL1         0.0750
      17    H9      18.100873   18.532038   21.452185 H          1 MOL1         0.0750
@<TRIPOS>BOND
    1     1     2    1
    2     1     3    2
    3     1     4    1
    4     4     5    1
    5     4     6    2
    6     6     7    1
    7     6     8    1
    8     8     9    1
    9     8    10    1
   10     8    11    1
   11    11    12    1
   12    11    13    1
   13    11    14    1
   14    14    15    1
   15    14    16    1
   16    14    17    1
@<TRIPOS>SUBSTRUCTURE
       1 MOL1            1 RESIDUE      1      MOL     
@<SCITEGIC>MOL_PROPERTY
VConf Rank
SciTegic.value.IntegerValue
231

@<SCITEGIC>MOL_PROPERTY
Conf_Id
SciTegic.value.IntegerValue
3

@<SCITEGIC>MOL_PROPERTY
Delta U+W
SciTegic.value.DoubleValue
0.531

@<SCITEGIC>MOL_PROPERTY
U+W
SciTegic.value.DoubleValue
-52.878

@<SCITEGIC>MOL_PROPERTY
Grad RMS
SciTegic.value.DoubleValue
0.000000

@<SCITEGIC>MOL_PROPERTY
U
SciTegic.value.DoubleValue
10.067

@<SCITEGIC>MOL_PROPERTY
W
SciTegic.value.DoubleValue
-62.945

@<SCITEGIC>MOL_PROPERTY
W(PB)
SciTegic.value.DoubleValue
-64.982

@<SCITEGIC>MOL_PROPERTY
W(SA)
SciTegic.value.DoubleValue
2.037

@<SCITEGIC>MOL_PROPERTY
Valence
SciTegic.value.DoubleValue
2.779

@<SCITEGIC>MOL_PROPERTY
Coulomb
SciTegic.value.DoubleValue
6.474

@<SCITEGIC>MOL_PROPERTY
VdW
SciTegic.value.DoubleValue
0.815

@<SCITEGIC>MOL_PROPERTY
VdW6
SciTegic.value.DoubleValue
-5.088

@<SCITEGIC>MOL_PROPERTY
VdW12
SciTegic.value.DoubleValue
5.902

@<SCITEGIC>MOL_PROPERTY
Bond
SciTegic.value.DoubleValue
0.078

@<SCITEGIC>MOL_PROPERTY
Angle
SciTegic.value.DoubleValue
2.651

@<SCITEGIC>MOL_PROPERTY
Pdih
SciTegic.value.DoubleValue
0.050

@<SCITEGIC>MOL_PROPERTY
Idih
SciTegic.value.DoubleValue
0.000

@<SCITEGIC>MOL_PROPERTY
Tether
SciTegic.value.DoubleValue
0.000

@<TRIPOS>MOLECULE
guest-s19_confgen4.mol2 : confsearch ligand conformer 232
          17          16           1
SMALL
USER_CHARGES
 
@<TRIPOS>ATOM
       1    C1      17.691059   17.246747   21.398329 C.2        1 MOL1         0.6173
       2    O1      17.676837   16.034431   21.309632 O.co2      1 MOL1        -0.6755
       3    O2      16.852668   17.956978   20.875720 O.co2      1 MOL1        -0.6755
       4    C2      18.789843   17.865277   22.188371 C.2        1 MOL1        -0.1504
       5    H1      19.504625   17.173667   22.628223 H          1 MOL1         0.0814
       6    C3      18.930441   19.198480   22.368332 C.2        1 MOL1        -0.1394
       7    H2      18.220881   19.898643   21.928089 H          1 MOL1         0.0817
       8    C4      20.051729   19.825325   23.170900 C.3        1 MOL1        -0.1849
       9    H3      20.528412   19.077050   23.818664 H          1 MOL1         0.0736
      10    H4      19.630454   20.585848   23.841827 H          1 MOL1         0.0736
      11    C5      21.117984   20.487005   22.270653 C.3        1 MOL1        -0.1866
      12    H5      20.641562   21.233822   21.620465 H          1 MOL1         0.0738
      13    H6      21.832853   21.031656   22.902726 H          1 MOL1         0.0738
      14    C6      21.887096   19.462386   21.409576 C.3        1 MOL1        -0.2879
      15    H7      21.213151   18.941853   20.716830 H          1 MOL1         0.0750
      16    H8      22.661102   19.962763   20.813418 H          1 MOL1         0.0750
      17    H9      22.378181   18.709791   22.040075 H          1 MOL1         0.0750
@<TRIPOS>BOND
    1     1     2    1
    2     1     3    2
    3     1     4    1
    4     4     5    1
    5     4     6    2
    6     6     7    1
    7     6     8    1
    8     8     9    1
    9     8    10    1
   10     8    11    1
   11    11    12    1
   12    11    13    1
   13    11    14    1
   14    14    15    1
   15    14    16    1
   16    14    17    1
@<TRIPOS>SUBSTRUCTURE
       1 MOL1            1 RESIDUE      1      MOL     
@<SCITEGIC>MOL_PROPERTY
VConf Rank
SciTegic.value.IntegerValue
232

@<SCITEGIC>MOL_PROPERTY
Conf_Id
SciTegic.value.IntegerValue
45

@<SCITEGIC>MOL_PROPERTY
Delta U+W
SciTegic.value.DoubleValue
0.562

@<SCITEGIC>MOL_PROPERTY
U+W
SciTegic.value.DoubleValue
-52.846

@<SCITEGIC>MOL_PROPERTY
Grad RMS
SciTegic.value.DoubleValue
0.000000

@<SCITEGIC>MOL_PROPERTY
U
SciTegic.value.DoubleValue
10.243

@<SCITEGIC>MOL_PROPERTY
W
SciTegic.value.DoubleValue
-63.089

@<SCITEGIC>MOL_PROPERTY
W(PB)
SciTegic.value.DoubleValue
-65.116

@<SCITEGIC>MOL_PROPERTY
W(SA)
SciTegic.value.DoubleValue
2.026

@<SCITEGIC>MOL_PROPERTY
Valence
SciTegic.value.DoubleValue
2.822

@<SCITEGIC>MOL_PROPERTY
Coulomb
SciTegic.value.DoubleValue
6.637

@<SCITEGIC>MOL_PROPERTY
VdW
SciTegic.value.DoubleValue
0.785

@<SCITEGIC>MOL_PROPERTY
VdW6
SciTegic.value.DoubleValue
-5.216

@<SCITEGIC>MOL_PROPERTY
VdW12
SciTegic.value.DoubleValue
6.001

@<SCITEGIC>MOL_PROPERTY
Bond
SciTegic.value.DoubleValue
0.080

@<SCITEGIC>MOL_PROPERTY
Angle
SciTegic.value.DoubleValue
2.678

@<SCITEGIC>MOL_PROPERTY
Pdih
SciTegic.value.DoubleValue
0.064

@<SCITEGIC>MOL_PROPERTY
Idih
SciTegic.value.DoubleValue
0.000

@<SCITEGIC>MOL_PROPERTY
Tether
SciTegic.value.DoubleValue
0.000

@<TRIPOS>MOLECULE
guest-s19_confgen4.mol2 : confsearch ligand conformer 233
          17          16           1
SMALL
USER_CHARGES
 
@<TRIPOS>ATOM
       1    C1      22.846356   20.898440   22.170919 C.2        1 MOL1         0.6173
       2    O1      23.298763   21.492344   23.130246 O.co2      1 MOL1        -0.6755
       3    O2      23.271738   21.047699   21.040801 O.co2      1 MOL1        -0.6755
       4    C2      21.724510   19.951797   22.414827 C.2        1 MOL1        -0.1504
       5    H1      21.392321   19.865372   23.446859 H          1 MOL1         0.0814
       6    C3      21.125290   19.226766   21.443050 C.2        1 MOL1        -0.1394
       7    H2      21.448598   19.307432   20.405390 H          1 MOL1         0.0817
       8    C4      19.983401   18.267768   21.699272 C.3        1 MOL1        -0.1849
       9    H3      20.144970   17.736012   22.646869 H          1 MOL1         0.0736
      10    H4      19.961768   17.502753   20.911445 H          1 MOL1         0.0736
      11    C5      18.629105   19.004796   21.740329 C.3        1 MOL1        -0.1866
      12    H5      18.647618   19.767797   22.530928 H          1 MOL1         0.0738
      13    H6      18.468854   19.534167   20.790775 H          1 MOL1         0.0738
      14    C6      17.458809   18.032822   21.991725 C.3        1 MOL1        -0.2879
      15    H7      17.397811   17.277373   21.197365 H          1 MOL1         0.0750
      16    H8      17.579260   17.512750   22.951127 H          1 MOL1         0.0750
      17    H9      16.504579   18.574949   22.017691 H          1 MOL1         0.0750
@<TRIPOS>BOND
    1     1     2    1
    2     1     3    2
    3     1     4    1
    4     4     5    1
    5     4     6    2
    6     6     7    1
    7     6     8    1
    8     8     9    1
    9     8    10    1
   10     8    11    1
   11    11    12    1
   12    11    13    1
   13    11    14    1
   14    14    15    1
   15    14    16    1
   16    14    17    1
@<TRIPOS>SUBSTRUCTURE
       1 MOL1            1 RESIDUE      1      MOL     
@<SCITEGIC>MOL_PROPERTY
VConf Rank
SciTegic.value.IntegerValue
233

@<SCITEGIC>MOL_PROPERTY
Conf_Id
SciTegic.value.IntegerValue
36

@<SCITEGIC>MOL_PROPERTY
Delta U+W
SciTegic.value.DoubleValue
0.000

@<SCITEGIC>MOL_PROPERTY
U+W
SciTegic.value.DoubleValue
-53.409

@<SCITEGIC>MOL_PROPERTY
Grad RMS
SciTegic.value.DoubleValue
0.000000

@<SCITEGIC>MOL_PROPERTY
U
SciTegic.value.DoubleValue
9.048

@<SCITEGIC>MOL_PROPERTY
W
SciTegic.value.DoubleValue
-62.457

@<SCITEGIC>MOL_PROPERTY
W(PB)
SciTegic.value.DoubleValue
-64.540

@<SCITEGIC>MOL_PROPERTY
W(SA)
SciTegic.value.DoubleValue
2.084

@<SCITEGIC>MOL_PROPERTY
Valence
SciTegic.value.DoubleValue
2.652

@<SCITEGIC>MOL_PROPERTY
Coulomb
SciTegic.value.DoubleValue
5.578

@<SCITEGIC>MOL_PROPERTY
VdW
SciTegic.value.DoubleValue
0.818

@<SCITEGIC>MOL_PROPERTY
VdW6
SciTegic.value.DoubleValue
-4.534

@<SCITEGIC>MOL_PROPERTY
VdW12
SciTegic.value.DoubleValue
5.352

@<SCITEGIC>MOL_PROPERTY
Bond
SciTegic.value.DoubleValue
0.063

@<SCITEGIC>MOL_PROPERTY
Angle
SciTegic.value.DoubleValue
2.579

@<SCITEGIC>MOL_PROPERTY
Pdih
SciTegic.value.DoubleValue
0.010

@<SCITEGIC>MOL_PROPERTY
Idih
SciTegic.value.DoubleValue
0.000

@<SCITEGIC>MOL_PROPERTY
Tether
SciTegic.value.DoubleValue
0.000

@<TRIPOS>MOLECULE
guest-s19_confgen4.mol2 : confsearch ligand conformer 234
          17          16           1
SMALL
USER_CHARGES
 
@<TRIPOS>ATOM
       1    C1      21.266853   19.188373   25.043977 C.2        1 MOL1         0.6173
       2    O1      20.825986   18.217385   25.629821 O.co2      1 MOL1        -0.6755
       3    O2      21.858411   20.087648   25.608839 O.co2      1 MOL1        -0.6755
       4    C2      21.087764   19.301931   23.571159 C.2        1 MOL1        -0.1504
       5    H1      21.505464   20.193805   23.109642 H          1 MOL1         0.0814
       6    C3      20.450312   18.378654   22.815977 C.2        1 MOL1        -0.1394
       7    H2      20.026155   17.482451   23.268398 H          1 MOL1         0.0817
       8    C4      20.270858   18.502692   21.318763 C.3        1 MOL1        -0.1849
       9    H3      20.146139   17.503852   20.879273 H          1 MOL1         0.0736
      10    H4      21.175050   18.932433   20.866471 H          1 MOL1         0.0736
      11    C5      19.048619   19.376392   20.969768 C.3        1 MOL1        -0.1866
      12    H5      18.145243   18.943379   21.421409 H          1 MOL1         0.0738
      13    H6      19.173708   20.377490   21.405331 H          1 MOL1         0.0738
      14    C6      18.853345   19.500174   19.445278 C.3        1 MOL1        -0.2879
      15    H7      18.694217   18.514706   18.988154 H          1 MOL1         0.0750
      16    H8      17.979930   20.124695   19.216697 H          1 MOL1         0.0750
      17    H9      19.731439   19.959674   18.972788 H          1 MOL1         0.0750
@<TRIPOS>BOND
    1     1     2    1
    2     1     3    2
    3     1     4    1
    4     4     5    1
    5     4     6    2
    6     6     7    1
    7     6     8    1
    8     8     9    1
    9     8    10    1
   10     8    11    1
   11    11    12    1
   12    11    13    1
   13    11    14    1
   14    14    15    1
   15    14    16    1
   16    14    17    1
@<TRIPOS>SUBSTRUCTURE
       1 MOL1            1 RESIDUE      1      MOL     
@<SCITEGIC>MOL_PROPERTY
VConf Rank
SciTegic.value.IntegerValue
234

@<SCITEGIC>MOL_PROPERTY
Conf_Id
SciTegic.value.IntegerValue
1

@<SCITEGIC>MOL_PROPERTY
Delta U+W
SciTegic.value.DoubleValue
0.030

@<SCITEGIC>MOL_PROPERTY
U+W
SciTegic.value.DoubleValue
-53.378

@<SCITEGIC>MOL_PROPERTY
Grad RMS
SciTegic.value.DoubleValue
0.000000

@<SCITEGIC>MOL_PROPERTY
U
SciTegic.value.DoubleValue
9.048

@<SCITEGIC>MOL_PROPERTY
W
SciTegic.value.DoubleValue
-62.426

@<SCITEGIC>MOL_PROPERTY
W(PB)
SciTegic.value.DoubleValue
-64.506

@<SCITEGIC>MOL_PROPERTY
W(SA)
SciTegic.value.DoubleValue
2.080

@<SCITEGIC>MOL_PROPERTY
Valence
SciTegic.value.DoubleValue
2.652

@<SCITEGIC>MOL_PROPERTY
Coulomb
SciTegic.value.DoubleValue
5.578

@<SCITEGIC>MOL_PROPERTY
VdW
SciTegic.value.DoubleValue
0.818

@<SCITEGIC>MOL_PROPERTY
VdW6
SciTegic.value.DoubleValue
-4.535

@<SCITEGIC>MOL_PROPERTY
VdW12
SciTegic.value.DoubleValue
5.352

@<SCITEGIC>MOL_PROPERTY
Bond
SciTegic.value.DoubleValue
0.063

@<SCITEGIC>MOL_PROPERTY
Angle
SciTegic.value.DoubleValue
2.579

@<SCITEGIC>MOL_PROPERTY
Pdih
SciTegic.value.DoubleValue
0.010

@<SCITEGIC>MOL_PROPERTY
Idih
SciTegic.value.DoubleValue
0.000

@<SCITEGIC>MOL_PROPERTY
Tether
SciTegic.value.DoubleValue
0.000

@<TRIPOS>MOLECULE
guest-s19_confgen4.mol2 : confsearch ligand conformer 235
          17          16           1
SMALL
USER_CHARGES
 
@<TRIPOS>ATOM
       1    C1      23.077746   19.013505   21.698514 C.2        1 MOL1         0.6173
       2    O1      23.170387   19.312579   20.522753 O.co2      1 MOL1        -0.6755
       3    O2      24.021592   19.045942   22.463963 O.co2      1 MOL1        -0.6755
       4    C2      21.763058   18.582699   22.246323 C.2        1 MOL1        -0.1504
       5    H1      21.749592   18.328719   23.303713 H          1 MOL1         0.0814
       6    C3      20.630575   18.501369   21.511576 C.2        1 MOL1        -0.1394
       7    H2      20.632031   18.756710   20.452144 H          1 MOL1         0.0817
       8    C4      19.295090   18.065733   22.077010 C.3        1 MOL1        -0.1849
       9    H3      19.444468   17.226097   22.769270 H          1 MOL1         0.0736
      10    H4      18.654147   17.686600   21.269704 H          1 MOL1         0.0736
      11    C5      18.569357   19.210022   22.818275 C.3        1 MOL1        -0.1866
      12    H5      17.663088   18.811433   23.294675 H          1 MOL1         0.0738
      13    H6      19.207798   19.590661   23.627555 H          1 MOL1         0.0738
      14    C6      18.176595   20.368841   21.877217 C.3        1 MOL1        -0.2879
      15    H7      17.527144   20.013517   21.066597 H          1 MOL1         0.0750
      16    H8      17.634448   21.147420   22.429302 H          1 MOL1         0.0750
      17    H9      19.064441   20.831952   21.427241 H          1 MOL1         0.0750
@<TRIPOS>BOND
    1     1     2    1
    2     1     3    2
    3     1     4    1
    4     4     5    1
    5     4     6    2
    6     6     7    1
    7     6     8    1
    8     8     9    1
    9     8    10    1
   10     8    11    1
   11    11    12    1
   12    11    13    1
   13    11    14    1
   14    14    15    1
   15    14    16    1
   16    14    17    1
@<TRIPOS>SUBSTRUCTURE
       1 MOL1            1 RESIDUE      1      MOL     
@<SCITEGIC>MOL_PROPERTY
VConf Rank
SciTegic.value.IntegerValue
235

@<SCITEGIC>MOL_PROPERTY
Conf_Id
SciTegic.value.IntegerValue
3

@<SCITEGIC>MOL_PROPERTY
Delta U+W
SciTegic.value.DoubleValue
0.531

@<SCITEGIC>MOL_PROPERTY
U+W
SciTegic.value.DoubleValue
-52.878

@<SCITEGIC>MOL_PROPERTY
Grad RMS
SciTegic.value.DoubleValue
0.000000

@<SCITEGIC>MOL_PROPERTY
U
SciTegic.value.DoubleValue
10.067

@<SCITEGIC>MOL_PROPERTY
W
SciTegic.value.DoubleValue
-62.945

@<SCITEGIC>MOL_PROPERTY
W(PB)
SciTegic.value.DoubleValue
-64.982

@<SCITEGIC>MOL_PROPERTY
W(SA)
SciTegic.value.DoubleValue
2.037

@<SCITEGIC>MOL_PROPERTY
Valence
SciTegic.value.DoubleValue
2.779

@<SCITEGIC>MOL_PROPERTY
Coulomb
SciTegic.value.DoubleValue
6.474

@<SCITEGIC>MOL_PROPERTY
VdW
SciTegic.value.DoubleValue
0.815

@<SCITEGIC>MOL_PROPERTY
VdW6
SciTegic.value.DoubleValue
-5.088

@<SCITEGIC>MOL_PROPERTY
VdW12
SciTegic.value.DoubleValue
5.902

@<SCITEGIC>MOL_PROPERTY
Bond
SciTegic.value.DoubleValue
0.078

@<SCITEGIC>MOL_PROPERTY
Angle
SciTegic.value.DoubleValue
2.651

@<SCITEGIC>MOL_PROPERTY
Pdih
SciTegic.value.DoubleValue
0.050

@<SCITEGIC>MOL_PROPERTY
Idih
SciTegic.value.DoubleValue
0.000

@<SCITEGIC>MOL_PROPERTY
Tether
SciTegic.value.DoubleValue
0.000

@<TRIPOS>MOLECULE
guest-s19_confgen4.mol2 : confsearch ligand conformer 236
          17          16           1
SMALL
USER_CHARGES
 
@<TRIPOS>ATOM
       1    C1      22.760219   20.144868   21.548239 C.2        1 MOL1         0.6173
       2    O1      23.204489   20.701391   20.563005 O.co2      1 MOL1        -0.6755
       3    O2      23.467300   19.590647   22.368801 O.co2      1 MOL1        -0.6755
       4    C2      21.284522   20.158403   21.738528 C.2        1 MOL1        -0.1504
       5    H1      20.712132   20.670631   20.968659 H          1 MOL1         0.0814
       6    C3      20.654344   19.578138   22.785309 C.2        1 MOL1        -0.1394
       7    H2      21.219931   19.059725   23.559180 H          1 MOL1         0.0817
       8    C4      19.151598   19.591231   22.974836 C.3        1 MOL1        -0.1849
       9    H3      18.690035   20.367785   22.349805 H          1 MOL1         0.0736
      10    H4      18.923877   19.861079   24.014708 H          1 MOL1         0.0736
      11    C5      18.509215   18.222399   22.660496 C.3        1 MOL1        -0.1866
      12    H5      18.972213   17.444559   23.283438 H          1 MOL1         0.0738
      13    H6      17.446082   18.253595   22.936128 H          1 MOL1         0.0738
      14    C6      18.631363   17.837069   21.170721 C.3        1 MOL1        -0.2879
      15    H7      19.682935   17.732834   20.873425 H          1 MOL1         0.0750
      16    H8      18.130762   16.879540   20.977322 H          1 MOL1         0.0750
      17    H9      18.167862   18.597826   20.529233 H          1 MOL1         0.0750
@<TRIPOS>BOND
    1     1     2    1
    2     1     3    2
    3     1     4    1
    4     4     5    1
    5     4     6    2
    6     6     7    1
    7     6     8    1
    8     8     9    1
    9     8    10    1
   10     8    11    1
   11    11    12    1
   12    11    13    1
   13    11    14    1
   14    14    15    1
   15    14    16    1
   16    14    17    1
@<TRIPOS>SUBSTRUCTURE
       1 MOL1            1 RESIDUE      1      MOL     
@<SCITEGIC>MOL_PROPERTY
VConf Rank
SciTegic.value.IntegerValue
236

@<SCITEGIC>MOL_PROPERTY
Conf_Id
SciTegic.value.IntegerValue
45

@<SCITEGIC>MOL_PROPERTY
Delta U+W
SciTegic.value.DoubleValue
0.562

@<SCITEGIC>MOL_PROPERTY
U+W
SciTegic.value.DoubleValue
-52.846

@<SCITEGIC>MOL_PROPERTY
Grad RMS
SciTegic.value.DoubleValue
0.000000

@<SCITEGIC>MOL_PROPERTY
U
SciTegic.value.DoubleValue
10.243

@<SCITEGIC>MOL_PROPERTY
W
SciTegic.value.DoubleValue
-63.089

@<SCITEGIC>MOL_PROPERTY
W(PB)
SciTegic.value.DoubleValue
-65.116

@<SCITEGIC>MOL_PROPERTY
W(SA)
SciTegic.value.DoubleValue
2.026

@<SCITEGIC>MOL_PROPERTY
Valence
SciTegic.value.DoubleValue
2.822

@<SCITEGIC>MOL_PROPERTY
Coulomb
SciTegic.value.DoubleValue
6.637

@<SCITEGIC>MOL_PROPERTY
VdW
SciTegic.value.DoubleValue
0.785

@<SCITEGIC>MOL_PROPERTY
VdW6
SciTegic.value.DoubleValue
-5.216

@<SCITEGIC>MOL_PROPERTY
VdW12
SciTegic.value.DoubleValue
6.001

@<SCITEGIC>MOL_PROPERTY
Bond
SciTegic.value.DoubleValue
0.080

@<SCITEGIC>MOL_PROPERTY
Angle
SciTegic.value.DoubleValue
2.678

@<SCITEGIC>MOL_PROPERTY
Pdih
SciTegic.value.DoubleValue
0.064

@<SCITEGIC>MOL_PROPERTY
Idih
SciTegic.value.DoubleValue
0.000

@<SCITEGIC>MOL_PROPERTY
Tether
SciTegic.value.DoubleValue
0.000

@<TRIPOS>MOLECULE
guest-s19_confgen4.mol2 : confsearch ligand conformer 237
          17          16           1
SMALL
USER_CHARGES
 
@<TRIPOS>ATOM
       1    C1      22.444256   21.034114   20.610623 C.2        1 MOL1         0.6173
       2    O1      23.646189   20.852297   20.612375 O.co2      1 MOL1        -0.6755
       3    O2      21.937689   22.099354   20.312212 O.co2      1 MOL1        -0.6755
       4    C2      21.575028   19.888313   20.992388 C.2        1 MOL1        -0.1504
       5    H1      22.091045   18.965521   21.247516 H          1 MOL1         0.0814
       6    C3      20.224588   19.948149   21.035016 C.2        1 MOL1        -0.1394
       7    H2      19.697494   20.868349   20.783665 H          1 MOL1         0.0817
       8    C4      19.347954   18.778743   21.426475 C.3        1 MOL1        -0.1849
       9    H3      19.761871   17.846198   21.019238 H          1 MOL1         0.0736
      10    H4      18.351971   18.899896   20.979568 H          1 MOL1         0.0736
      11    C5      19.215554   18.663966   22.958894 C.3        1 MOL1        -0.1866
      12    H5      20.210921   18.538468   23.407286 H          1 MOL1         0.0738
      13    H6      18.799478   19.597050   23.363621 H          1 MOL1         0.0738
      14    C6      18.315718   17.479863   23.365983 C.3        1 MOL1        -0.2879
      15    H7      17.303682   17.596435   22.956561 H          1 MOL1         0.0750
      16    H8      18.726676   16.530012   22.999468 H          1 MOL1         0.0750
      17    H9      18.233639   17.414308   24.458730 H          1 MOL1         0.0750
@<TRIPOS>BOND
    1     1     2    1
    2     1     3    2
    3     1     4    1
    4     4     5    1
    5     4     6    2
    6     6     7    1
    7     6     8    1
    8     8     9    1
    9     8    10    1
   10     8    11    1
   11    11    12    1
   12    11    13    1
   13    11    14    1
   14    14    15    1
   15    14    16    1
   16    14    17    1
@<TRIPOS>SUBSTRUCTURE
       1 MOL1            1 RESIDUE      1      MOL     
@<SCITEGIC>MOL_PROPERTY
VConf Rank
SciTegic.value.IntegerValue
237

@<SCITEGIC>MOL_PROPERTY
Conf_Id
SciTegic.value.IntegerValue
36

@<SCITEGIC>MOL_PROPERTY
Delta U+W
SciTegic.value.DoubleValue
0.000

@<SCITEGIC>MOL_PROPERTY
U+W
SciTegic.value.DoubleValue
-53.409

@<SCITEGIC>MOL_PROPERTY
Grad RMS
SciTegic.value.DoubleValue
0.000000

@<SCITEGIC>MOL_PROPERTY
U
SciTegic.value.DoubleValue
9.048

@<SCITEGIC>MOL_PROPERTY
W
SciTegic.value.DoubleValue
-62.457

@<SCITEGIC>MOL_PROPERTY
W(PB)
SciTegic.value.DoubleValue
-64.540

@<SCITEGIC>MOL_PROPERTY
W(SA)
SciTegic.value.DoubleValue
2.084

@<SCITEGIC>MOL_PROPERTY
Valence
SciTegic.value.DoubleValue
2.652

@<SCITEGIC>MOL_PROPERTY
Coulomb
SciTegic.value.DoubleValue
5.578

@<SCITEGIC>MOL_PROPERTY
VdW
SciTegic.value.DoubleValue
0.818

@<SCITEGIC>MOL_PROPERTY
VdW6
SciTegic.value.DoubleValue
-4.534

@<SCITEGIC>MOL_PROPERTY
VdW12
SciTegic.value.DoubleValue
5.352

@<SCITEGIC>MOL_PROPERTY
Bond
SciTegic.value.DoubleValue
0.063

@<SCITEGIC>MOL_PROPERTY
Angle
SciTegic.value.DoubleValue
2.579

@<SCITEGIC>MOL_PROPERTY
Pdih
SciTegic.value.DoubleValue
0.010

@<SCITEGIC>MOL_PROPERTY
Idih
SciTegic.value.DoubleValue
0.000

@<SCITEGIC>MOL_PROPERTY
Tether
SciTegic.value.DoubleValue
0.000

@<TRIPOS>MOLECULE
guest-s19_confgen4.mol2 : confsearch ligand conformer 238
          17          16           1
SMALL
USER_CHARGES
 
@<TRIPOS>ATOM
       1    C1      16.822069   18.014857   21.753786 C.2        1 MOL1         0.6173
       2    O1      16.830997   16.839214   22.067119 O.co2      1 MOL1        -0.6755
       3    O2      15.847689   18.563473   21.277016 O.co2      1 MOL1        -0.6755
       4    C2      18.045080   18.838273   21.954766 C.2        1 MOL1        -0.1504
       5    H1      17.970012   19.880807   21.654106 H          1 MOL1         0.0814
       6    C3      19.199013   18.359912   22.473124 C.2        1 MOL1        -0.1394
       7    H2      19.285870   17.316493   22.775626 H          1 MOL1         0.0817
       8    C4      20.438976   19.203703   22.672493 C.3        1 MOL1        -0.1849
       9    H3      21.055854   18.768248   23.470132 H          1 MOL1         0.0736
      10    H4      20.157750   20.210764   23.009459 H          1 MOL1         0.0736
      11    C5      21.266900   19.301302   21.374789 C.3        1 MOL1        -0.1866
      12    H5      21.548800   18.293009   21.040958 H          1 MOL1         0.0738
      13    H6      20.652377   19.740620   20.576716 H          1 MOL1         0.0738
      14    C6      22.537510   20.152248   21.572186 C.3        1 MOL1        -0.2879
      15    H7      23.186003   19.717041   22.343861 H          1 MOL1         0.0750
      16    H8      23.113027   20.210124   20.639147 H          1 MOL1         0.0750
      17    H9      22.281565   21.175646   21.876461 H          1 MOL1         0.0750
@<TRIPOS>BOND
    1     1     2    1
    2     1     3    2
    3     1     4    1
    4     4     5    1
    5     4     6    2
    6     6     7    1
    7     6     8    1
    8     8     9    1
    9     8    10    1
   10     8    11    1
   11    11    12    1
   12    11    13    1
   13    11    14    1
   14    14    15    1
   15    14    16    1
   16    14    17    1
@<TRIPOS>SUBSTRUCTURE
       1 MOL1            1 RESIDUE      1      MOL     
@<SCITEGIC>MOL_PROPERTY
VConf Rank
SciTegic.value.IntegerValue
238

@<SCITEGIC>MOL_PROPERTY
Conf_Id
SciTegic.value.IntegerValue
1

@<SCITEGIC>MOL_PROPERTY
Delta U+W
SciTegic.value.DoubleValue
0.030

@<SCITEGIC>MOL_PROPERTY
U+W
SciTegic.value.DoubleValue
-53.378

@<SCITEGIC>MOL_PROPERTY
Grad RMS
SciTegic.value.DoubleValue
0.000000

@<SCITEGIC>MOL_PROPERTY
U
SciTegic.value.DoubleValue
9.048

@<SCITEGIC>MOL_PROPERTY
W
SciTegic.value.DoubleValue
-62.426

@<SCITEGIC>MOL_PROPERTY
W(PB)
SciTegic.value.DoubleValue
-64.506

@<SCITEGIC>MOL_PROPERTY
W(SA)
SciTegic.value.DoubleValue
2.080

@<SCITEGIC>MOL_PROPERTY
Valence
SciTegic.value.DoubleValue
2.652

@<SCITEGIC>MOL_PROPERTY
Coulomb
SciTegic.value.DoubleValue
5.578

@<SCITEGIC>MOL_PROPERTY
VdW
SciTegic.value.DoubleValue
0.818

@<SCITEGIC>MOL_PROPERTY
VdW6
SciTegic.value.DoubleValue
-4.535

@<SCITEGIC>MOL_PROPERTY
VdW12
SciTegic.value.DoubleValue
5.352

@<SCITEGIC>MOL_PROPERTY
Bond
SciTegic.value.DoubleValue
0.063

@<SCITEGIC>MOL_PROPERTY
Angle
SciTegic.value.DoubleValue
2.579

@<SCITEGIC>MOL_PROPERTY
Pdih
SciTegic.value.DoubleValue
0.010

@<SCITEGIC>MOL_PROPERTY
Idih
SciTegic.value.DoubleValue
0.000

@<SCITEGIC>MOL_PROPERTY
Tether
SciTegic.value.DoubleValue
0.000

@<TRIPOS>MOLECULE
guest-s19_confgen4.mol2 : confsearch ligand conformer 239
          17          16           1
SMALL
USER_CHARGES
 
@<TRIPOS>ATOM
       1    C1      18.547001   21.429311   20.687183 C.2        1 MOL1         0.6173
       2    O1      18.375865   20.963435   19.576277 O.co2      1 MOL1        -0.6755
       3    O2      17.949496   22.407690   21.091625 O.co2      1 MOL1        -0.6755
       4    C2      19.527681   20.793538   21.608135 C.2        1 MOL1        -0.1504
       5    H1      19.632971   21.259893   22.584960 H          1 MOL1         0.0814
       6    C3      20.260237   19.701593   21.291902 C.2        1 MOL1        -0.1394
       7    H2      20.160185   19.224379   20.317297 H          1 MOL1         0.0817
       8    C4      21.253744   19.057655   22.235990 C.3        1 MOL1        -0.1849
       9    H3      21.814347   19.837639   22.768791 H          1 MOL1         0.0736
      10    H4      21.995337   18.484908   21.663019 H          1 MOL1         0.0736
      11    C5      20.570320   18.132079   23.266426 C.3        1 MOL1        -0.1866
      12    H5      21.321804   17.778826   23.985896 H          1 MOL1         0.0738
      13    H6      19.828512   18.702712   23.842209 H          1 MOL1         0.0738
      14    C6      19.890834   16.912904   22.607166 C.3        1 MOL1        -0.2879
      15    H7      20.616906   16.319991   22.035836 H          1 MOL1         0.0750
      16    H8      19.445346   16.260524   23.369300 H          1 MOL1         0.0750
      17    H9      19.090971   17.226719   21.923820 H          1 MOL1         0.0750
@<TRIPOS>BOND
    1     1     2    1
    2     1     3    2
    3     1     4    1
    4     4     5    1
    5     4     6    2
    6     6     7    1
    7     6     8    1
    8     8     9    1
    9     8    10    1
   10     8    11    1
   11    11    12    1
   12    11    13    1
   13    11    14    1
   14    14    15    1
   15    14    16    1
   16    14    17    1
@<TRIPOS>SUBSTRUCTURE
       1 MOL1            1 RESIDUE      1      MOL     
@<SCITEGIC>MOL_PROPERTY
VConf Rank
SciTegic.value.IntegerValue
239

@<SCITEGIC>MOL_PROPERTY
Conf_Id
SciTegic.value.IntegerValue
3

@<SCITEGIC>MOL_PROPERTY
Delta U+W
SciTegic.value.DoubleValue
0.531

@<SCITEGIC>MOL_PROPERTY
U+W
SciTegic.value.DoubleValue
-52.878

@<SCITEGIC>MOL_PROPERTY
Grad RMS
SciTegic.value.DoubleValue
0.000000

@<SCITEGIC>MOL_PROPERTY
U
SciTegic.value.DoubleValue
10.067

@<SCITEGIC>MOL_PROPERTY
W
SciTegic.value.DoubleValue
-62.945

@<SCITEGIC>MOL_PROPERTY
W(PB)
SciTegic.value.DoubleValue
-64.982

@<SCITEGIC>MOL_PROPERTY
W(SA)
SciTegic.value.DoubleValue
2.037

@<SCITEGIC>MOL_PROPERTY
Valence
SciTegic.value.DoubleValue
2.779

@<SCITEGIC>MOL_PROPERTY
Coulomb
SciTegic.value.DoubleValue
6.474

@<SCITEGIC>MOL_PROPERTY
VdW
SciTegic.value.DoubleValue
0.815

@<SCITEGIC>MOL_PROPERTY
VdW6
SciTegic.value.DoubleValue
-5.088

@<SCITEGIC>MOL_PROPERTY
VdW12
SciTegic.value.DoubleValue
5.902

@<SCITEGIC>MOL_PROPERTY
Bond
SciTegic.value.DoubleValue
0.078

@<SCITEGIC>MOL_PROPERTY
Angle
SciTegic.value.DoubleValue
2.651

@<SCITEGIC>MOL_PROPERTY
Pdih
SciTegic.value.DoubleValue
0.050

@<SCITEGIC>MOL_PROPERTY
Idih
SciTegic.value.DoubleValue
0.000

@<SCITEGIC>MOL_PROPERTY
Tether
SciTegic.value.DoubleValue
0.000

@<TRIPOS>MOLECULE
guest-s19_confgen4.mol2 : confsearch ligand conformer 240
          17          16           1
SMALL
USER_CHARGES
 
@<TRIPOS>ATOM
       1    C1      22.341385   17.324011   21.463798 C.2        1 MOL1         0.6173
       2    O1      22.424256   16.111315   21.480568 O.co2      1 MOL1        -0.6755
       3    O2      23.312416   18.053355   21.538656 O.co2      1 MOL1        -0.6755
       4    C2      20.982727   17.918495   21.342511 C.2        1 MOL1        -0.1504
       5    H1      20.159576   17.210537   21.279860 H          1 MOL1         0.0814
       6    C3      20.742292   19.249262   21.313638 C.2        1 MOL1        -0.1394
       7    H2      21.560902   19.965537   21.379569 H          1 MOL1         0.0817
       8    C4      19.357702   19.851473   21.192856 C.3        1 MOL1        -0.1849
       9    H3      18.640816   19.102392   20.829962 H          1 MOL1         0.0736
      10    H4      19.377603   20.646780   20.435822 H          1 MOL1         0.0736
      11    C5      18.857625   20.443903   22.528564 C.3        1 MOL1        -0.1866
      12    H5      19.575510   21.191451   22.893632 H          1 MOL1         0.0738
      13    H6      17.912466   20.975984   22.353168 H          1 MOL1         0.0738
      14    C6      18.634314   19.365341   23.610074 C.3        1 MOL1        -0.2879
      15    H7      19.573153   18.854004   23.859413 H          1 MOL1         0.0750
      16    H8      18.242660   19.817002   24.530659 H          1 MOL1         0.0750
      17    H9      17.913477   18.610881   23.269080 H          1 MOL1         0.0750
@<TRIPOS>BOND
    1     1     2    1
    2     1     3    2
    3     1     4    1
    4     4     5    1
    5     4     6    2
    6     6     7    1
    7     6     8    1
    8     8     9    1
    9     8    10    1
   10     8    11    1
   11    11    12    1
   12    11    13    1
   13    11    14    1
   14    14    15    1
   15    14    16    1
   16    14    17    1
@<TRIPOS>SUBSTRUCTURE
       1 MOL1            1 RESIDUE      1      MOL     
@<SCITEGIC>MOL_PROPERTY
VConf Rank
SciTegic.value.IntegerValue
240

@<SCITEGIC>MOL_PROPERTY
Conf_Id
SciTegic.value.IntegerValue
45

@<SCITEGIC>MOL_PROPERTY
Delta U+W
SciTegic.value.DoubleValue
0.562

@<SCITEGIC>MOL_PROPERTY
U+W
SciTegic.value.DoubleValue
-52.846

@<SCITEGIC>MOL_PROPERTY
Grad RMS
SciTegic.value.DoubleValue
0.000000

@<SCITEGIC>MOL_PROPERTY
U
SciTegic.value.DoubleValue
10.243

@<SCITEGIC>MOL_PROPERTY
W
SciTegic.value.DoubleValue
-63.089

@<SCITEGIC>MOL_PROPERTY
W(PB)
SciTegic.value.DoubleValue
-65.116

@<SCITEGIC>MOL_PROPERTY
W(SA)
SciTegic.value.DoubleValue
2.026

@<SCITEGIC>MOL_PROPERTY
Valence
SciTegic.value.DoubleValue
2.822

@<SCITEGIC>MOL_PROPERTY
Coulomb
SciTegic.value.DoubleValue
6.637

@<SCITEGIC>MOL_PROPERTY
VdW
SciTegic.value.DoubleValue
0.785

@<SCITEGIC>MOL_PROPERTY
VdW6
SciTegic.value.DoubleValue
-5.216

@<SCITEGIC>MOL_PROPERTY
VdW12
SciTegic.value.DoubleValue
6.001

@<SCITEGIC>MOL_PROPERTY
Bond
SciTegic.value.DoubleValue
0.080

@<SCITEGIC>MOL_PROPERTY
Angle
SciTegic.value.DoubleValue
2.678

@<SCITEGIC>MOL_PROPERTY
Pdih
SciTegic.value.DoubleValue
0.064

@<SCITEGIC>MOL_PROPERTY
Idih
SciTegic.value.DoubleValue
0.000

@<SCITEGIC>MOL_PROPERTY
Tether
SciTegic.value.DoubleValue
0.000

@<TRIPOS>MOLECULE
guest-s19_confgen4.mol2 : confsearch ligand conformer 241
          17          16           1
SMALL
USER_CHARGES
 
@<TRIPOS>ATOM
       1    C1      22.860792   17.401903   22.372517 C.2        1 MOL1         0.6173
       2    O1      23.034333   16.201637   22.455869 O.co2      1 MOL1        -0.6755
       3    O2      23.713473   18.215290   22.675391 O.co2      1 MOL1        -0.6755
       4    C2      21.540063   17.872658   21.874293 C.2        1 MOL1        -0.1504
       5    H1      20.823471   17.094589   21.621286 H          1 MOL1         0.0814
       6    C3      21.209145   19.176257   21.732140 C.2        1 MOL1        -0.1394
       7    H2      21.918632   19.963978   21.984920 H          1 MOL1         0.0817
       8    C4      19.862833   19.646642   21.226751 C.3        1 MOL1        -0.1849
       9    H3      19.511021   18.984842   20.423596 H          1 MOL1         0.0736
      10    H4      19.964835   20.647088   20.785063 H          1 MOL1         0.0736
      11    C5      18.819501   19.687588   22.362003 C.3        1 MOL1        -0.1866
      12    H5      18.713162   18.686371   22.802250 H          1 MOL1         0.0738
      13    H6      19.172671   20.351691   23.163131 H          1 MOL1         0.0738
      14    C6      17.446660   20.175142   21.856904 C.3        1 MOL1        -0.2879
      15    H7      17.518477   21.188268   21.439951 H          1 MOL1         0.0750
      16    H8      17.056501   19.509604   21.075705 H          1 MOL1         0.0750
      17    H9      16.718180   20.197491   22.677848 H          1 MOL1         0.0750
@<TRIPOS>BOND
    1     1     2    1
    2     1     3    2
    3     1     4    1
    4     4     5    1
    5     4     6    2
    6     6     7    1
    7     6     8    1
    8     8     9    1
    9     8    10    1
   10     8    11    1
   11    11    12    1
   12    11    13    1
   13    11    14    1
   14    14    15    1
   15    14    16    1
   16    14    17    1
@<TRIPOS>SUBSTRUCTURE
       1 MOL1            1 RESIDUE      1      MOL     
@<SCITEGIC>MOL_PROPERTY
VConf Rank
SciTegic.value.IntegerValue
241

@<SCITEGIC>MOL_PROPERTY
Conf_Id
SciTegic.value.IntegerValue
36

@<SCITEGIC>MOL_PROPERTY
Delta U+W
SciTegic.value.DoubleValue
0.000

@<SCITEGIC>MOL_PROPERTY
U+W
SciTegic.value.DoubleValue
-53.409

@<SCITEGIC>MOL_PROPERTY
Grad RMS
SciTegic.value.DoubleValue
0.000000

@<SCITEGIC>MOL_PROPERTY
U
SciTegic.value.DoubleValue
9.048

@<SCITEGIC>MOL_PROPERTY
W
SciTegic.value.DoubleValue
-62.457

@<SCITEGIC>MOL_PROPERTY
W(PB)
SciTegic.value.DoubleValue
-64.540

@<SCITEGIC>MOL_PROPERTY
W(SA)
SciTegic.value.DoubleValue
2.084

@<SCITEGIC>MOL_PROPERTY
Valence
SciTegic.value.DoubleValue
2.652

@<SCITEGIC>MOL_PROPERTY
Coulomb
SciTegic.value.DoubleValue
5.578

@<SCITEGIC>MOL_PROPERTY
VdW
SciTegic.value.DoubleValue
0.818

@<SCITEGIC>MOL_PROPERTY
VdW6
SciTegic.value.DoubleValue
-4.534

@<SCITEGIC>MOL_PROPERTY
VdW12
SciTegic.value.DoubleValue
5.352

@<SCITEGIC>MOL_PROPERTY
Bond
SciTegic.value.DoubleValue
0.063

@<SCITEGIC>MOL_PROPERTY
Angle
SciTegic.value.DoubleValue
2.579

@<SCITEGIC>MOL_PROPERTY
Pdih
SciTegic.value.DoubleValue
0.010

@<SCITEGIC>MOL_PROPERTY
Idih
SciTegic.value.DoubleValue
0.000

@<SCITEGIC>MOL_PROPERTY
Tether
SciTegic.value.DoubleValue
0.000

@<TRIPOS>MOLECULE
guest-s19_confgen4.mol2 : confsearch ligand conformer 242
          17          16           1
SMALL
USER_CHARGES
 
@<TRIPOS>ATOM
       1    C1      21.956294   17.112526   19.994784 C.2        1 MOL1         0.6173
       2    O1      23.081151   17.574400   20.036782 O.co2      1 MOL1        -0.6755
       3    O2      21.630781   16.237358   19.216434 O.co2      1 MOL1        -0.6755
       4    C2      20.916445   17.624209   20.928088 C.2        1 MOL1        -0.1504
       5    H1      19.932778   17.168947   20.838393 H          1 MOL1         0.0814
       6    C3      21.137317   18.594585   21.843878 C.2        1 MOL1        -0.1394
       7    H2      22.118462   19.059060   21.940777 H          1 MOL1         0.0817
       8    C4      20.073667   19.110608   22.788128 C.3        1 MOL1        -0.1849
       9    H3      20.549866   19.530813   23.684258 H          1 MOL1         0.0736
      10    H4      19.440807   18.280555   23.130628 H          1 MOL1         0.0736
      11    C5      19.199401   20.188256   22.114813 C.3        1 MOL1        -0.1866
      12    H5      19.834317   21.018328   21.775064 H          1 MOL1         0.0738
      13    H6      18.718931   19.768232   21.220225 H          1 MOL1         0.0738
      14    C6      18.118460   20.726085   23.073891 C.3        1 MOL1        -0.2879
      15    H7      18.573516   21.180727   23.963641 H          1 MOL1         0.0750
      16    H8      17.507084   21.491003   22.577656 H          1 MOL1         0.0750
      17    H9      17.450213   19.920040   23.404305 H          1 MOL1         0.0750
@<TRIPOS>BOND
    1     1     2    1
    2     1     3    2
    3     1     4    1
    4     4     5    1
    5     4     6    2
    6     6     7    1
    7     6     8    1
    8     8     9    1
    9     8    10    1
   10     8    11    1
   11    11    12    1
   12    11    13    1
   13    11    14    1
   14    14    15    1
   15    14    16    1
   16    14    17    1
@<TRIPOS>SUBSTRUCTURE
       1 MOL1            1 RESIDUE      1      MOL     
@<SCITEGIC>MOL_PROPERTY
VConf Rank
SciTegic.value.IntegerValue
242

@<SCITEGIC>MOL_PROPERTY
Conf_Id
SciTegic.value.IntegerValue
1

@<SCITEGIC>MOL_PROPERTY
Delta U+W
SciTegic.value.DoubleValue
0.030

@<SCITEGIC>MOL_PROPERTY
U+W
SciTegic.value.DoubleValue
-53.378

@<SCITEGIC>MOL_PROPERTY
Grad RMS
SciTegic.value.DoubleValue
0.000000

@<SCITEGIC>MOL_PROPERTY
U
SciTegic.value.DoubleValue
9.048

@<SCITEGIC>MOL_PROPERTY
W
SciTegic.value.DoubleValue
-62.426

@<SCITEGIC>MOL_PROPERTY
W(PB)
SciTegic.value.DoubleValue
-64.506

@<SCITEGIC>MOL_PROPERTY
W(SA)
SciTegic.value.DoubleValue
2.080

@<SCITEGIC>MOL_PROPERTY
Valence
SciTegic.value.DoubleValue
2.652

@<SCITEGIC>MOL_PROPERTY
Coulomb
SciTegic.value.DoubleValue
5.578

@<SCITEGIC>MOL_PROPERTY
VdW
SciTegic.value.DoubleValue
0.818

@<SCITEGIC>MOL_PROPERTY
VdW6
SciTegic.value.DoubleValue
-4.535

@<SCITEGIC>MOL_PROPERTY
VdW12
SciTegic.value.DoubleValue
5.352

@<SCITEGIC>MOL_PROPERTY
Bond
SciTegic.value.DoubleValue
0.063

@<SCITEGIC>MOL_PROPERTY
Angle
SciTegic.value.DoubleValue
2.579

@<SCITEGIC>MOL_PROPERTY
Pdih
SciTegic.value.DoubleValue
0.010

@<SCITEGIC>MOL_PROPERTY
Idih
SciTegic.value.DoubleValue
0.000

@<SCITEGIC>MOL_PROPERTY
Tether
SciTegic.value.DoubleValue
0.000

@<TRIPOS>MOLECULE
guest-s19_confgen4.mol2 : confsearch ligand conformer 243
          17          16           1
SMALL
USER_CHARGES
 
@<TRIPOS>ATOM
       1    C1      17.669530   17.091293   21.977708 C.2        1 MOL1         0.6173
       2    O1      17.548975   16.851745   23.164520 O.co2      1 MOL1        -0.6755
       3    O2      16.814929   16.814672   21.158593 O.co2      1 MOL1        -0.6755
       4    C2      18.909522   17.747857   21.482294 C.2        1 MOL1        -0.1504
       5    H1      18.953523   17.932605   20.411456 H          1 MOL1         0.0814
       6    C3      19.939688   18.111707   22.279386 C.2        1 MOL1        -0.1394
       7    H2      19.904640   17.934400   23.354064 H          1 MOL1         0.0817
       8    C4      21.197107   18.783163   21.768447 C.3        1 MOL1        -0.1849
       9    H3      21.502553   18.320283   20.820306 H          1 MOL1         0.0736
      10    H4      22.022976   18.613049   22.472219 H          1 MOL1         0.0736
      11    C5      21.006802   20.300668   21.552757 C.3        1 MOL1        -0.1866
      12    H5      21.911223   20.713131   21.084730 H          1 MOL1         0.0738
      13    H6      20.181798   20.474040   20.847960 H          1 MOL1         0.0738
      14    C6      20.731812   21.055496   22.870835 C.3        1 MOL1        -0.2879
      15    H7      21.550584   20.906628   23.586792 H          1 MOL1         0.0750
      16    H8      20.635380   22.133110   22.685482 H          1 MOL1         0.0750
      17    H9      19.800515   20.709952   23.338282 H          1 MOL1         0.0750
@<TRIPOS>BOND
    1     1     2    1
    2     1     3    2
    3     1     4    1
    4     4     5    1
    5     4     6    2
    6     6     7    1
    7     6     8    1
    8     8     9    1
    9     8    10    1
   10     8    11    1
   11    11    12    1
   12    11    13    1
   13    11    14    1
   14    14    15    1
   15    14    16    1
   16    14    17    1
@<TRIPOS>SUBSTRUCTURE
       1 MOL1            1 RESIDUE      1      MOL     
@<SCITEGIC>MOL_PROPERTY
VConf Rank
SciTegic.value.IntegerValue
243

@<SCITEGIC>MOL_PROPERTY
Conf_Id
SciTegic.value.IntegerValue
3

@<SCITEGIC>MOL_PROPERTY
Delta U+W
SciTegic.value.DoubleValue
0.531

@<SCITEGIC>MOL_PROPERTY
U+W
SciTegic.value.DoubleValue
-52.878

@<SCITEGIC>MOL_PROPERTY
Grad RMS
SciTegic.value.DoubleValue
0.000000

@<SCITEGIC>MOL_PROPERTY
U
SciTegic.value.DoubleValue
10.067

@<SCITEGIC>MOL_PROPERTY
W
SciTegic.value.DoubleValue
-62.945

@<SCITEGIC>MOL_PROPERTY
W(PB)
SciTegic.value.DoubleValue
-64.982

@<SCITEGIC>MOL_PROPERTY
W(SA)
SciTegic.value.DoubleValue
2.037

@<SCITEGIC>MOL_PROPERTY
Valence
SciTegic.value.DoubleValue
2.779

@<SCITEGIC>MOL_PROPERTY
Coulomb
SciTegic.value.DoubleValue
6.474

@<SCITEGIC>MOL_PROPERTY
VdW
SciTegic.value.DoubleValue
0.815

@<SCITEGIC>MOL_PROPERTY
VdW6
SciTegic.value.DoubleValue
-5.088

@<SCITEGIC>MOL_PROPERTY
VdW12
SciTegic.value.DoubleValue
5.902

@<SCITEGIC>MOL_PROPERTY
Bond
SciTegic.value.DoubleValue
0.078

@<SCITEGIC>MOL_PROPERTY
Angle
SciTegic.value.DoubleValue
2.651

@<SCITEGIC>MOL_PROPERTY
Pdih
SciTegic.value.DoubleValue
0.050

@<SCITEGIC>MOL_PROPERTY
Idih
SciTegic.value.DoubleValue
0.000

@<SCITEGIC>MOL_PROPERTY
Tether
SciTegic.value.DoubleValue
0.000

@<TRIPOS>MOLECULE
guest-s19_confgen4.mol2 : confsearch ligand conformer 244
          17          16           1
SMALL
USER_CHARGES
 
@<TRIPOS>ATOM
       1    C1      22.415133   20.600401   23.036300 C.2        1 MOL1         0.6173
       2    O1      23.593282   20.347245   22.876122 O.co2      1 MOL1        -0.6755
       3    O2      22.010472   21.325336   23.925775 O.co2      1 MOL1        -0.6755
       4    C2      21.445404   19.987650   22.088548 C.2        1 MOL1        -0.1504
       5    H1      21.873741   19.350899   21.317975 H          1 MOL1         0.0814
       6    C3      20.107934   20.180126   22.149485 C.2        1 MOL1        -0.1394
       7    H2      19.670129   20.813612   22.920549 H          1 MOL1         0.0817
       8    C4      19.122985   19.552709   21.184831 C.3        1 MOL1        -0.1849
       9    H3      19.639149   19.195693   20.283246 H          1 MOL1         0.0736
      10    H4      18.413953   20.320217   20.846874 H          1 MOL1         0.0736
      11    C5      18.334333   18.389910   21.825996 C.3        1 MOL1        -0.1866
      12    H5      17.819810   18.745560   22.729455 H          1 MOL1         0.0738
      13    H6      17.551969   18.059956   21.128691 H          1 MOL1         0.0738
      14    C6      19.233520   17.185934   22.179175 C.3        1 MOL1        -0.2879
      15    H7      19.990153   17.461919   22.925091 H          1 MOL1         0.0750
      16    H8      18.634513   16.365696   22.595427 H          1 MOL1         0.0750
      17    H9      19.752400   16.808862   21.288291 H          1 MOL1         0.0750
@<TRIPOS>BOND
    1     1     2    1
    2     1     3    2
    3     1     4    1
    4     4     5    1
    5     4     6    2
    6     6     7    1
    7     6     8    1
    8     8     9    1
    9     8    10    1
   10     8    11    1
   11    11    12    1
   12    11    13    1
   13    11    14    1
   14    14    15    1
   15    14    16    1
   16    14    17    1
@<TRIPOS>SUBSTRUCTURE
       1 MOL1            1 RESIDUE      1      MOL     
@<SCITEGIC>MOL_PROPERTY
VConf Rank
SciTegic.value.IntegerValue
244

@<SCITEGIC>MOL_PROPERTY
Conf_Id
SciTegic.value.IntegerValue
45

@<SCITEGIC>MOL_PROPERTY
Delta U+W
SciTegic.value.DoubleValue
0.562

@<SCITEGIC>MOL_PROPERTY
U+W
SciTegic.value.DoubleValue
-52.846

@<SCITEGIC>MOL_PROPERTY
Grad RMS
SciTegic.value.DoubleValue
0.000000

@<SCITEGIC>MOL_PROPERTY
U
SciTegic.value.DoubleValue
10.243

@<SCITEGIC>MOL_PROPERTY
W
SciTegic.value.DoubleValue
-63.089

@<SCITEGIC>MOL_PROPERTY
W(PB)
SciTegic.value.DoubleValue
-65.116

@<SCITEGIC>MOL_PROPERTY
W(SA)
SciTegic.value.DoubleValue
2.026

@<SCITEGIC>MOL_PROPERTY
Valence
SciTegic.value.DoubleValue
2.822

@<SCITEGIC>MOL_PROPERTY
Coulomb
SciTegic.value.DoubleValue
6.637

@<SCITEGIC>MOL_PROPERTY
VdW
SciTegic.value.DoubleValue
0.785

@<SCITEGIC>MOL_PROPERTY
VdW6
SciTegic.value.DoubleValue
-5.216

@<SCITEGIC>MOL_PROPERTY
VdW12
SciTegic.value.DoubleValue
6.001

@<SCITEGIC>MOL_PROPERTY
Bond
SciTegic.value.DoubleValue
0.080

@<SCITEGIC>MOL_PROPERTY
Angle
SciTegic.value.DoubleValue
2.678

@<SCITEGIC>MOL_PROPERTY
Pdih
SciTegic.value.DoubleValue
0.064

@<SCITEGIC>MOL_PROPERTY
Idih
SciTegic.value.DoubleValue
0.000

@<SCITEGIC>MOL_PROPERTY
Tether
SciTegic.value.DoubleValue
0.000

@<TRIPOS>MOLECULE
guest-s19_confgen4.mol2 : confsearch ligand conformer 245
          17          16           1
SMALL
USER_CHARGES
 
@<TRIPOS>ATOM
       1    C1      18.349344   16.694505   20.239012 C.2        1 MOL1         0.6173
       2    O1      17.536533   15.890040   20.651174 O.co2      1 MOL1        -0.6755
       3    O2      18.879531   16.598169   19.148134 O.co2      1 MOL1        -0.6755
       4    C2      18.693697   17.839375   21.124933 C.2        1 MOL1        -0.1504
       5    H1      18.184442   17.866014   22.085589 H          1 MOL1         0.0814
       6    C3      19.580276   18.806449   20.796556 C.2        1 MOL1        -0.1394
       7    H2      20.097918   18.788193   19.837657 H          1 MOL1         0.0817
       8    C4      19.926482   19.966343   21.704313 C.3        1 MOL1        -0.1849
       9    H3      19.025781   20.315945   22.227119 H          1 MOL1         0.0736
      10    H4      20.285302   20.811151   21.101043 H          1 MOL1         0.0736
      11    C5      21.005552   19.571854   22.733390 C.3        1 MOL1        -0.1866
      12    H5      20.646408   18.729360   23.340661 H          1 MOL1         0.0738
      13    H6      21.906091   19.224493   22.208092 H          1 MOL1         0.0738
      14    C6      21.370920   20.751595   23.656561 C.3        1 MOL1        -0.2879
      15    H7      21.763349   21.597363   23.076814 H          1 MOL1         0.0750
      16    H8      20.492923   21.098131   24.217337 H          1 MOL1         0.0750
      17    H9      22.139202   20.452057   24.381233 H          1 MOL1         0.0750
@<TRIPOS>BOND
    1     1     2    1
    2     1     3    2
    3     1     4    1
    4     4     5    1
    5     4     6    2
    6     6     7    1
    7     6     8    1
    8     8     9    1
    9     8    10    1
   10     8    11    1
   11    11    12    1
   12    11    13    1
   13    11    14    1
   14    14    15    1
   15    14    16    1
   16    14    17    1
@<TRIPOS>SUBSTRUCTURE
       1 MOL1            1 RESIDUE      1      MOL     
@<SCITEGIC>MOL_PROPERTY
VConf Rank
SciTegic.value.IntegerValue
245

@<SCITEGIC>MOL_PROPERTY
Conf_Id
SciTegic.value.IntegerValue
36

@<SCITEGIC>MOL_PROPERTY
Delta U+W
SciTegic.value.DoubleValue
0.000

@<SCITEGIC>MOL_PROPERTY
U+W
SciTegic.value.DoubleValue
-53.409

@<SCITEGIC>MOL_PROPERTY
Grad RMS
SciTegic.value.DoubleValue
0.000000

@<SCITEGIC>MOL_PROPERTY
U
SciTegic.value.DoubleValue
9.048

@<SCITEGIC>MOL_PROPERTY
W
SciTegic.value.DoubleValue
-62.457

@<SCITEGIC>MOL_PROPERTY
W(PB)
SciTegic.value.DoubleValue
-64.540

@<SCITEGIC>MOL_PROPERTY
W(SA)
SciTegic.value.DoubleValue
2.084

@<SCITEGIC>MOL_PROPERTY
Valence
SciTegic.value.DoubleValue
2.652

@<SCITEGIC>MOL_PROPERTY
Coulomb
SciTegic.value.DoubleValue
5.578

@<SCITEGIC>MOL_PROPERTY
VdW
SciTegic.value.DoubleValue
0.818

@<SCITEGIC>MOL_PROPERTY
VdW6
SciTegic.value.DoubleValue
-4.534

@<SCITEGIC>MOL_PROPERTY
VdW12
SciTegic.value.DoubleValue
5.352

@<SCITEGIC>MOL_PROPERTY
Bond
SciTegic.value.DoubleValue
0.063

@<SCITEGIC>MOL_PROPERTY
Angle
SciTegic.value.DoubleValue
2.579

@<SCITEGIC>MOL_PROPERTY
Pdih
SciTegic.value.DoubleValue
0.010

@<SCITEGIC>MOL_PROPERTY
Idih
SciTegic.value.DoubleValue
0.000

@<SCITEGIC>MOL_PROPERTY
Tether
SciTegic.value.DoubleValue
0.000

@<TRIPOS>MOLECULE
guest-s19_confgen4.mol2 : confsearch ligand conformer 246
          17          16           1
SMALL
USER_CHARGES
 
@<TRIPOS>ATOM
       1    C1      19.315581   16.106429   20.510655 C.2        1 MOL1         0.6173
       2    O1      18.144288   16.136247   20.182664 O.co2      1 MOL1        -0.6755
       3    O2      19.977773   15.087054   20.501648 O.co2      1 MOL1        -0.6755
       4    C2      19.989463   17.360230   20.944277 C.2        1 MOL1        -0.1504
       5    H1      21.036141   17.264233   21.223849 H          1 MOL1         0.0814
       6    C3      19.375816   18.563962   21.003886 C.2        1 MOL1        -0.1394
       7    H2      18.326874   18.671060   20.728161 H          1 MOL1         0.0817
       8    C4      20.067976   19.834029   21.447824 C.3        1 MOL1        -0.1849
       9    H3      19.557055   20.703053   21.011767 H          1 MOL1         0.0736
      10    H4      21.098045   19.853338   21.066521 H          1 MOL1         0.0736
      11    C5      20.079519   19.959853   22.985047 C.3        1 MOL1        -0.1866
      12    H5      19.048122   19.942478   23.363840 H          1 MOL1         0.0738
      13    H6      20.594007   19.093101   23.422772 H          1 MOL1         0.0738
      14    C6      20.775238   21.256609   23.445399 C.3        1 MOL1        -0.2879
      15    H7      20.261105   22.141155   23.047058 H          1 MOL1         0.0750
      16    H8      20.773622   21.328458   24.540828 H          1 MOL1         0.0750
      17    H9      21.818867   21.284444   23.105547 H          1 MOL1         0.0750
@<TRIPOS>BOND
    1     1     2    1
    2     1     3    2
    3     1     4    1
    4     4     5    1
    5     4     6    2
    6     6     7    1
    7     6     8    1
    8     8     9    1
    9     8    10    1
   10     8    11    1
   11    11    12    1
   12    11    13    1
   13    11    14    1
   14    14    15    1
   15    14    16    1
   16    14    17    1
@<TRIPOS>SUBSTRUCTURE
       1 MOL1            1 RESIDUE      1      MOL     
@<SCITEGIC>MOL_PROPERTY
VConf Rank
SciTegic.value.IntegerValue
246

@<SCITEGIC>MOL_PROPERTY
Conf_Id
SciTegic.value.IntegerValue
1

@<SCITEGIC>MOL_PROPERTY
Delta U+W
SciTegic.value.DoubleValue
0.030

@<SCITEGIC>MOL_PROPERTY
U+W
SciTegic.value.DoubleValue
-53.378

@<SCITEGIC>MOL_PROPERTY
Grad RMS
SciTegic.value.DoubleValue
0.000000

@<SCITEGIC>MOL_PROPERTY
U
SciTegic.value.DoubleValue
9.048

@<SCITEGIC>MOL_PROPERTY
W
SciTegic.value.DoubleValue
-62.426

@<SCITEGIC>MOL_PROPERTY
W(PB)
SciTegic.value.DoubleValue
-64.506

@<SCITEGIC>MOL_PROPERTY
W(SA)
SciTegic.value.DoubleValue
2.080

@<SCITEGIC>MOL_PROPERTY
Valence
SciTegic.value.DoubleValue
2.652

@<SCITEGIC>MOL_PROPERTY
Coulomb
SciTegic.value.DoubleValue
5.578

@<SCITEGIC>MOL_PROPERTY
VdW
SciTegic.value.DoubleValue
0.818

@<SCITEGIC>MOL_PROPERTY
VdW6
SciTegic.value.DoubleValue
-4.535

@<SCITEGIC>MOL_PROPERTY
VdW12
SciTegic.value.DoubleValue
5.352

@<SCITEGIC>MOL_PROPERTY
Bond
SciTegic.value.DoubleValue
0.063

@<SCITEGIC>MOL_PROPERTY
Angle
SciTegic.value.DoubleValue
2.579

@<SCITEGIC>MOL_PROPERTY
Pdih
SciTegic.value.DoubleValue
0.010

@<SCITEGIC>MOL_PROPERTY
Idih
SciTegic.value.DoubleValue
0.000

@<SCITEGIC>MOL_PROPERTY
Tether
SciTegic.value.DoubleValue
0.000

@<TRIPOS>MOLECULE
guest-s19_confgen4.mol2 : confsearch ligand conformer 247
          17          16           1
SMALL
USER_CHARGES
 
@<TRIPOS>ATOM
       1    C1      20.281045   16.956444   24.261051 C.2        1 MOL1         0.6173
       2    O1      19.165679   17.003291   24.744997 O.co2      1 MOL1        -0.6755
       3    O2      21.053116   16.041018   24.470126 O.co2      1 MOL1        -0.6755
       4    C2      20.744621   18.057551   23.374060 C.2        1 MOL1        -0.1504
       5    H1      21.751334   17.954373   22.975757 H          1 MOL1         0.0814
       6    C3      19.992595   19.135216   23.054559 C.2        1 MOL1        -0.1394
       7    H2      18.981446   19.246970   23.445309 H          1 MOL1         0.0817
       8    C4      20.469817   20.250214   22.147888 C.3        1 MOL1        -0.1849
       9    H3      21.519445   20.483603   22.372249 H          1 MOL1         0.0736
      10    H4      19.901531   21.167256   22.353747 H          1 MOL1         0.0736
      11    C5      20.340451   19.887394   20.652165 C.3        1 MOL1        -0.1866
      12    H5      20.796365   20.684231   20.048554 H          1 MOL1         0.0738
      13    H6      20.909130   18.970765   20.442828 H          1 MOL1         0.0738
      14    C6      18.872300   19.699839   20.213907 C.3        1 MOL1        -0.2879
      15    H7      18.286984   20.609248   20.402390 H          1 MOL1         0.0750
      16    H8      18.815499   19.476570   19.140673 H          1 MOL1         0.0750
      17    H9      18.400199   18.869815   20.755573 H          1 MOL1         0.0750
@<TRIPOS>BOND
    1     1     2    1
    2     1     3    2
    3     1     4    1
    4     4     5    1
    5     4     6    2
    6     6     7    1
    7     6     8    1
    8     8     9    1
    9     8    10    1
   10     8    11    1
   11    11    12    1
   12    11    13    1
   13    11    14    1
   14    14    15    1
   15    14    16    1
   16    14    17    1
@<TRIPOS>SUBSTRUCTURE
       1 MOL1            1 RESIDUE      1      MOL     
@<SCITEGIC>MOL_PROPERTY
VConf Rank
SciTegic.value.IntegerValue
247

@<SCITEGIC>MOL_PROPERTY
Conf_Id
SciTegic.value.IntegerValue
3

@<SCITEGIC>MOL_PROPERTY
Delta U+W
SciTegic.value.DoubleValue
0.531

@<SCITEGIC>MOL_PROPERTY
U+W
SciTegic.value.DoubleValue
-52.878

@<SCITEGIC>MOL_PROPERTY
Grad RMS
SciTegic.value.DoubleValue
0.000000

@<SCITEGIC>MOL_PROPERTY
U
SciTegic.value.DoubleValue
10.067

@<SCITEGIC>MOL_PROPERTY
W
SciTegic.value.DoubleValue
-62.945

@<SCITEGIC>MOL_PROPERTY
W(PB)
SciTegic.value.DoubleValue
-64.982

@<SCITEGIC>MOL_PROPERTY
W(SA)
SciTegic.value.DoubleValue
2.037

@<SCITEGIC>MOL_PROPERTY
Valence
SciTegic.value.DoubleValue
2.779

@<SCITEGIC>MOL_PROPERTY
Coulomb
SciTegic.value.DoubleValue
6.474

@<SCITEGIC>MOL_PROPERTY
VdW
SciTegic.value.DoubleValue
0.815

@<SCITEGIC>MOL_PROPERTY
VdW6
SciTegic.value.DoubleValue
-5.088

@<SCITEGIC>MOL_PROPERTY
VdW12
SciTegic.value.DoubleValue
5.902

@<SCITEGIC>MOL_PROPERTY
Bond
SciTegic.value.DoubleValue
0.078

@<SCITEGIC>MOL_PROPERTY
Angle
SciTegic.value.DoubleValue
2.651

@<SCITEGIC>MOL_PROPERTY
Pdih
SciTegic.value.DoubleValue
0.050

@<SCITEGIC>MOL_PROPERTY
Idih
SciTegic.value.DoubleValue
0.000

@<SCITEGIC>MOL_PROPERTY
Tether
SciTegic.value.DoubleValue
0.000

@<TRIPOS>MOLECULE
guest-s19_confgen4.mol2 : confsearch ligand conformer 248
          17          16           1
SMALL
USER_CHARGES
 
@<TRIPOS>ATOM
       1    C1      19.196096   21.942265   21.422961 C.2        1 MOL1         0.6173
       2    O1      19.293851   22.947427   22.099625 O.co2      1 MOL1        -0.6755
       3    O2      18.429730   21.851429   20.482280 O.co2      1 MOL1        -0.6755
       4    C2      20.064310   20.787297   21.778382 C.2        1 MOL1        -0.1504
       5    H1      20.725383   20.935531   22.629097 H          1 MOL1         0.0814
       6    C3      20.059145   19.608467   21.115120 C.2        1 MOL1        -0.1394
       7    H2      19.397305   19.450244   20.263973 H          1 MOL1         0.0817
       8    C4      20.942259   18.433509   21.481071 C.3        1 MOL1        -0.1849
       9    H3      21.771768   18.758918   22.123538 H          1 MOL1         0.0736
      10    H4      21.402422   18.032972   20.567928 H          1 MOL1         0.0736
      11    C5      20.155175   17.304570   22.181901 C.3        1 MOL1        -0.1866
      12    H5      19.323580   16.980271   21.541013 H          1 MOL1         0.0738
      13    H6      20.812914   16.433440   22.307236 H          1 MOL1         0.0738
      14    C6      19.612707   17.728031   23.563654 C.3        1 MOL1        -0.2879
      15    H7      18.899567   18.557542   23.472029 H          1 MOL1         0.0750
      16    H8      19.094002   16.890610   24.047946 H          1 MOL1         0.0750
      17    H9      20.428663   18.049199   24.224078 H          1 MOL1         0.0750
@<TRIPOS>BOND
    1     1     2    1
    2     1     3    2
    3     1     4    1
    4     4     5    1
    5     4     6    2
    6     6     7    1
    7     6     8    1
    8     8     9    1
    9     8    10    1
   10     8    11    1
   11    11    12    1
   12    11    13    1
   13    11    14    1
   14    14    15    1
   15    14    16    1
   16    14    17    1
@<TRIPOS>SUBSTRUCTURE
       1 MOL1            1 RESIDUE      1      MOL     
@<SCITEGIC>MOL_PROPERTY
VConf Rank
SciTegic.value.IntegerValue
248

@<SCITEGIC>MOL_PROPERTY
Conf_Id
SciTegic.value.IntegerValue
45

@<SCITEGIC>MOL_PROPERTY
Delta U+W
SciTegic.value.DoubleValue
0.562

@<SCITEGIC>MOL_PROPERTY
U+W
SciTegic.value.DoubleValue
-52.846

@<SCITEGIC>MOL_PROPERTY
Grad RMS
SciTegic.value.DoubleValue
0.000000

@<SCITEGIC>MOL_PROPERTY
U
SciTegic.value.DoubleValue
10.243

@<SCITEGIC>MOL_PROPERTY
W
SciTegic.value.DoubleValue
-63.089

@<SCITEGIC>MOL_PROPERTY
W(PB)
SciTegic.value.DoubleValue
-65.116

@<SCITEGIC>MOL_PROPERTY
W(SA)
SciTegic.value.DoubleValue
2.026

@<SCITEGIC>MOL_PROPERTY
Valence
SciTegic.value.DoubleValue
2.822

@<SCITEGIC>MOL_PROPERTY
Coulomb
SciTegic.value.DoubleValue
6.637

@<SCITEGIC>MOL_PROPERTY
VdW
SciTegic.value.DoubleValue
0.785

@<SCITEGIC>MOL_PROPERTY
VdW6
SciTegic.value.DoubleValue
-5.216

@<SCITEGIC>MOL_PROPERTY
VdW12
SciTegic.value.DoubleValue
6.001

@<SCITEGIC>MOL_PROPERTY
Bond
SciTegic.value.DoubleValue
0.080

@<SCITEGIC>MOL_PROPERTY
Angle
SciTegic.value.DoubleValue
2.678

@<SCITEGIC>MOL_PROPERTY
Pdih
SciTegic.value.DoubleValue
0.064

@<SCITEGIC>MOL_PROPERTY
Idih
SciTegic.value.DoubleValue
0.000

@<SCITEGIC>MOL_PROPERTY
Tether
SciTegic.value.DoubleValue
0.000

@<TRIPOS>MOLECULE
guest-s19_confgen4.mol2 : confsearch ligand conformer 249
          17          16           1
SMALL
USER_CHARGES
 
@<TRIPOS>ATOM
       1    C1      22.810074   19.933129   23.580263 C.2        1 MOL1         0.6173
       2    O1      23.080927   20.955550   24.179427 O.co2      1 MOL1        -0.6755
       3    O2      23.643665   19.093961   23.295101 O.co2      1 MOL1        -0.6755
       4    C2      21.389887   19.720373   23.190435 C.2        1 MOL1        -0.1504
       5    H1      20.696352   20.508176   23.475537 H          1 MOL1         0.0814
       6    C3      20.946966   18.631856   22.521079 C.2        1 MOL1        -0.1394
       7    H2      21.633620   17.837711   22.228484 H          1 MOL1         0.0817
       8    C4      19.501143   18.424200   22.126473 C.3        1 MOL1        -0.1849
       9    H3      18.838426   18.783110   22.925721 H          1 MOL1         0.0736
      10    H4      19.301306   17.350083   22.013665 H          1 MOL1         0.0736
      11    C5      19.168367   19.152342   20.808109 C.3        1 MOL1        -0.1866
      12    H5      19.363792   20.227845   20.920631 H          1 MOL1         0.0738
      13    H6      19.831086   18.790222   20.009836 H          1 MOL1         0.0738
      14    C6      17.698676   18.937824   20.393962 C.3        1 MOL1        -0.2879
      15    H7      17.484381   17.871574   20.243565 H          1 MOL1         0.0750
      16    H8      17.014153   19.320167   21.162518 H          1 MOL1         0.0750
      17    H9      17.480929   19.462914   19.454814 H          1 MOL1         0.0750
@<TRIPOS>BOND
    1     1     2    1
    2     1     3    2
    3     1     4    1
    4     4     5    1
    5     4     6    2
    6     6     7    1
    7     6     8    1
    8     8     9    1
    9     8    10    1
   10     8    11    1
   11    11    12    1
   12    11    13    1
   13    11    14    1
   14    14    15    1
   15    14    16    1
   16    14    17    1
@<TRIPOS>SUBSTRUCTURE
       1 MOL1            1 RESIDUE      1      MOL     
@<SCITEGIC>MOL_PROPERTY
VConf Rank
SciTegic.value.IntegerValue
249

@<SCITEGIC>MOL_PROPERTY
Conf_Id
SciTegic.value.IntegerValue
36

@<SCITEGIC>MOL_PROPERTY
Delta U+W
SciTegic.value.DoubleValue
0.000

@<SCITEGIC>MOL_PROPERTY
U+W
SciTegic.value.DoubleValue
-53.409

@<SCITEGIC>MOL_PROPERTY
Grad RMS
SciTegic.value.DoubleValue
0.000000

@<SCITEGIC>MOL_PROPERTY
U
SciTegic.value.DoubleValue
9.048

@<SCITEGIC>MOL_PROPERTY
W
SciTegic.value.DoubleValue
-62.457

@<SCITEGIC>MOL_PROPERTY
W(PB)
SciTegic.value.DoubleValue
-64.540

@<SCITEGIC>MOL_PROPERTY
W(SA)
SciTegic.value.DoubleValue
2.084

@<SCITEGIC>MOL_PROPERTY
Valence
SciTegic.value.DoubleValue
2.652

@<SCITEGIC>MOL_PROPERTY
Coulomb
SciTegic.value.DoubleValue
5.578

@<SCITEGIC>MOL_PROPERTY
VdW
SciTegic.value.DoubleValue
0.818

@<SCITEGIC>MOL_PROPERTY
VdW6
SciTegic.value.DoubleValue
-4.534

@<SCITEGIC>MOL_PROPERTY
VdW12
SciTegic.value.DoubleValue
5.352

@<SCITEGIC>MOL_PROPERTY
Bond
SciTegic.value.DoubleValue
0.063

@<SCITEGIC>MOL_PROPERTY
Angle
SciTegic.value.DoubleValue
2.579

@<SCITEGIC>MOL_PROPERTY
Pdih
SciTegic.value.DoubleValue
0.010

@<SCITEGIC>MOL_PROPERTY
Idih
SciTegic.value.DoubleValue
0.000

@<SCITEGIC>MOL_PROPERTY
Tether
SciTegic.value.DoubleValue
0.000

@<TRIPOS>MOLECULE
guest-s19_confgen4.mol2 : confsearch ligand conformer 250
          17          16           1
SMALL
USER_CHARGES
 
@<TRIPOS>ATOM
       1    C1      18.385648   16.619117   20.299867 C.2        1 MOL1         0.6173
       2    O1      17.483780   17.141515   19.672071 O.co2      1 MOL1        -0.6755
       3    O2      18.479957   15.415541   20.442053 O.co2      1 MOL1        -0.6755
       4    C2      19.431751   17.469835   20.929240 C.2        1 MOL1        -0.1504
       5    H1      20.208939   16.940179   21.475457 H          1 MOL1         0.0814
       6    C3      19.451502   18.820002   20.853433 C.2        1 MOL1        -0.1394
       7    H2      18.676568   19.360911   20.310599 H          1 MOL1         0.0817
       8    C4      20.518130   19.677925   21.498034 C.3        1 MOL1        -0.1849
       9    H3      20.593379   20.634552   20.963627 H          1 MOL1         0.0736
      10    H4      21.498384   19.190638   21.406054 H          1 MOL1         0.0736
      11    C5      20.205014   19.940806   22.985269 C.3        1 MOL1        -0.1866
      12    H5      19.225147   20.430151   23.074526 H          1 MOL1         0.0738
      13    H6      20.133438   18.984750   23.522292 H          1 MOL1         0.0738
      14    C6      21.282948   20.822445   23.647310 C.3        1 MOL1        -0.2879
      15    H7      21.353293   21.798122   23.148775 H          1 MOL1         0.0750
      16    H8      21.043202   20.998436   24.704040 H          1 MOL1         0.0750
      17    H9      22.268410   20.340807   23.599098 H          1 MOL1         0.0750
@<TRIPOS>BOND
    1     1     2    1
    2     1     3    2
    3     1     4    1
    4     4     5    1
    5     4     6    2
    6     6     7    1
    7     6     8    1
    8     8     9    1
    9     8    10    1
   10     8    11    1
   11    11    12    1
   12    11    13    1
   13    11    14    1
   14    14    15    1
   15    14    16    1
   16    14    17    1
@<TRIPOS>SUBSTRUCTURE
       1 MOL1            1 RESIDUE      1      MOL     
@<SCITEGIC>MOL_PROPERTY
VConf Rank
SciTegic.value.IntegerValue
250

@<SCITEGIC>MOL_PROPERTY
Conf_Id
SciTegic.value.IntegerValue
1

@<SCITEGIC>MOL_PROPERTY
Delta U+W
SciTegic.value.DoubleValue
0.030

@<SCITEGIC>MOL_PROPERTY
U+W
SciTegic.value.DoubleValue
-53.378

@<SCITEGIC>MOL_PROPERTY
Grad RMS
SciTegic.value.DoubleValue
0.000000

@<SCITEGIC>MOL_PROPERTY
U
SciTegic.value.DoubleValue
9.048

@<SCITEGIC>MOL_PROPERTY
W
SciTegic.value.DoubleValue
-62.426

@<SCITEGIC>MOL_PROPERTY
W(PB)
SciTegic.value.DoubleValue
-64.506

@<SCITEGIC>MOL_PROPERTY
W(SA)
SciTegic.value.DoubleValue
2.080

@<SCITEGIC>MOL_PROPERTY
Valence
SciTegic.value.DoubleValue
2.652

@<SCITEGIC>MOL_PROPERTY
Coulomb
SciTegic.value.DoubleValue
5.578

@<SCITEGIC>MOL_PROPERTY
VdW
SciTegic.value.DoubleValue
0.818

@<SCITEGIC>MOL_PROPERTY
VdW6
SciTegic.value.DoubleValue
-4.535

@<SCITEGIC>MOL_PROPERTY
VdW12
SciTegic.value.DoubleValue
5.352

@<SCITEGIC>MOL_PROPERTY
Bond
SciTegic.value.DoubleValue
0.063

@<SCITEGIC>MOL_PROPERTY
Angle
SciTegic.value.DoubleValue
2.579

@<SCITEGIC>MOL_PROPERTY
Pdih
SciTegic.value.DoubleValue
0.010

@<SCITEGIC>MOL_PROPERTY
Idih
SciTegic.value.DoubleValue
0.000

@<SCITEGIC>MOL_PROPERTY
Tether
SciTegic.value.DoubleValue
0.000

@<TRIPOS>MOLECULE
guest-s19_confgen4.mol2 : confsearch ligand conformer 251
          17          16           1
SMALL
USER_CHARGES
 
@<TRIPOS>ATOM
       1    C1      17.176780   19.532482   23.163048 C.2        1 MOL1         0.6173
       2    O1      16.695803   20.207640   22.272395 O.co2      1 MOL1        -0.6755
       3    O2      16.502464   18.984746   24.013398 O.co2      1 MOL1        -0.6755
       4    C2      18.652532   19.357487   23.238024 C.2        1 MOL1        -0.1504
       5    H1      19.016677   18.743322   24.058366 H          1 MOL1         0.0814
       6    C3      19.522175   19.906962   22.360080 C.2        1 MOL1        -0.1394
       7    H2      19.167950   20.521203   21.532535 H          1 MOL1         0.0817
       8    C4      21.022858   19.721228   22.440504 C.3        1 MOL1        -0.1849
       9    H3      21.345222   19.777138   23.489065 H          1 MOL1         0.0736
      10    H4      21.529021   20.545496   21.920240 H          1 MOL1         0.0736
      11    C5      21.481137   18.373507   21.841180 C.3        1 MOL1        -0.1866
      12    H5      22.557619   18.247739   22.021521 H          1 MOL1         0.0738
      13    H6      20.977231   17.546659   22.360629 H          1 MOL1         0.0738
      14    C6      21.209080   18.277530   20.324774 C.3        1 MOL1        -0.2879
      15    H7      21.714083   19.087931   19.783142 H          1 MOL1         0.0750
      16    H8      21.576763   17.323044   19.926435 H          1 MOL1         0.0750
      17    H9      20.134164   18.339684   20.110498 H          1 MOL1         0.0750
@<TRIPOS>BOND
    1     1     2    1
    2     1     3    2
    3     1     4    1
    4     4     5    1
    5     4     6    2
    6     6     7    1
    7     6     8    1
    8     8     9    1
    9     8    10    1
   10     8    11    1
   11    11    12    1
   12    11    13    1
   13    11    14    1
   14    14    15    1
   15    14    16    1
   16    14    17    1
@<TRIPOS>SUBSTRUCTURE
       1 MOL1            1 RESIDUE      1      MOL     
@<SCITEGIC>MOL_PROPERTY
VConf Rank
SciTegic.value.IntegerValue
251

@<SCITEGIC>MOL_PROPERTY
Conf_Id
SciTegic.value.IntegerValue
3

@<SCITEGIC>MOL_PROPERTY
Delta U+W
SciTegic.value.DoubleValue
0.531

@<SCITEGIC>MOL_PROPERTY
U+W
SciTegic.value.DoubleValue
-52.878

@<SCITEGIC>MOL_PROPERTY
Grad RMS
SciTegic.value.DoubleValue
0.000000

@<SCITEGIC>MOL_PROPERTY
U
SciTegic.value.DoubleValue
10.067

@<SCITEGIC>MOL_PROPERTY
W
SciTegic.value.DoubleValue
-62.945

@<SCITEGIC>MOL_PROPERTY
W(PB)
SciTegic.value.DoubleValue
-64.982

@<SCITEGIC>MOL_PROPERTY
W(SA)
SciTegic.value.DoubleValue
2.037

@<SCITEGIC>MOL_PROPERTY
Valence
SciTegic.value.DoubleValue
2.779

@<SCITEGIC>MOL_PROPERTY
Coulomb
SciTegic.value.DoubleValue
6.474

@<SCITEGIC>MOL_PROPERTY
VdW
SciTegic.value.DoubleValue
0.815

@<SCITEGIC>MOL_PROPERTY
VdW6
SciTegic.value.DoubleValue
-5.088

@<SCITEGIC>MOL_PROPERTY
VdW12
SciTegic.value.DoubleValue
5.902

@<SCITEGIC>MOL_PROPERTY
Bond
SciTegic.value.DoubleValue
0.078

@<SCITEGIC>MOL_PROPERTY
Angle
SciTegic.value.DoubleValue
2.651

@<SCITEGIC>MOL_PROPERTY
Pdih
SciTegic.value.DoubleValue
0.050

@<SCITEGIC>MOL_PROPERTY
Idih
SciTegic.value.DoubleValue
0.000

@<SCITEGIC>MOL_PROPERTY
Tether
SciTegic.value.DoubleValue
0.000

@<TRIPOS>MOLECULE
guest-s19_confgen4.mol2 : confsearch ligand conformer 252
          17          16           1
SMALL
USER_CHARGES
 
@<TRIPOS>ATOM
       1    C1      21.325772   19.293598   19.381883 C.2        1 MOL1         0.6173
       2    O1      21.097125   18.683534   18.355568 O.co2      1 MOL1        -0.6755
       3    O2      22.387696   19.846508   19.598805 O.co2      1 MOL1        -0.6755
       4    C2      20.242933   19.355312   20.400570 C.2        1 MOL1        -0.1504
       5    H1      19.320304   18.840307   20.143214 H          1 MOL1         0.0814
       6    C3      20.359303   19.995914   21.586181 C.2        1 MOL1        -0.1394
       7    H2      21.281474   20.511310   21.853547 H          1 MOL1         0.0817
       8    C4      19.256067   20.054642   22.622403 C.3        1 MOL1        -0.1849
       9    H3      18.288841   19.792625   22.172335 H          1 MOL1         0.0736
      10    H4      19.155946   21.087753   22.981104 H          1 MOL1         0.0736
      11    C5      19.534628   19.130659   23.828150 C.3        1 MOL1        -0.1866
      12    H5      20.503250   19.390356   24.277358 H          1 MOL1         0.0738
      13    H6      18.773037   19.308859   24.599786 H          1 MOL1         0.0738
      14    C6      19.522665   17.635199   23.445677 C.3        1 MOL1        -0.2879
      15    H7      20.315212   17.405073   22.721823 H          1 MOL1         0.0750
      16    H8      19.684752   17.008654   24.332264 H          1 MOL1         0.0750
      17    H9      18.559873   17.351419   23.001163 H          1 MOL1         0.0750
@<TRIPOS>BOND
    1     1     2    1
    2     1     3    2
    3     1     4    1
    4     4     5    1
    5     4     6    2
    6     6     7    1
    7     6     8    1
    8     8     9    1
    9     8    10    1
   10     8    11    1
   11    11    12    1
   12    11    13    1
   13    11    14    1
   14    14    15    1
   15    14    16    1
   16    14    17    1
@<TRIPOS>SUBSTRUCTURE
       1 MOL1            1 RESIDUE      1      MOL     
@<SCITEGIC>MOL_PROPERTY
VConf Rank
SciTegic.value.IntegerValue
252

@<SCITEGIC>MOL_PROPERTY
Conf_Id
SciTegic.value.IntegerValue
45

@<SCITEGIC>MOL_PROPERTY
Delta U+W
SciTegic.value.DoubleValue
0.562

@<SCITEGIC>MOL_PROPERTY
U+W
SciTegic.value.DoubleValue
-52.846

@<SCITEGIC>MOL_PROPERTY
Grad RMS
SciTegic.value.DoubleValue
0.000000

@<SCITEGIC>MOL_PROPERTY
U
SciTegic.value.DoubleValue
10.243

@<SCITEGIC>MOL_PROPERTY
W
SciTegic.value.DoubleValue
-63.089

@<SCITEGIC>MOL_PROPERTY
W(PB)
SciTegic.value.DoubleValue
-65.116

@<SCITEGIC>MOL_PROPERTY
W(SA)
SciTegic.value.DoubleValue
2.026

@<SCITEGIC>MOL_PROPERTY
Valence
SciTegic.value.DoubleValue
2.822

@<SCITEGIC>MOL_PROPERTY
Coulomb
SciTegic.value.DoubleValue
6.637

@<SCITEGIC>MOL_PROPERTY
VdW
SciTegic.value.DoubleValue
0.785

@<SCITEGIC>MOL_PROPERTY
VdW6
SciTegic.value.DoubleValue
-5.216

@<SCITEGIC>MOL_PROPERTY
VdW12
SciTegic.value.DoubleValue
6.001

@<SCITEGIC>MOL_PROPERTY
Bond
SciTegic.value.DoubleValue
0.080

@<SCITEGIC>MOL_PROPERTY
Angle
SciTegic.value.DoubleValue
2.678

@<SCITEGIC>MOL_PROPERTY
Pdih
SciTegic.value.DoubleValue
0.064

@<SCITEGIC>MOL_PROPERTY
Idih
SciTegic.value.DoubleValue
0.000

@<SCITEGIC>MOL_PROPERTY
Tether
SciTegic.value.DoubleValue
0.000

@<TRIPOS>MOLECULE
guest-s19_confgen4.mol2 : confsearch ligand conformer 253
          17          16           1
SMALL
USER_CHARGES
 
@<TRIPOS>ATOM
       1    C1      21.531851   21.109076   19.667428 C.2        1 MOL1         0.6173
       2    O1      21.049178   21.779359   18.775547 O.co2      1 MOL1        -0.6755
       3    O2      22.723341   20.876140   19.747964 O.co2      1 MOL1        -0.6755
       4    C2      20.604933   20.561584   20.694675 C.2        1 MOL1        -0.1504
       5    H1      19.553435   20.806981   20.564132 H          1 MOL1         0.0814
       6    C3      21.002454   19.800329   21.739449 C.2        1 MOL1        -0.1394
       7    H2      22.053172   19.546471   21.878449 H          1 MOL1         0.0817
       8    C4      20.052931   19.245604   22.778643 C.3        1 MOL1        -0.1849
       9    H3      19.274297   19.985522   23.008990 H          1 MOL1         0.0736
      10    H4      20.597763   19.063615   23.714819 H          1 MOL1         0.0736
      11    C5      19.398785   17.933791   22.298795 C.3        1 MOL1        -0.1866
      12    H5      18.849707   18.115090   21.364341 H          1 MOL1         0.0738
      13    H6      20.179436   17.194695   22.071000 H          1 MOL1         0.0738
      14    C6      18.436476   17.356811   23.356426 C.3        1 MOL1        -0.2879
      15    H7      18.967165   17.136309   24.291936 H          1 MOL1         0.0750
      16    H8      17.627709   18.064993   23.579608 H          1 MOL1         0.0750
      17    H9      17.981117   16.424668   22.997417 H          1 MOL1         0.0750
@<TRIPOS>BOND
    1     1     2    1
    2     1     3    2
    3     1     4    1
    4     4     5    1
    5     4     6    2
    6     6     7    1
    7     6     8    1
    8     8     9    1
    9     8    10    1
   10     8    11    1
   11    11    12    1
   12    11    13    1
   13    11    14    1
   14    14    15    1
   15    14    16    1
   16    14    17    1
@<TRIPOS>SUBSTRUCTURE
       1 MOL1            1 RESIDUE      1      MOL     
@<SCITEGIC>MOL_PROPERTY
VConf Rank
SciTegic.value.IntegerValue
253

@<SCITEGIC>MOL_PROPERTY
Conf_Id
SciTegic.value.IntegerValue
36

@<SCITEGIC>MOL_PROPERTY
Delta U+W
SciTegic.value.DoubleValue
0.000

@<SCITEGIC>MOL_PROPERTY
U+W
SciTegic.value.DoubleValue
-53.409

@<SCITEGIC>MOL_PROPERTY
Grad RMS
SciTegic.value.DoubleValue
0.000000

@<SCITEGIC>MOL_PROPERTY
U
SciTegic.value.DoubleValue
9.048

@<SCITEGIC>MOL_PROPERTY
W
SciTegic.value.DoubleValue
-62.457

@<SCITEGIC>MOL_PROPERTY
W(PB)
SciTegic.value.DoubleValue
-64.540

@<SCITEGIC>MOL_PROPERTY
W(SA)
SciTegic.value.DoubleValue
2.084

@<SCITEGIC>MOL_PROPERTY
Valence
SciTegic.value.DoubleValue
2.652

@<SCITEGIC>MOL_PROPERTY
Coulomb
SciTegic.value.DoubleValue
5.578

@<SCITEGIC>MOL_PROPERTY
VdW
SciTegic.value.DoubleValue
0.818

@<SCITEGIC>MOL_PROPERTY
VdW6
SciTegic.value.DoubleValue
-4.534

@<SCITEGIC>MOL_PROPERTY
VdW12
SciTegic.value.DoubleValue
5.352

@<SCITEGIC>MOL_PROPERTY
Bond
SciTegic.value.DoubleValue
0.063

@<SCITEGIC>MOL_PROPERTY
Angle
SciTegic.value.DoubleValue
2.579

@<SCITEGIC>MOL_PROPERTY
Pdih
SciTegic.value.DoubleValue
0.010

@<SCITEGIC>MOL_PROPERTY
Idih
SciTegic.value.DoubleValue
0.000

@<SCITEGIC>MOL_PROPERTY
Tether
SciTegic.value.DoubleValue
0.000

@<TRIPOS>MOLECULE
guest-s19_confgen4.mol2 : confsearch ligand conformer 254
          17          16           1
SMALL
USER_CHARGES
 
@<TRIPOS>ATOM
       1    C1      20.129297   17.738559   25.000538 C.2        1 MOL1         0.6173
       2    O1      20.054822   18.659158   25.792589 O.co2      1 MOL1        -0.6755
       3    O2      20.410216   16.603386   25.332457 O.co2      1 MOL1        -0.6755
       4    C2      19.867975   17.988064   23.557063 C.2        1 MOL1        -0.1504
       5    H1      19.950982   17.122878   22.903249 H          1 MOL1         0.0814
       6    C3      19.546833   19.198982   23.047521 C.2        1 MOL1        -0.1394
       7    H2      19.463134   20.072949   23.693238 H          1 MOL1         0.0817
       8    C4      19.284427   19.444573   21.577805 C.3        1 MOL1        -0.1849
       9    H3      18.639357   20.325918   21.461608 H          1 MOL1         0.0736
      10    H4      18.734921   18.596211   21.147534 H          1 MOL1         0.0736
      11    C5      20.599088   19.661162   20.800777 C.3        1 MOL1        -0.1866
      12    H5      21.145826   20.511485   21.231583 H          1 MOL1         0.0738
      13    H6      21.244010   18.778482   20.912631 H          1 MOL1         0.0738
      14    C6      20.339631   19.921380   19.303281 C.3        1 MOL1        -0.2879
      15    H7      19.722392   20.818219   19.161411 H          1 MOL1         0.0750
      16    H8      21.285713   20.072996   18.767491 H          1 MOL1         0.0750
      17    H9      19.820866   19.071331   18.840966 H          1 MOL1         0.0750
@<TRIPOS>BOND
    1     1     2    1
    2     1     3    2
    3     1     4    1
    4     4     5    1
    5     4     6    2
    6     6     7    1
    7     6     8    1
    8     8     9    1
    9     8    10    1
   10     8    11    1
   11    11    12    1
   12    11    13    1
   13    11    14    1
   14    14    15    1
   15    14    16    1
   16    14    17    1
@<TRIPOS>SUBSTRUCTURE
       1 MOL1            1 RESIDUE      1      MOL     
@<SCITEGIC>MOL_PROPERTY
VConf Rank
SciTegic.value.IntegerValue
254

@<SCITEGIC>MOL_PROPERTY
Conf_Id
SciTegic.value.IntegerValue
1

@<SCITEGIC>MOL_PROPERTY
Delta U+W
SciTegic.value.DoubleValue
0.030

@<SCITEGIC>MOL_PROPERTY
U+W
SciTegic.value.DoubleValue
-53.378

@<SCITEGIC>MOL_PROPERTY
Grad RMS
SciTegic.value.DoubleValue
0.000000

@<SCITEGIC>MOL_PROPERTY
U
SciTegic.value.DoubleValue
9.048

@<SCITEGIC>MOL_PROPERTY
W
SciTegic.value.DoubleValue
-62.426

@<SCITEGIC>MOL_PROPERTY
W(PB)
SciTegic.value.DoubleValue
-64.506

@<SCITEGIC>MOL_PROPERTY
W(SA)
SciTegic.value.DoubleValue
2.080

@<SCITEGIC>MOL_PROPERTY
Valence
SciTegic.value.DoubleValue
2.652

@<SCITEGIC>MOL_PROPERTY
Coulomb
SciTegic.value.DoubleValue
5.578

@<SCITEGIC>MOL_PROPERTY
VdW
SciTegic.value.DoubleValue
0.818

@<SCITEGIC>MOL_PROPERTY
VdW6
SciTegic.value.DoubleValue
-4.535

@<SCITEGIC>MOL_PROPERTY
VdW12
SciTegic.value.DoubleValue
5.352

@<SCITEGIC>MOL_PROPERTY
Bond
SciTegic.value.DoubleValue
0.063

@<SCITEGIC>MOL_PROPERTY
Angle
SciTegic.value.DoubleValue
2.579

@<SCITEGIC>MOL_PROPERTY
Pdih
SciTegic.value.DoubleValue
0.010

@<SCITEGIC>MOL_PROPERTY
Idih
SciTegic.value.DoubleValue
0.000

@<SCITEGIC>MOL_PROPERTY
Tether
SciTegic.value.DoubleValue
0.000

@<TRIPOS>MOLECULE
guest-s19_confgen4.mol2 : confsearch ligand conformer 255
          17          16           1
SMALL
USER_CHARGES
 
@<TRIPOS>ATOM
       1    C1      21.836214   16.685922   22.698163 C.2        1 MOL1         0.6173
       2    O1      21.430545   15.877952   21.883880 O.co2      1 MOL1        -0.6755
       3    O2      22.889698   16.553933   23.290244 O.co2      1 MOL1        -0.6755
       4    C2      21.023655   17.894788   23.002274 C.2        1 MOL1        -0.1504
       5    H1      21.442965   18.575480   23.739565 H          1 MOL1         0.0814
       6    C3      19.834917   18.170109   22.419104 C.2        1 MOL1        -0.1394
       7    H2      19.407209   17.496718   21.676669 H          1 MOL1         0.0817
       8    C4      19.015291   19.404623   22.730873 C.3        1 MOL1        -0.1849
       9    H3      19.044087   19.602755   23.810893 H          1 MOL1         0.0736
      10    H4      17.961034   19.225291   22.480521 H          1 MOL1         0.0736
      11    C5      19.520800   20.652282   21.973662 C.3        1 MOL1        -0.1866
      12    H5      18.960028   21.532505   22.317021 H          1 MOL1         0.0738
      13    H6      20.575218   20.835023   22.223133 H          1 MOL1         0.0738
      14    C6      19.364014   20.519484   20.443794 C.3        1 MOL1        -0.2879
      15    H7      18.314741   20.348682   20.169934 H          1 MOL1         0.0750
      16    H8      19.700974   21.434923   19.940469 H          1 MOL1         0.0750
      17    H9      19.960166   19.683329   20.055635 H          1 MOL1         0.0750
@<TRIPOS>BOND
    1     1     2    1
    2     1     3    2
    3     1     4    1
    4     4     5    1
    5     4     6    2
    6     6     7    1
    7     6     8    1
    8     8     9    1
    9     8    10    1
   10     8    11    1
   11    11    12    1
   12    11    13    1
   13    11    14    1
   14    14    15    1
   15    14    16    1
   16    14    17    1
@<TRIPOS>SUBSTRUCTURE
       1 MOL1            1 RESIDUE      1      MOL     
@<SCITEGIC>MOL_PROPERTY
VConf Rank
SciTegic.value.IntegerValue
255

@<SCITEGIC>MOL_PROPERTY
Conf_Id
SciTegic.value.IntegerValue
3

@<SCITEGIC>MOL_PROPERTY
Delta U+W
SciTegic.value.DoubleValue
0.531

@<SCITEGIC>MOL_PROPERTY
U+W
SciTegic.value.DoubleValue
-52.878

@<SCITEGIC>MOL_PROPERTY
Grad RMS
SciTegic.value.DoubleValue
0.000000

@<SCITEGIC>MOL_PROPERTY
U
SciTegic.value.DoubleValue
10.067

@<SCITEGIC>MOL_PROPERTY
W
SciTegic.value.DoubleValue
-62.945

@<SCITEGIC>MOL_PROPERTY
W(PB)
SciTegic.value.DoubleValue
-64.982

@<SCITEGIC>MOL_PROPERTY
W(SA)
SciTegic.value.DoubleValue
2.037

@<SCITEGIC>MOL_PROPERTY
Valence
SciTegic.value.DoubleValue
2.779

@<SCITEGIC>MOL_PROPERTY
Coulomb
SciTegic.value.DoubleValue
6.474

@<SCITEGIC>MOL_PROPERTY
VdW
SciTegic.value.DoubleValue
0.815

@<SCITEGIC>MOL_PROPERTY
VdW6
SciTegic.value.DoubleValue
-5.088

@<SCITEGIC>MOL_PROPERTY
VdW12
SciTegic.value.DoubleValue
5.902

@<SCITEGIC>MOL_PROPERTY
Bond
SciTegic.value.DoubleValue
0.078

@<SCITEGIC>MOL_PROPERTY
Angle
SciTegic.value.DoubleValue
2.651

@<SCITEGIC>MOL_PROPERTY
Pdih
SciTegic.value.DoubleValue
0.050

@<SCITEGIC>MOL_PROPERTY
Idih
SciTegic.value.DoubleValue
0.000

@<SCITEGIC>MOL_PROPERTY
Tether
SciTegic.value.DoubleValue
0.000

@<TRIPOS>MOLECULE
guest-s19_confgen4.mol2 : confsearch ligand conformer 256
          17          16           1
SMALL
USER_CHARGES
 
@<TRIPOS>ATOM
       1    C1      22.777303   17.992079   21.852725 C.2        1 MOL1         0.6173
       2    O1      23.680059   18.314064   21.104970 O.co2      1 MOL1        -0.6755
       3    O2      22.735728   16.911709   22.410865 O.co2      1 MOL1        -0.6755
       4    C2      21.689006   18.980591   22.081911 C.2        1 MOL1        -0.1504
       5    H1      21.787969   19.925531   21.552760 H          1 MOL1         0.0814
       6    C3      20.624035   18.756224   22.885080 C.2        1 MOL1        -0.1394
       7    H2      20.515225   17.810856   23.416077 H          1 MOL1         0.0817
       8    C4      19.516263   19.763528   23.114240 C.3        1 MOL1        -0.1849
       9    H3      19.838215   20.768265   22.808314 H          1 MOL1         0.0736
      10    H4      19.304844   19.825149   24.190118 H          1 MOL1         0.0736
      11    C5      18.217164   19.385705   22.369419 C.3        1 MOL1        -0.1866
      12    H5      17.895841   18.379668   22.672898 H          1 MOL1         0.0738
      13    H6      17.417033   20.075245   22.671948 H          1 MOL1         0.0738
      14    C6      18.374894   19.440742   20.834843 C.3        1 MOL1        -0.2879
      15    H7      19.123027   18.716487   20.487272 H          1 MOL1         0.0750
      16    H8      17.423694   19.205167   20.340285 H          1 MOL1         0.0750
      17    H9      18.688580   20.440711   20.508107 H          1 MOL1         0.0750
@<TRIPOS>BOND
    1     1     2    1
    2     1     3    2
    3     1     4    1
    4     4     5    1
    5     4     6    2
    6     6     7    1
    7     6     8    1
    8     8     9    1
    9     8    10    1
   10     8    11    1
   11    11    12    1
   12    11    13    1
   13    11    14    1
   14    14    15    1
   15    14    16    1
   16    14    17    1
@<TRIPOS>SUBSTRUCTURE
       1 MOL1            1 RESIDUE      1      MOL     
@<SCITEGIC>MOL_PROPERTY
VConf Rank
SciTegic.value.IntegerValue
256

@<SCITEGIC>MOL_PROPERTY
Conf_Id
SciTegic.value.IntegerValue
45

@<SCITEGIC>MOL_PROPERTY
Delta U+W
SciTegic.value.DoubleValue
0.562

@<SCITEGIC>MOL_PROPERTY
U+W
SciTegic.value.DoubleValue
-52.846

@<SCITEGIC>MOL_PROPERTY
Grad RMS
SciTegic.value.DoubleValue
0.000000

@<SCITEGIC>MOL_PROPERTY
U
SciTegic.value.DoubleValue
10.243

@<SCITEGIC>MOL_PROPERTY
W
SciTegic.value.DoubleValue
-63.089

@<SCITEGIC>MOL_PROPERTY
W(PB)
SciTegic.value.DoubleValue
-65.116

@<SCITEGIC>MOL_PROPERTY
W(SA)
SciTegic.value.DoubleValue
2.026

@<SCITEGIC>MOL_PROPERTY
Valence
SciTegic.value.DoubleValue
2.822

@<SCITEGIC>MOL_PROPERTY
Coulomb
SciTegic.value.DoubleValue
6.637

@<SCITEGIC>MOL_PROPERTY
VdW
SciTegic.value.DoubleValue
0.785

@<SCITEGIC>MOL_PROPERTY
VdW6
SciTegic.value.DoubleValue
-5.216

@<SCITEGIC>MOL_PROPERTY
VdW12
SciTegic.value.DoubleValue
6.001

@<SCITEGIC>MOL_PROPERTY
Bond
SciTegic.value.DoubleValue
0.080

@<SCITEGIC>MOL_PROPERTY
Angle
SciTegic.value.DoubleValue
2.678

@<SCITEGIC>MOL_PROPERTY
Pdih
SciTegic.value.DoubleValue
0.064

@<SCITEGIC>MOL_PROPERTY
Idih
SciTegic.value.DoubleValue
0.000

@<SCITEGIC>MOL_PROPERTY
Tether
SciTegic.value.DoubleValue
0.000

@<TRIPOS>MOLECULE
guest-s19_confgen4.mol2 : confsearch ligand conformer 257
          17          16           1
SMALL
USER_CHARGES
 
@<TRIPOS>ATOM
       1    C1      20.893606   16.471764   23.801936 C.2        1 MOL1         0.6173
       2    O1      21.818909   16.363071   24.582771 O.co2      1 MOL1        -0.6755
       3    O2      20.250111   15.519141   23.403417 O.co2      1 MOL1        -0.6755
       4    C2      20.550969   17.840062   23.328096 C.2        1 MOL1        -0.1504
       5    H1      21.164859   18.646529   23.722632 H          1 MOL1         0.0814
       6    C3      19.549095   18.108270   22.460112 C.2        1 MOL1        -0.1394
       7    H2      18.929394   17.307580   22.056826 H          1 MOL1         0.0817
       8    C4      19.208559   19.502627   21.981528 C.3        1 MOL1        -0.1849
       9    H3      19.316628   20.219767   22.806658 H          1 MOL1         0.0736
      10    H4      18.155198   19.538383   21.672433 H          1 MOL1         0.0736
      11    C5      20.107250   19.926979   20.801997 C.3        1 MOL1        -0.1866
      12    H5      21.161371   19.895789   21.110892 H          1 MOL1         0.0738
      13    H6      19.995882   19.209367   19.977255 H          1 MOL1         0.0738
      14    C6      19.760114   21.343706   20.302091 C.3        1 MOL1        -0.2879
      15    H7      18.719112   21.394547   19.956892 H          1 MOL1         0.0750
      16    H8      19.893367   22.085595   21.100391 H          1 MOL1         0.0750
      17    H9      20.409326   21.627862   19.463694 H          1 MOL1         0.0750
@<TRIPOS>BOND
    1     1     2    1
    2     1     3    2
    3     1     4    1
    4     4     5    1
    5     4     6    2
    6     6     7    1
    7     6     8    1
    8     8     9    1
    9     8    10    1
   10     8    11    1
   11    11    12    1
   12    11    13    1
   13    11    14    1
   14    14    15    1
   15    14    16    1
   16    14    17    1
@<TRIPOS>SUBSTRUCTURE
       1 MOL1            1 RESIDUE      1      MOL     
@<SCITEGIC>MOL_PROPERTY
VConf Rank
SciTegic.value.IntegerValue
257

@<SCITEGIC>MOL_PROPERTY
Conf_Id
SciTegic.value.IntegerValue
36

@<SCITEGIC>MOL_PROPERTY
Delta U+W
SciTegic.value.DoubleValue
0.000

@<SCITEGIC>MOL_PROPERTY
U+W
SciTegic.value.DoubleValue
-53.409

@<SCITEGIC>MOL_PROPERTY
Grad RMS
SciTegic.value.DoubleValue
0.000000

@<SCITEGIC>MOL_PROPERTY
U
SciTegic.value.DoubleValue
9.048

@<SCITEGIC>MOL_PROPERTY
W
SciTegic.value.DoubleValue
-62.457

@<SCITEGIC>MOL_PROPERTY
W(PB)
SciTegic.value.DoubleValue
-64.540

@<SCITEGIC>MOL_PROPERTY
W(SA)
SciTegic.value.DoubleValue
2.084

@<SCITEGIC>MOL_PROPERTY
Valence
SciTegic.value.DoubleValue
2.652

@<SCITEGIC>MOL_PROPERTY
Coulomb
SciTegic.value.DoubleValue
5.578

@<SCITEGIC>MOL_PROPERTY
VdW
SciTegic.value.DoubleValue
0.818

@<SCITEGIC>MOL_PROPERTY
VdW6
SciTegic.value.DoubleValue
-4.534

@<SCITEGIC>MOL_PROPERTY
VdW12
SciTegic.value.DoubleValue
5.352

@<SCITEGIC>MOL_PROPERTY
Bond
SciTegic.value.DoubleValue
0.063

@<SCITEGIC>MOL_PROPERTY
Angle
SciTegic.value.DoubleValue
2.579

@<SCITEGIC>MOL_PROPERTY
Pdih
SciTegic.value.DoubleValue
0.010

@<SCITEGIC>MOL_PROPERTY
Idih
SciTegic.value.DoubleValue
0.000

@<SCITEGIC>MOL_PROPERTY
Tether
SciTegic.value.DoubleValue
0.000

@<TRIPOS>MOLECULE
guest-s19_confgen4.mol2 : confsearch ligand conformer 258
          17          16           1
SMALL
USER_CHARGES
 
@<TRIPOS>ATOM
       1    C1      17.588188   16.875692   22.671819 C.2        1 MOL1         0.6173
       2    O1      17.933525   15.803990   22.210742 O.co2      1 MOL1        -0.6755
       3    O2      16.473236   17.076037   23.112782 O.co2      1 MOL1        -0.6755
       4    C2      18.555803   18.005490   22.709769 C.2        1 MOL1        -0.1504
       5    H1      18.183599   18.935075   23.134321 H          1 MOL1         0.0814
       6    C3      19.826504   17.925227   22.253739 C.2        1 MOL1        -0.1394
       7    H2      20.209041   16.999396   21.824464 H          1 MOL1         0.0817
       8    C4      20.803691   19.079652   22.294335 C.3        1 MOL1        -0.1849
       9    H3      21.831221   18.691685   22.301396 H          1 MOL1         0.0736
      10    H4      20.677149   19.646180   23.226987 H          1 MOL1         0.0736
      11    C5      20.614815   20.018540   21.085272 C.3        1 MOL1        -0.1866
      12    H5      20.743991   19.450109   20.153732 H          1 MOL1         0.0738
      13    H6      19.588357   20.410848   21.079023 H          1 MOL1         0.0738
      14    C6      21.613480   21.192996   21.114387 C.3        1 MOL1        -0.2879
      15    H7      22.649016   20.829038   21.089304 H          1 MOL1         0.0750
      16    H8      21.463966   21.849376   20.247241 H          1 MOL1         0.0750
      17    H9      21.483909   21.796403   22.022432 H          1 MOL1         0.0750
@<TRIPOS>BOND
    1     1     2    1
    2     1     3    2
    3     1     4    1
    4     4     5    1
    5     4     6    2
    6     6     7    1
    7     6     8    1
    8     8     9    1
    9     8    10    1
   10     8    11    1
   11    11    12    1
   12    11    13    1
   13    11    14    1
   14    14    15    1
   15    14    16    1
   16    14    17    1
@<TRIPOS>SUBSTRUCTURE
       1 MOL1            1 RESIDUE      1      MOL     
@<SCITEGIC>MOL_PROPERTY
VConf Rank
SciTegic.value.IntegerValue
258

@<SCITEGIC>MOL_PROPERTY
Conf_Id
SciTegic.value.IntegerValue
1

@<SCITEGIC>MOL_PROPERTY
Delta U+W
SciTegic.value.DoubleValue
0.030

@<SCITEGIC>MOL_PROPERTY
U+W
SciTegic.value.DoubleValue
-53.378

@<SCITEGIC>MOL_PROPERTY
Grad RMS
SciTegic.value.DoubleValue
0.000000

@<SCITEGIC>MOL_PROPERTY
U
SciTegic.value.DoubleValue
9.048

@<SCITEGIC>MOL_PROPERTY
W
SciTegic.value.DoubleValue
-62.426

@<SCITEGIC>MOL_PROPERTY
W(PB)
SciTegic.value.DoubleValue
-64.506

@<SCITEGIC>MOL_PROPERTY
W(SA)
SciTegic.value.DoubleValue
2.080

@<SCITEGIC>MOL_PROPERTY
Valence
SciTegic.value.DoubleValue
2.652

@<SCITEGIC>MOL_PROPERTY
Coulomb
SciTegic.value.DoubleValue
5.578

@<SCITEGIC>MOL_PROPERTY
VdW
SciTegic.value.DoubleValue
0.818

@<SCITEGIC>MOL_PROPERTY
VdW6
SciTegic.value.DoubleValue
-4.535

@<SCITEGIC>MOL_PROPERTY
VdW12
SciTegic.value.DoubleValue
5.352

@<SCITEGIC>MOL_PROPERTY
Bond
SciTegic.value.DoubleValue
0.063

@<SCITEGIC>MOL_PROPERTY
Angle
SciTegic.value.DoubleValue
2.579

@<SCITEGIC>MOL_PROPERTY
Pdih
SciTegic.value.DoubleValue
0.010

@<SCITEGIC>MOL_PROPERTY
Idih
SciTegic.value.DoubleValue
0.000

@<SCITEGIC>MOL_PROPERTY
Tether
SciTegic.value.DoubleValue
0.000

@<TRIPOS>MOLECULE
guest-s19_confgen4.mol2 : confsearch ligand conformer 259
          17          16           1
SMALL
USER_CHARGES
 
@<TRIPOS>ATOM
       1    C1      18.985561   17.743068   24.624969 C.2        1 MOL1         0.6173
       2    O1      18.904360   16.587985   24.251300 O.co2      1 MOL1        -0.6755
       3    O2      18.963345   18.060097   25.798345 O.co2      1 MOL1        -0.6755
       4    C2      19.114938   18.833438   23.620755 C.2        1 MOL1        -0.1504
       5    H1      19.181992   19.842279   24.021384 H          1 MOL1         0.0814
       6    C3      19.154151   18.626849   22.284803 C.2        1 MOL1        -0.1394
       7    H2      19.091163   17.619942   21.872772 H          1 MOL1         0.0817
       8    C4      19.289906   19.741443   21.268798 C.3        1 MOL1        -0.1849
       9    H3      18.671346   20.596027   21.574731 H          1 MOL1         0.0736
      10    H4      18.896791   19.410958   20.297956 H          1 MOL1         0.0736
      11    C5      20.752363   20.209207   21.101530 C.3        1 MOL1        -0.1866
      12    H5      20.775991   21.083489   20.436530 H          1 MOL1         0.0738
      13    H6      21.148118   20.541707   22.071194 H          1 MOL1         0.0738
      14    C6      21.662767   19.107313   20.518687 C.3        1 MOL1        -0.2879
      15    H7      21.292970   18.768131   19.542290 H          1 MOL1         0.0750
      16    H8      22.684852   19.483553   20.381964 H          1 MOL1         0.0750
      17    H9      21.710942   18.238314   21.187822 H          1 MOL1         0.0750
@<TRIPOS>BOND
    1     1     2    1
    2     1     3    2
    3     1     4    1
    4     4     5    1
    5     4     6    2
    6     6     7    1
    7     6     8    1
    8     8     9    1
    9     8    10    1
   10     8    11    1
   11    11    12    1
   12    11    13    1
   13    11    14    1
   14    14    15    1
   15    14    16    1
   16    14    17    1
@<TRIPOS>SUBSTRUCTURE
       1 MOL1            1 RESIDUE      1      MOL     
@<SCITEGIC>MOL_PROPERTY
VConf Rank
SciTegic.value.IntegerValue
259

@<SCITEGIC>MOL_PROPERTY
Conf_Id
SciTegic.value.IntegerValue
3

@<SCITEGIC>MOL_PROPERTY
Delta U+W
SciTegic.value.DoubleValue
0.531

@<SCITEGIC>MOL_PROPERTY
U+W
SciTegic.value.DoubleValue
-52.878

@<SCITEGIC>MOL_PROPERTY
Grad RMS
SciTegic.value.DoubleValue
0.000000

@<SCITEGIC>MOL_PROPERTY
U
SciTegic.value.DoubleValue
10.067

@<SCITEGIC>MOL_PROPERTY
W
SciTegic.value.DoubleValue
-62.945

@<SCITEGIC>MOL_PROPERTY
W(PB)
SciTegic.value.DoubleValue
-64.982

@<SCITEGIC>MOL_PROPERTY
W(SA)
SciTegic.value.DoubleValue
2.037

@<SCITEGIC>MOL_PROPERTY
Valence
SciTegic.value.DoubleValue
2.779

@<SCITEGIC>MOL_PROPERTY
Coulomb
SciTegic.value.DoubleValue
6.474

@<SCITEGIC>MOL_PROPERTY
VdW
SciTegic.value.DoubleValue
0.815

@<SCITEGIC>MOL_PROPERTY
VdW6
SciTegic.value.DoubleValue
-5.088

@<SCITEGIC>MOL_PROPERTY
VdW12
SciTegic.value.DoubleValue
5.902

@<SCITEGIC>MOL_PROPERTY
Bond
SciTegic.value.DoubleValue
0.078

@<SCITEGIC>MOL_PROPERTY
Angle
SciTegic.value.DoubleValue
2.651

@<SCITEGIC>MOL_PROPERTY
Pdih
SciTegic.value.DoubleValue
0.050

@<SCITEGIC>MOL_PROPERTY
Idih
SciTegic.value.DoubleValue
0.000

@<SCITEGIC>MOL_PROPERTY
Tether
SciTegic.value.DoubleValue
0.000

@<TRIPOS>MOLECULE
guest-s19_confgen4.mol2 : confsearch ligand conformer 260
          17          16           1
SMALL
USER_CHARGES
 
@<TRIPOS>ATOM
       1    C1      20.336911   17.562085   24.650491 C.2        1 MOL1         0.6173
       2    O1      20.604021   16.388441   24.820768 O.co2      1 MOL1        -0.6755
       3    O2      19.814402   18.251309   25.506296 O.co2      1 MOL1        -0.6755
       4    C2      20.676315   18.159795   23.330787 C.2        1 MOL1        -0.1504
       5    H1      21.141105   17.488815   22.612134 H          1 MOL1         0.0814
       6    C3      20.434363   19.449623   23.003088 C.2        1 MOL1        -0.1394
       7    H2      19.965695   20.127734   23.715853 H          1 MOL1         0.0817
       8    C4      20.778543   20.054506   21.657728 C.3        1 MOL1        -0.1849
       9    H3      21.502594   19.423696   21.124278 H          1 MOL1         0.0736
      10    H4      21.274450   21.021498   21.815882 H          1 MOL1         0.0736
      11    C5      19.529536   20.270606   20.775431 C.3        1 MOL1        -0.1866
      12    H5      18.803579   20.899368   21.309382 H          1 MOL1         0.0738
      13    H6      19.820161   20.824747   19.872290 H          1 MOL1         0.0738
      14    C6      18.860596   18.943624   20.357736 C.3        1 MOL1        -0.2879
      15    H7      18.497941   18.389941   21.233505 H          1 MOL1         0.0750
      16    H8      18.001873   19.134109   19.701096 H          1 MOL1         0.0750
      17    H9      19.566794   18.301824   19.815085 H          1 MOL1         0.0750
@<TRIPOS>BOND
    1     1     2    1
    2     1     3    2
    3     1     4    1
    4     4     5    1
    5     4     6    2
    6     6     7    1
    7     6     8    1
    8     8     9    1
    9     8    10    1
   10     8    11    1
   11    11    12    1
   12    11    13    1
   13    11    14    1
   14    14    15    1
   15    14    16    1
   16    14    17    1
@<TRIPOS>SUBSTRUCTURE
       1 MOL1            1 RESIDUE      1      MOL     
@<SCITEGIC>MOL_PROPERTY
VConf Rank
SciTegic.value.IntegerValue
260

@<SCITEGIC>MOL_PROPERTY
Conf_Id
SciTegic.value.IntegerValue
45

@<SCITEGIC>MOL_PROPERTY
Delta U+W
SciTegic.value.DoubleValue
0.562

@<SCITEGIC>MOL_PROPERTY
U+W
SciTegic.value.DoubleValue
-52.846

@<SCITEGIC>MOL_PROPERTY
Grad RMS
SciTegic.value.DoubleValue
0.000000

@<SCITEGIC>MOL_PROPERTY
U
SciTegic.value.DoubleValue
10.243

@<SCITEGIC>MOL_PROPERTY
W
SciTegic.value.DoubleValue
-63.089

@<SCITEGIC>MOL_PROPERTY
W(PB)
SciTegic.value.DoubleValue
-65.116

@<SCITEGIC>MOL_PROPERTY
W(SA)
SciTegic.value.DoubleValue
2.026

@<SCITEGIC>MOL_PROPERTY
Valence
SciTegic.value.DoubleValue
2.822

@<SCITEGIC>MOL_PROPERTY
Coulomb
SciTegic.value.DoubleValue
6.637

@<SCITEGIC>MOL_PROPERTY
VdW
SciTegic.value.DoubleValue
0.785

@<SCITEGIC>MOL_PROPERTY
VdW6
SciTegic.value.DoubleValue
-5.216

@<SCITEGIC>MOL_PROPERTY
VdW12
SciTegic.value.DoubleValue
6.001

@<SCITEGIC>MOL_PROPERTY
Bond
SciTegic.value.DoubleValue
0.080

@<SCITEGIC>MOL_PROPERTY
Angle
SciTegic.value.DoubleValue
2.678

@<SCITEGIC>MOL_PROPERTY
Pdih
SciTegic.value.DoubleValue
0.064

@<SCITEGIC>MOL_PROPERTY
Idih
SciTegic.value.DoubleValue
0.000

@<SCITEGIC>MOL_PROPERTY
Tether
SciTegic.value.DoubleValue
0.000

@<TRIPOS>MOLECULE
guest-s19_confgen4.mol2 : confsearch ligand conformer 261
          17          16           1
SMALL
USER_CHARGES
 
@<TRIPOS>ATOM
       1    C1      20.241034   17.283462   24.733450 C.2        1 MOL1         0.6173
       2    O1      19.522170   17.278426   25.713712 O.co2      1 MOL1        -0.6755
       3    O2      21.337275   16.755896   24.715425 O.co2      1 MOL1        -0.6755
       4    C2      19.735699   17.969952   23.513808 C.2        1 MOL1        -0.1504
       5    H1      18.749259   18.420415   23.597047 H          1 MOL1         0.0814
       6    C3      20.427697   18.054073   22.354865 C.2        1 MOL1        -0.1394
       7    H2      21.417830   17.608373   22.261263 H          1 MOL1         0.0817
       8    C4      19.907395   18.756030   21.119641 C.3        1 MOL1        -0.1849
       9    H3      18.830176   18.571501   21.008482 H          1 MOL1         0.0736
      10    H4      20.390119   18.335840   20.227002 H          1 MOL1         0.0736
      11    C5      20.171618   20.274319   21.182894 C.3        1 MOL1        -0.1866
      12    H5      19.685730   20.697035   22.073278 H          1 MOL1         0.0738
      13    H6      21.249819   20.456376   21.292008 H          1 MOL1         0.0738
      14    C6      19.652585   20.995992   19.923006 C.3        1 MOL1        -0.2879
      15    H7      20.146241   20.613919   19.019815 H          1 MOL1         0.0750
      16    H8      18.569842   20.855266   19.807676 H          1 MOL1         0.0750
      17    H9      19.849261   22.074162   19.986249 H          1 MOL1         0.0750
@<TRIPOS>BOND
    1     1     2    1
    2     1     3    2
    3     1     4    1
    4     4     5    1
    5     4     6    2
    6     6     7    1
    7     6     8    1
    8     8     9    1
    9     8    10    1
   10     8    11    1
   11    11    12    1
   12    11    13    1
   13    11    14    1
   14    14    15    1
   15    14    16    1
   16    14    17    1
@<TRIPOS>SUBSTRUCTURE
       1 MOL1            1 RESIDUE      1      MOL     
@<SCITEGIC>MOL_PROPERTY
VConf Rank
SciTegic.value.IntegerValue
261

@<SCITEGIC>MOL_PROPERTY
Conf_Id
SciTegic.value.IntegerValue
36

@<SCITEGIC>MOL_PROPERTY
Delta U+W
SciTegic.value.DoubleValue
0.000

@<SCITEGIC>MOL_PROPERTY
U+W
SciTegic.value.DoubleValue
-53.409

@<SCITEGIC>MOL_PROPERTY
Grad RMS
SciTegic.value.DoubleValue
0.000000

@<SCITEGIC>MOL_PROPERTY
U
SciTegic.value.DoubleValue
9.048

@<SCITEGIC>MOL_PROPERTY
W
SciTegic.value.DoubleValue
-62.457

@<SCITEGIC>MOL_PROPERTY
W(PB)
SciTegic.value.DoubleValue
-64.540

@<SCITEGIC>MOL_PROPERTY
W(SA)
SciTegic.value.DoubleValue
2.084

@<SCITEGIC>MOL_PROPERTY
Valence
SciTegic.value.DoubleValue
2.652

@<SCITEGIC>MOL_PROPERTY
Coulomb
SciTegic.value.DoubleValue
5.578

@<SCITEGIC>MOL_PROPERTY
VdW
SciTegic.value.DoubleValue
0.818

@<SCITEGIC>MOL_PROPERTY
VdW6
SciTegic.value.DoubleValue
-4.534

@<SCITEGIC>MOL_PROPERTY
VdW12
SciTegic.value.DoubleValue
5.352

@<SCITEGIC>MOL_PROPERTY
Bond
SciTegic.value.DoubleValue
0.063

@<SCITEGIC>MOL_PROPERTY
Angle
SciTegic.value.DoubleValue
2.579

@<SCITEGIC>MOL_PROPERTY
Pdih
SciTegic.value.DoubleValue
0.010

@<SCITEGIC>MOL_PROPERTY
Idih
SciTegic.value.DoubleValue
0.000

@<SCITEGIC>MOL_PROPERTY
Tether
SciTegic.value.DoubleValue
0.000

@<TRIPOS>MOLECULE
guest-s19_confgen4.mol2 : confsearch ligand conformer 262
          17          16           1
SMALL
USER_CHARGES
 
@<TRIPOS>ATOM
       1    C1      20.847816   19.401668   25.167448 C.2        1 MOL1         0.6173
       2    O1      20.399470   18.426342   25.740263 O.co2      1 MOL1        -0.6755
       3    O2      21.302913   20.362246   25.757263 O.co2      1 MOL1        -0.6755
       4    C2      20.851409   19.443216   23.680026 C.2        1 MOL1        -0.1504
       5    H1      21.266061   20.343042   23.231378 H          1 MOL1         0.0814
       6    C3      20.376762   18.447857   22.897046 C.2        1 MOL1        -0.1394
       7    H2      19.957162   17.542897   23.336086 H          1 MOL1         0.0817
       8    C4      20.382433   18.498846   21.384893 C.3        1 MOL1        -0.1849
       9    H3      20.379786   17.476894   20.982407 H          1 MOL1         0.0736
      10    H4      21.307286   18.972647   21.028569 H          1 MOL1         0.0736
      11    C5      19.160852   19.269713   20.844043 C.3        1 MOL1        -0.1866
      12    H5      18.237101   18.792682   21.199983 H          1 MOL1         0.0738
      13    H6      19.164221   20.293784   21.242573 H          1 MOL1         0.0738
      14    C6      19.154367   19.318240   19.302897 C.3        1 MOL1        -0.2879
      15    H7      19.119054   18.306489   18.877993 H          1 MOL1         0.0750
      16    H8      18.278752   19.870110   18.937020 H          1 MOL1         0.0750
      17    H9      20.054047   19.819058   18.921853 H          1 MOL1         0.0750
@<TRIPOS>BOND
    1     1     2    1
    2     1     3    2
    3     1     4    1
    4     4     5    1
    5     4     6    2
    6     6     7    1
    7     6     8    1
    8     8     9    1
    9     8    10    1
   10     8    11    1
   11    11    12    1
   12    11    13    1
   13    11    14    1
   14    14    15    1
   15    14    16    1
   16    14    17    1
@<TRIPOS>SUBSTRUCTURE
       1 MOL1            1 RESIDUE      1      MOL     
@<SCITEGIC>MOL_PROPERTY
VConf Rank
SciTegic.value.IntegerValue
262

@<SCITEGIC>MOL_PROPERTY
Conf_Id
SciTegic.value.IntegerValue
1

@<SCITEGIC>MOL_PROPERTY
Delta U+W
SciTegic.value.DoubleValue
0.030

@<SCITEGIC>MOL_PROPERTY
U+W
SciTegic.value.DoubleValue
-53.378

@<SCITEGIC>MOL_PROPERTY
Grad RMS
SciTegic.value.DoubleValue
0.000000

@<SCITEGIC>MOL_PROPERTY
U
SciTegic.value.DoubleValue
9.048

@<SCITEGIC>MOL_PROPERTY
W
SciTegic.value.DoubleValue
-62.426

@<SCITEGIC>MOL_PROPERTY
W(PB)
SciTegic.value.DoubleValue
-64.506

@<SCITEGIC>MOL_PROPERTY
W(SA)
SciTegic.value.DoubleValue
2.080

@<SCITEGIC>MOL_PROPERTY
Valence
SciTegic.value.DoubleValue
2.652

@<SCITEGIC>MOL_PROPERTY
Coulomb
SciTegic.value.DoubleValue
5.578

@<SCITEGIC>MOL_PROPERTY
VdW
SciTegic.value.DoubleValue
0.818

@<SCITEGIC>MOL_PROPERTY
VdW6
SciTegic.value.DoubleValue
-4.535

@<SCITEGIC>MOL_PROPERTY
VdW12
SciTegic.value.DoubleValue
5.352

@<SCITEGIC>MOL_PROPERTY
Bond
SciTegic.value.DoubleValue
0.063

@<SCITEGIC>MOL_PROPERTY
Angle
SciTegic.value.DoubleValue
2.579

@<SCITEGIC>MOL_PROPERTY
Pdih
SciTegic.value.DoubleValue
0.010

@<SCITEGIC>MOL_PROPERTY
Idih
SciTegic.value.DoubleValue
0.000

@<SCITEGIC>MOL_PROPERTY
Tether
SciTegic.value.DoubleValue
0.000

@<TRIPOS>MOLECULE
guest-s19_confgen4.mol2 : confsearch ligand conformer 263
          17          16           1
SMALL
USER_CHARGES
 
@<TRIPOS>ATOM
       1    C1      19.844272   17.042148   24.349363 C.2        1 MOL1         0.6173
       2    O1      18.637375   16.920067   24.443898 O.co2      1 MOL1        -0.6755
       3    O2      20.627901   16.259006   24.849789 O.co2      1 MOL1        -0.6755
       4    C2      20.410118   18.194023   23.596307 C.2        1 MOL1        -0.1504
       5    H1      21.495551   18.244384   23.550930 H          1 MOL1         0.0814
       6    C3      19.658153   19.139593   22.988498 C.2        1 MOL1        -0.1394
       7    H2      18.569824   19.096953   23.024804 H          1 MOL1         0.0817
       8    C4      20.241202   20.307134   22.220437 C.3        1 MOL1        -0.1849
       9    H3      21.114316   20.702003   22.757351 H          1 MOL1         0.0736
      10    H4      19.511592   21.126971   22.177653 H          1 MOL1         0.0736
      11    C5      20.662799   19.915791   20.787026 C.3        1 MOL1        -0.1866
      12    H5      21.172199   20.768328   20.317084 H          1 MOL1         0.0738
      13    H6      21.393857   19.096392   20.826627 H          1 MOL1         0.0738
      14    C6      19.462432   19.499617   19.910310 C.3        1 MOL1        -0.2879
      15    H7      18.723711   20.309128   19.846064 H          1 MOL1         0.0750
      16    H8      19.793268   19.261006   18.891232 H          1 MOL1         0.0750
      17    H9      18.962984   18.611255   20.318459 H          1 MOL1         0.0750
@<TRIPOS>BOND
    1     1     2    1
    2     1     3    2
    3     1     4    1
    4     4     5    1
    5     4     6    2
    6     6     7    1
    7     6     8    1
    8     8     9    1
    9     8    10    1
   10     8    11    1
   11    11    12    1
   12    11    13    1
   13    11    14    1
   14    14    15    1
   15    14    16    1
   16    14    17    1
@<TRIPOS>SUBSTRUCTURE
       1 MOL1            1 RESIDUE      1      MOL     
@<SCITEGIC>MOL_PROPERTY
VConf Rank
SciTegic.value.IntegerValue
263

@<SCITEGIC>MOL_PROPERTY
Conf_Id
SciTegic.value.IntegerValue
3

@<SCITEGIC>MOL_PROPERTY
Delta U+W
SciTegic.value.DoubleValue
0.531

@<SCITEGIC>MOL_PROPERTY
U+W
SciTegic.value.DoubleValue
-52.878

@<SCITEGIC>MOL_PROPERTY
Grad RMS
SciTegic.value.DoubleValue
0.000000

@<SCITEGIC>MOL_PROPERTY
U
SciTegic.value.DoubleValue
10.067

@<SCITEGIC>MOL_PROPERTY
W
SciTegic.value.DoubleValue
-62.945

@<SCITEGIC>MOL_PROPERTY
W(PB)
SciTegic.value.DoubleValue
-64.982

@<SCITEGIC>MOL_PROPERTY
W(SA)
SciTegic.value.DoubleValue
2.037

@<SCITEGIC>MOL_PROPERTY
Valence
SciTegic.value.DoubleValue
2.779

@<SCITEGIC>MOL_PROPERTY
Coulomb
SciTegic.value.DoubleValue
6.474

@<SCITEGIC>MOL_PROPERTY
VdW
SciTegic.value.DoubleValue
0.815

@<SCITEGIC>MOL_PROPERTY
VdW6
SciTegic.value.DoubleValue
-5.088

@<SCITEGIC>MOL_PROPERTY
VdW12
SciTegic.value.DoubleValue
5.902

@<SCITEGIC>MOL_PROPERTY
Bond
SciTegic.value.DoubleValue
0.078

@<SCITEGIC>MOL_PROPERTY
Angle
SciTegic.value.DoubleValue
2.651

@<SCITEGIC>MOL_PROPERTY
Pdih
SciTegic.value.DoubleValue
0.050

@<SCITEGIC>MOL_PROPERTY
Idih
SciTegic.value.DoubleValue
0.000

@<SCITEGIC>MOL_PROPERTY
Tether
SciTegic.value.DoubleValue
0.000

@<TRIPOS>MOLECULE
guest-s19_confgen4.mol2 : confsearch ligand conformer 264
          17          16           1
SMALL
USER_CHARGES
 
@<TRIPOS>ATOM
       1    C1      21.578333   20.570121   19.981041 C.2        1 MOL1         0.6173
       2    O1      21.194740   21.227131   19.032898 O.co2      1 MOL1        -0.6755
       3    O2      22.696308   20.094302   20.045674 O.co2      1 MOL1        -0.6755
       4    C2      20.621712   20.355033   21.100275 C.2        1 MOL1        -0.1504
       5    H1      19.640281   20.807398   20.978362 H          1 MOL1         0.0814
       6    C3      20.912213   19.644230   22.213807 C.2        1 MOL1        -0.1394
       7    H2      21.891858   19.184571   22.342366 H          1 MOL1         0.0817
       8    C4      19.935251   19.424694   23.350331 C.3        1 MOL1        -0.1849
       9    H3      19.110879   20.148752   23.296567 H          1 MOL1         0.0736
      10    H4      20.446206   19.614158   24.303766 H          1 MOL1         0.0736
      11    C5      19.365168   17.989431   23.364231 C.3        1 MOL1        -0.1866
      12    H5      20.189292   17.264403   23.415335 H          1 MOL1         0.0738
      13    H6      18.767547   17.849922   24.275595 H          1 MOL1         0.0738
      14    C6      18.483161   17.688740   22.133589 C.3        1 MOL1        -0.2879
      15    H7      19.063748   17.755264   21.204316 H          1 MOL1         0.0750
      16    H8      18.064592   16.675985   22.196783 H          1 MOL1         0.0750
      17    H9      17.647588   18.397586   22.066894 H          1 MOL1         0.0750
@<TRIPOS>BOND
    1     1     2    1
    2     1     3    2
    3     1     4    1
    4     4     5    1
    5     4     6    2
    6     6     7    1
    7     6     8    1
    8     8     9    1
    9     8    10    1
   10     8    11    1
   11    11    12    1
   12    11    13    1
   13    11    14    1
   14    14    15    1
   15    14    16    1
   16    14    17    1
@<TRIPOS>SUBSTRUCTURE
       1 MOL1            1 RESIDUE      1      MOL     
@<SCITEGIC>MOL_PROPERTY
VConf Rank
SciTegic.value.IntegerValue
264

@<SCITEGIC>MOL_PROPERTY
Conf_Id
SciTegic.value.IntegerValue
45

@<SCITEGIC>MOL_PROPERTY
Delta U+W
SciTegic.value.DoubleValue
0.562

@<SCITEGIC>MOL_PROPERTY
U+W
SciTegic.value.DoubleValue
-52.846

@<SCITEGIC>MOL_PROPERTY
Grad RMS
SciTegic.value.DoubleValue
0.000000

@<SCITEGIC>MOL_PROPERTY
U
SciTegic.value.DoubleValue
10.243

@<SCITEGIC>MOL_PROPERTY
W
SciTegic.value.DoubleValue
-63.089

@<SCITEGIC>MOL_PROPERTY
W(PB)
SciTegic.value.DoubleValue
-65.116

@<SCITEGIC>MOL_PROPERTY
W(SA)
SciTegic.value.DoubleValue
2.026

@<SCITEGIC>MOL_PROPERTY
Valence
SciTegic.value.DoubleValue
2.822

@<SCITEGIC>MOL_PROPERTY
Coulomb
SciTegic.value.DoubleValue
6.637

@<SCITEGIC>MOL_PROPERTY
VdW
SciTegic.value.DoubleValue
0.785

@<SCITEGIC>MOL_PROPERTY
VdW6
SciTegic.value.DoubleValue
-5.216

@<SCITEGIC>MOL_PROPERTY
VdW12
SciTegic.value.DoubleValue
6.001

@<SCITEGIC>MOL_PROPERTY
Bond
SciTegic.value.DoubleValue
0.080

@<SCITEGIC>MOL_PROPERTY
Angle
SciTegic.value.DoubleValue
2.678

@<SCITEGIC>MOL_PROPERTY
Pdih
SciTegic.value.DoubleValue
0.064

@<SCITEGIC>MOL_PROPERTY
Idih
SciTegic.value.DoubleValue
0.000

@<SCITEGIC>MOL_PROPERTY
Tether
SciTegic.value.DoubleValue
0.000

@<TRIPOS>MOLECULE
guest-s19_confgen4.mol2 : confsearch ligand conformer 265
          17          16           1
SMALL
USER_CHARGES
 
@<TRIPOS>ATOM
       1    C1      19.940420   16.699504   19.562446 C.2        1 MOL1         0.6173
       2    O1      20.649218   15.718115   19.452064 O.co2      1 MOL1        -0.6755
       3    O2      19.209321   17.089954   18.671695 O.co2      1 MOL1        -0.6755
       4    C2      19.985188   17.438251   20.853341 C.2        1 MOL1        -0.1504
       5    H1      20.658955   17.036728   21.606818 H          1 MOL1         0.0814
       6    C3      19.252877   18.544931   21.114231 C.2        1 MOL1        -0.1394
       7    H2      18.576465   18.957073   20.365646 H          1 MOL1         0.0817
       8    C4      19.305912   19.291633   22.429093 C.3        1 MOL1        -0.1849
       9    H3      19.390678   18.580212   23.261862 H          1 MOL1         0.0736
      10    H4      18.365308   19.838395   22.579761 H          1 MOL1         0.0736
      11    C5      20.489251   20.280229   22.466528 C.3        1 MOL1        -0.1866
      12    H5      21.431553   19.734162   22.320114 H          1 MOL1         0.0738
      13    H6      20.401149   20.991970   21.633923 H          1 MOL1         0.0738
      14    C6      20.544771   21.052289   23.800082 C.3        1 MOL1        -0.2879
      15    H7      19.626294   21.633137   23.956437 H          1 MOL1         0.0750
      16    H8      20.664072   20.364505   24.647523 H          1 MOL1         0.0750
      17    H9      21.392318   21.749950   23.808055 H          1 MOL1         0.0750
@<TRIPOS>BOND
    1     1     2    1
    2     1     3    2
    3     1     4    1
    4     4     5    1
    5     4     6    2
    6     6     7    1
    7     6     8    1
    8     8     9    1
    9     8    10    1
   10     8    11    1
   11    11    12    1
   12    11    13    1
   13    11    14    1
   14    14    15    1
   15    14    16    1
   16    14    17    1
@<TRIPOS>SUBSTRUCTURE
       1 MOL1            1 RESIDUE      1      MOL     
@<SCITEGIC>MOL_PROPERTY
VConf Rank
SciTegic.value.IntegerValue
265

@<SCITEGIC>MOL_PROPERTY
Conf_Id
SciTegic.value.IntegerValue
36

@<SCITEGIC>MOL_PROPERTY
Delta U+W
SciTegic.value.DoubleValue
0.000

@<SCITEGIC>MOL_PROPERTY
U+W
SciTegic.value.DoubleValue
-53.409

@<SCITEGIC>MOL_PROPERTY
Grad RMS
SciTegic.value.DoubleValue
0.000000

@<SCITEGIC>MOL_PROPERTY
U
SciTegic.value.DoubleValue
9.048

@<SCITEGIC>MOL_PROPERTY
W
SciTegic.value.DoubleValue
-62.457

@<SCITEGIC>MOL_PROPERTY
W(PB)
SciTegic.value.DoubleValue
-64.540

@<SCITEGIC>MOL_PROPERTY
W(SA)
SciTegic.value.DoubleValue
2.084

@<SCITEGIC>MOL_PROPERTY
Valence
SciTegic.value.DoubleValue
2.652

@<SCITEGIC>MOL_PROPERTY
Coulomb
SciTegic.value.DoubleValue
5.578

@<SCITEGIC>MOL_PROPERTY
VdW
SciTegic.value.DoubleValue
0.818

@<SCITEGIC>MOL_PROPERTY
VdW6
SciTegic.value.DoubleValue
-4.534

@<SCITEGIC>MOL_PROPERTY
VdW12
SciTegic.value.DoubleValue
5.352

@<SCITEGIC>MOL_PROPERTY
Bond
SciTegic.value.DoubleValue
0.063

@<SCITEGIC>MOL_PROPERTY
Angle
SciTegic.value.DoubleValue
2.579

@<SCITEGIC>MOL_PROPERTY
Pdih
SciTegic.value.DoubleValue
0.010

@<SCITEGIC>MOL_PROPERTY
Idih
SciTegic.value.DoubleValue
0.000

@<SCITEGIC>MOL_PROPERTY
Tether
SciTegic.value.DoubleValue
0.000

@<TRIPOS>MOLECULE
guest-s19_confgen4.mol2 : confsearch ligand conformer 266
          17          16           1
SMALL
USER_CHARGES
 
@<TRIPOS>ATOM
       1    C1      18.850695   21.284295   19.628137 C.2        1 MOL1         0.6173
       2    O1      17.800466   20.833764   19.210482 O.co2      1 MOL1        -0.6755
       3    O2      19.413473   22.231320   19.114202 O.co2      1 MOL1        -0.6755
       4    C2      19.493062   20.666778   20.819858 C.2        1 MOL1        -0.1504
       5    H1      20.429361   21.117314   21.141216 H          1 MOL1         0.0814
       6    C3      18.980265   19.609636   21.489615 C.2        1 MOL1        -0.1394
       7    H2      18.043940   19.149162   21.174919 H          1 MOL1         0.0817
       8    C4      19.640927   18.986392   22.699711 C.3        1 MOL1        -0.1849
       9    H3      18.882793   18.481462   23.313441 H          1 MOL1         0.0736
      10    H4      20.083304   19.769146   23.330904 H          1 MOL1         0.0736
      11    C5      20.728810   17.973906   22.286915 C.3        1 MOL1        -0.1866
      12    H5      20.283519   17.190873   21.657517 H          1 MOL1         0.0738
      13    H6      21.490365   18.478448   21.676152 H          1 MOL1         0.0738
      14    C6      21.400762   17.327241   23.514853 C.3        1 MOL1        -0.2879
      15    H7      20.665559   16.788470   24.126926 H          1 MOL1         0.0750
      16    H8      22.171060   16.610574   23.201549 H          1 MOL1         0.0750
      17    H9      21.881128   18.086951   24.145349 H          1 MOL1         0.0750
@<TRIPOS>BOND
    1     1     2    1
    2     1     3    2
    3     1     4    1
    4     4     5    1
    5     4     6    2
    6     6     7    1
    7     6     8    1
    8     8     9    1
    9     8    10    1
   10     8    11    1
   11    11    12    1
   12    11    13    1
   13    11    14    1
   14    14    15    1
   15    14    16    1
   16    14    17    1
@<TRIPOS>SUBSTRUCTURE
       1 MOL1            1 RESIDUE      1      MOL     
@<SCITEGIC>MOL_PROPERTY
VConf Rank
SciTegic.value.IntegerValue
266

@<SCITEGIC>MOL_PROPERTY
Conf_Id
SciTegic.value.IntegerValue
1

@<SCITEGIC>MOL_PROPERTY
Delta U+W
SciTegic.value.DoubleValue
0.030

@<SCITEGIC>MOL_PROPERTY
U+W
SciTegic.value.DoubleValue
-53.378

@<SCITEGIC>MOL_PROPERTY
Grad RMS
SciTegic.value.DoubleValue
0.000000

@<SCITEGIC>MOL_PROPERTY
U
SciTegic.value.DoubleValue
9.048

@<SCITEGIC>MOL_PROPERTY
W
SciTegic.value.DoubleValue
-62.426

@<SCITEGIC>MOL_PROPERTY
W(PB)
SciTegic.value.DoubleValue
-64.506

@<SCITEGIC>MOL_PROPERTY
W(SA)
SciTegic.value.DoubleValue
2.080

@<SCITEGIC>MOL_PROPERTY
Valence
SciTegic.value.DoubleValue
2.652

@<SCITEGIC>MOL_PROPERTY
Coulomb
SciTegic.value.DoubleValue
5.578

@<SCITEGIC>MOL_PROPERTY
VdW
SciTegic.value.DoubleValue
0.818

@<SCITEGIC>MOL_PROPERTY
VdW6
SciTegic.value.DoubleValue
-4.535

@<SCITEGIC>MOL_PROPERTY
VdW12
SciTegic.value.DoubleValue
5.352

@<SCITEGIC>MOL_PROPERTY
Bond
SciTegic.value.DoubleValue
0.063

@<SCITEGIC>MOL_PROPERTY
Angle
SciTegic.value.DoubleValue
2.579

@<SCITEGIC>MOL_PROPERTY
Pdih
SciTegic.value.DoubleValue
0.010

@<SCITEGIC>MOL_PROPERTY
Idih
SciTegic.value.DoubleValue
0.000

@<SCITEGIC>MOL_PROPERTY
Tether
SciTegic.value.DoubleValue
0.000

@<TRIPOS>MOLECULE
guest-s19_confgen4.mol2 : confsearch ligand conformer 267
          17          16           1
SMALL
USER_CHARGES
 
@<TRIPOS>ATOM
       1    C1      22.382027   18.844071   24.011286 C.2        1 MOL1         0.6173
       2    O1      22.312887   17.662178   24.291978 O.co2      1 MOL1        -0.6755
       3    O2      23.363396   19.521831   24.246587 O.co2      1 MOL1        -0.6755
       4    C2      21.226569   19.512579   23.353938 C.2        1 MOL1        -0.1504
       5    H1      21.353455   20.569479   23.131173 H          1 MOL1         0.0814
       6    C3      20.073902   18.882211   23.033035 C.2        1 MOL1        -0.1394
       7    H2      19.937417   17.822734   23.248623 H          1 MOL1         0.0817
       8    C4      18.903487   19.568367   22.360478 C.3        1 MOL1        -0.1849
       9    H3      18.764921   20.568575   22.792809 H          1 MOL1         0.0736
      10    H4      17.977736   19.014635   22.567020 H          1 MOL1         0.0736
      11    C5      19.097206   19.699192   20.833743 C.3        1 MOL1        -0.1866
      12    H5      18.273031   20.294210   20.416799 H          1 MOL1         0.0738
      13    H6      20.022207   20.253967   20.623920 H          1 MOL1         0.0738
      14    C6      19.140087   18.329377   20.123476 C.3        1 MOL1        -0.2879
      15    H7      18.218952   17.761761   20.309133 H          1 MOL1         0.0750
      16    H8      19.244688   18.460322   19.038663 H          1 MOL1         0.0750
      17    H9      19.989589   17.728309   20.473170 H          1 MOL1         0.0750
@<TRIPOS>BOND
    1     1     2    1
    2     1     3    2
    3     1     4    1
    4     4     5    1
    5     4     6    2
    6     6     7    1
    7     6     8    1
    8     8     9    1
    9     8    10    1
   10     8    11    1
   11    11    12    1
   12    11    13    1
   13    11    14    1
   14    14    15    1
   15    14    16    1
   16    14    17    1
@<TRIPOS>SUBSTRUCTURE
       1 MOL1            1 RESIDUE      1      MOL     
@<SCITEGIC>MOL_PROPERTY
VConf Rank
SciTegic.value.IntegerValue
267

@<SCITEGIC>MOL_PROPERTY
Conf_Id
SciTegic.value.IntegerValue
3

@<SCITEGIC>MOL_PROPERTY
Delta U+W
SciTegic.value.DoubleValue
0.531

@<SCITEGIC>MOL_PROPERTY
U+W
SciTegic.value.DoubleValue
-52.878

@<SCITEGIC>MOL_PROPERTY
Grad RMS
SciTegic.value.DoubleValue
0.000000

@<SCITEGIC>MOL_PROPERTY
U
SciTegic.value.DoubleValue
10.067

@<SCITEGIC>MOL_PROPERTY
W
SciTegic.value.DoubleValue
-62.945

@<SCITEGIC>MOL_PROPERTY
W(PB)
SciTegic.value.DoubleValue
-64.982

@<SCITEGIC>MOL_PROPERTY
W(SA)
SciTegic.value.DoubleValue
2.037

@<SCITEGIC>MOL_PROPERTY
Valence
SciTegic.value.DoubleValue
2.779

@<SCITEGIC>MOL_PROPERTY
Coulomb
SciTegic.value.DoubleValue
6.474

@<SCITEGIC>MOL_PROPERTY
VdW
SciTegic.value.DoubleValue
0.815

@<SCITEGIC>MOL_PROPERTY
VdW6
SciTegic.value.DoubleValue
-5.088

@<SCITEGIC>MOL_PROPERTY
VdW12
SciTegic.value.DoubleValue
5.902

@<SCITEGIC>MOL_PROPERTY
Bond
SciTegic.value.DoubleValue
0.078

@<SCITEGIC>MOL_PROPERTY
Angle
SciTegic.value.DoubleValue
2.651

@<SCITEGIC>MOL_PROPERTY
Pdih
SciTegic.value.DoubleValue
0.050

@<SCITEGIC>MOL_PROPERTY
Idih
SciTegic.value.DoubleValue
0.000

@<SCITEGIC>MOL_PROPERTY
Tether
SciTegic.value.DoubleValue
0.000

@<TRIPOS>MOLECULE
guest-s19_confgen4.mol2 : confsearch ligand conformer 268
          17          16           1
SMALL
USER_CHARGES
 
@<TRIPOS>ATOM
       1    C1      21.925112   21.368426   22.495053 C.2        1 MOL1         0.6173
       2    O1      22.896184   21.431073   23.223664 O.co2      1 MOL1        -0.6755
       3    O2      21.359254   22.354972   22.062639 O.co2      1 MOL1        -0.6755
       4    C2      21.427624   20.015056   22.127675 C.2        1 MOL1        -0.1504
       5    H1      21.978968   19.177244   22.548149 H          1 MOL1         0.0814
       6    C3      20.358183   19.796500   21.328856 C.2        1 MOL1        -0.1394
       7    H2      19.797908   20.630227   20.906351 H          1 MOL1         0.0817
       8    C4      19.852446   18.417484   20.958877 C.3        1 MOL1        -0.1849
       9    H3      20.621237   17.658092   21.156423 H          1 MOL1         0.0736
      10    H4      19.661015   18.384042   19.878024 H          1 MOL1         0.0736
      11    C5      18.553885   18.048614   21.709105 C.3        1 MOL1        -0.1866
      12    H5      17.785112   18.809166   21.514152 H          1 MOL1         0.0738
      13    H6      18.166208   17.101133   21.310125 H          1 MOL1         0.0738
      14    C6      18.767975   17.903327   23.230909 C.3        1 MOL1        -0.2879
      15    H7      19.094890   18.851451   23.677272 H          1 MOL1         0.0750
      16    H8      17.834978   17.603060   23.725098 H          1 MOL1         0.0750
      17    H9      19.527899   17.141852   23.449459 H          1 MOL1         0.0750
@<TRIPOS>BOND
    1     1     2    1
    2     1     3    2
    3     1     4    1
    4     4     5    1
    5     4     6    2
    6     6     7    1
    7     6     8    1
    8     8     9    1
    9     8    10    1
   10     8    11    1
   11    11    12    1
   12    11    13    1
   13    11    14    1
   14    14    15    1
   15    14    16    1
   16    14    17    1
@<TRIPOS>SUBSTRUCTURE
       1 MOL1            1 RESIDUE      1      MOL     
@<SCITEGIC>MOL_PROPERTY
VConf Rank
SciTegic.value.IntegerValue
268

@<SCITEGIC>MOL_PROPERTY
Conf_Id
SciTegic.value.IntegerValue
45

@<SCITEGIC>MOL_PROPERTY
Delta U+W
SciTegic.value.DoubleValue
0.562

@<SCITEGIC>MOL_PROPERTY
U+W
SciTegic.value.DoubleValue
-52.846

@<SCITEGIC>MOL_PROPERTY
Grad RMS
SciTegic.value.DoubleValue
0.000000

@<SCITEGIC>MOL_PROPERTY
U
SciTegic.value.DoubleValue
10.243

@<SCITEGIC>MOL_PROPERTY
W
SciTegic.value.DoubleValue
-63.089

@<SCITEGIC>MOL_PROPERTY
W(PB)
SciTegic.value.DoubleValue
-65.116

@<SCITEGIC>MOL_PROPERTY
W(SA)
SciTegic.value.DoubleValue
2.026

@<SCITEGIC>MOL_PROPERTY
Valence
SciTegic.value.DoubleValue
2.822

@<SCITEGIC>MOL_PROPERTY
Coulomb
SciTegic.value.DoubleValue
6.637

@<SCITEGIC>MOL_PROPERTY
VdW
SciTegic.value.DoubleValue
0.785

@<SCITEGIC>MOL_PROPERTY
VdW6
SciTegic.value.DoubleValue
-5.216

@<SCITEGIC>MOL_PROPERTY
VdW12
SciTegic.value.DoubleValue
6.001

@<SCITEGIC>MOL_PROPERTY
Bond
SciTegic.value.DoubleValue
0.080

@<SCITEGIC>MOL_PROPERTY
Angle
SciTegic.value.DoubleValue
2.678

@<SCITEGIC>MOL_PROPERTY
Pdih
SciTegic.value.DoubleValue
0.064

@<SCITEGIC>MOL_PROPERTY
Idih
SciTegic.value.DoubleValue
0.000

@<SCITEGIC>MOL_PROPERTY
Tether
SciTegic.value.DoubleValue
0.000

@<TRIPOS>MOLECULE
guest-s19_confgen4.mol2 : confsearch ligand conformer 269
          17          16           1
SMALL
USER_CHARGES
 
@<TRIPOS>ATOM
       1    C1      21.180113   21.432815   24.060460 C.2        1 MOL1         0.6173
       2    O1      22.286584   21.528175   24.554759 O.co2      1 MOL1        -0.6755
       3    O2      20.222097   22.069155   24.457538 O.co2      1 MOL1        -0.6755
       4    C2      21.015351   20.491175   22.920140 C.2        1 MOL1        -0.1504
       5    H1      21.910507   19.954021   22.615067 H          1 MOL1         0.0814
       6    C3      19.843886   20.284193   22.276779 C.2        1 MOL1        -0.1394
       7    H2      18.940378   20.815293   22.575745 H          1 MOL1         0.0817
       8    C4      19.684354   19.323014   21.119229 C.3        1 MOL1        -0.1849
       9    H3      20.571838   19.362754   20.473009 H          1 MOL1         0.0736
      10    H4      18.832203   19.632309   20.499097 H          1 MOL1         0.0736
      11    C5      19.465149   17.878742   21.614246 C.3        1 MOL1        -0.1866
      12    H5      20.318923   17.566227   22.231469 H          1 MOL1         0.0738
      13    H6      18.575840   17.841174   22.258674 H          1 MOL1         0.0738
      14    C6      19.292191   16.894109   20.440318 C.3        1 MOL1        -0.2879
      15    H7      18.424850   17.165506   19.824287 H          1 MOL1         0.0750
      16    H8      20.181884   16.889652   19.796996 H          1 MOL1         0.0750
      17    H9      19.137603   15.872723   20.811807 H          1 MOL1         0.0750
@<TRIPOS>BOND
    1     1     2    1
    2     1     3    2
    3     1     4    1
    4     4     5    1
    5     4     6    2
    6     6     7    1
    7     6     8    1
    8     8     9    1
    9     8    10    1
   10     8    11    1
   11    11    12    1
   12    11    13    1
   13    11    14    1
   14    14    15    1
   15    14    16    1
   16    14    17    1
@<TRIPOS>SUBSTRUCTURE
       1 MOL1            1 RESIDUE      1      MOL     
@<SCITEGIC>MOL_PROPERTY
VConf Rank
SciTegic.value.IntegerValue
269

@<SCITEGIC>MOL_PROPERTY
Conf_Id
SciTegic.value.IntegerValue
36

@<SCITEGIC>MOL_PROPERTY
Delta U+W
SciTegic.value.DoubleValue
0.000

@<SCITEGIC>MOL_PROPERTY
U+W
SciTegic.value.DoubleValue
-53.409

@<SCITEGIC>MOL_PROPERTY
Grad RMS
SciTegic.value.DoubleValue
0.000000

@<SCITEGIC>MOL_PROPERTY
U
SciTegic.value.DoubleValue
9.048

@<SCITEGIC>MOL_PROPERTY
W
SciTegic.value.DoubleValue
-62.457

@<SCITEGIC>MOL_PROPERTY
W(PB)
SciTegic.value.DoubleValue
-64.540

@<SCITEGIC>MOL_PROPERTY
W(SA)
SciTegic.value.DoubleValue
2.084

@<SCITEGIC>MOL_PROPERTY
Valence
SciTegic.value.DoubleValue
2.652

@<SCITEGIC>MOL_PROPERTY
Coulomb
SciTegic.value.DoubleValue
5.578

@<SCITEGIC>MOL_PROPERTY
VdW
SciTegic.value.DoubleValue
0.818

@<SCITEGIC>MOL_PROPERTY
VdW6
SciTegic.value.DoubleValue
-4.534

@<SCITEGIC>MOL_PROPERTY
VdW12
SciTegic.value.DoubleValue
5.352

@<SCITEGIC>MOL_PROPERTY
Bond
SciTegic.value.DoubleValue
0.063

@<SCITEGIC>MOL_PROPERTY
Angle
SciTegic.value.DoubleValue
2.579

@<SCITEGIC>MOL_PROPERTY
Pdih
SciTegic.value.DoubleValue
0.010

@<SCITEGIC>MOL_PROPERTY
Idih
SciTegic.value.DoubleValue
0.000

@<SCITEGIC>MOL_PROPERTY
Tether
SciTegic.value.DoubleValue
0.000

@<TRIPOS>MOLECULE
guest-s19_confgen4.mol2 : confsearch ligand conformer 270
          17          16           1
SMALL
USER_CHARGES
 
@<TRIPOS>ATOM
       1    C1      22.817067   20.107272   20.334820 C.2        1 MOL1         0.6173
       2    O1      22.522794   21.100929   19.697291 O.co2      1 MOL1        -0.6755
       3    O2      23.877708   19.528280   20.202474 O.co2      1 MOL1        -0.6755
       4    C2      21.853400   19.558626   21.327037 C.2        1 MOL1        -0.1504
       5    H1      22.178264   18.669550   21.862683 H          1 MOL1         0.0814
       6    C3      20.638919   20.098857   21.576581 C.2        1 MOL1        -0.1394
       7    H2      20.302518   20.988273   21.044089 H          1 MOL1         0.0817
       8    C4      19.663986   19.533513   22.586101 C.3        1 MOL1        -0.1849
       9    H3      18.991207   20.329276   22.933258 H          1 MOL1         0.0736
      10    H4      20.206180   19.174348   23.471444 H          1 MOL1         0.0736
      11    C5      18.833595   18.382687   21.981893 C.3        1 MOL1        -0.1866
      12    H5      18.290569   18.744910   21.097877 H          1 MOL1         0.0738
      13    H6      19.505062   17.583780   21.637744 H          1 MOL1         0.0738
      14    C6      17.830787   17.807042   23.001958 C.3        1 MOL1        -0.2879
      15    H7      17.126419   18.578820   23.339088 H          1 MOL1         0.0750
      16    H8      17.249700   16.990259   22.554373 H          1 MOL1         0.0750
      17    H9      18.351317   17.409313   23.883034 H          1 MOL1         0.0750
@<TRIPOS>BOND
    1     1     2    1
    2     1     3    2
    3     1     4    1
    4     4     5    1
    5     4     6    2
    6     6     7    1
    7     6     8    1
    8     8     9    1
    9     8    10    1
   10     8    11    1
   11    11    12    1
   12    11    13    1
   13    11    14    1
   14    14    15    1
   15    14    16    1
   16    14    17    1
@<TRIPOS>SUBSTRUCTURE
       1 MOL1            1 RESIDUE      1      MOL     
@<SCITEGIC>MOL_PROPERTY
VConf Rank
SciTegic.value.IntegerValue
270

@<SCITEGIC>MOL_PROPERTY
Conf_Id
SciTegic.value.IntegerValue
1

@<SCITEGIC>MOL_PROPERTY
Delta U+W
SciTegic.value.DoubleValue
0.030

@<SCITEGIC>MOL_PROPERTY
U+W
SciTegic.value.DoubleValue
-53.378

@<SCITEGIC>MOL_PROPERTY
Grad RMS
SciTegic.value.DoubleValue
0.000000

@<SCITEGIC>MOL_PROPERTY
U
SciTegic.value.DoubleValue
9.048

@<SCITEGIC>MOL_PROPERTY
W
SciTegic.value.DoubleValue
-62.426

@<SCITEGIC>MOL_PROPERTY
W(PB)
SciTegic.value.DoubleValue
-64.506

@<SCITEGIC>MOL_PROPERTY
W(SA)
SciTegic.value.DoubleValue
2.080

@<SCITEGIC>MOL_PROPERTY
Valence
SciTegic.value.DoubleValue
2.652

@<SCITEGIC>MOL_PROPERTY
Coulomb
SciTegic.value.DoubleValue
5.578

@<SCITEGIC>MOL_PROPERTY
VdW
SciTegic.value.DoubleValue
0.818

@<SCITEGIC>MOL_PROPERTY
VdW6
SciTegic.value.DoubleValue
-4.535

@<SCITEGIC>MOL_PROPERTY
VdW12
SciTegic.value.DoubleValue
5.352

@<SCITEGIC>MOL_PROPERTY
Bond
SciTegic.value.DoubleValue
0.063

@<SCITEGIC>MOL_PROPERTY
Angle
SciTegic.value.DoubleValue
2.579

@<SCITEGIC>MOL_PROPERTY
Pdih
SciTegic.value.DoubleValue
0.010

@<SCITEGIC>MOL_PROPERTY
Idih
SciTegic.value.DoubleValue
0.000

@<SCITEGIC>MOL_PROPERTY
Tether
SciTegic.value.DoubleValue
0.000

@<TRIPOS>MOLECULE
guest-s19_confgen4.mol2 : confsearch ligand conformer 271
          17          16           1
SMALL
USER_CHARGES
 
@<TRIPOS>ATOM
       1    C1      22.601706   17.961410   20.806046 C.2        1 MOL1         0.6173
       2    O1      22.850834   17.066226   21.591554 O.co2      1 MOL1        -0.6755
       3    O2      23.121415   18.041115   19.709980 O.co2      1 MOL1        -0.6755
       4    C2      21.624211   19.018512   21.181718 C.2        1 MOL1        -0.1504
       5    H1      21.448029   19.789213   20.434898 H          1 MOL1         0.0814
       6    C3      20.970991   19.054669   22.365349 C.2        1 MOL1        -0.1394
       7    H2      21.137435   18.285714   23.119407 H          1 MOL1         0.0817
       8    C4      19.974438   20.131769   22.739183 C.3        1 MOL1        -0.1849
       9    H3      20.342478   21.108665   22.397500 H          1 MOL1         0.0736
      10    H4      19.892431   20.200754   23.832256 H          1 MOL1         0.0736
      11    C5      18.577561   19.876354   22.131680 C.3        1 MOL1        -0.1866
      12    H5      17.929576   20.737228   22.346539 H          1 MOL1         0.0738
      13    H6      18.656211   19.808072   21.037797 H          1 MOL1         0.0738
      14    C6      17.916446   18.596476   22.686254 C.3        1 MOL1        -0.2879
      15    H7      17.815960   18.647925   23.778225 H          1 MOL1         0.0750
      16    H8      16.913827   18.464080   22.259485 H          1 MOL1         0.0750
      17    H9      18.508006   17.705618   22.437960 H          1 MOL1         0.0750
@<TRIPOS>BOND
    1     1     2    1
    2     1     3    2
    3     1     4    1
    4     4     5    1
    5     4     6    2
    6     6     7    1
    7     6     8    1
    8     8     9    1
    9     8    10    1
   10     8    11    1
   11    11    12    1
   12    11    13    1
   13    11    14    1
   14    14    15    1
   15    14    16    1
   16    14    17    1
@<TRIPOS>SUBSTRUCTURE
       1 MOL1            1 RESIDUE      1      MOL     
@<SCITEGIC>MOL_PROPERTY
VConf Rank
SciTegic.value.IntegerValue
271

@<SCITEGIC>MOL_PROPERTY
Conf_Id
SciTegic.value.IntegerValue
3

@<SCITEGIC>MOL_PROPERTY
Delta U+W
SciTegic.value.DoubleValue
0.531

@<SCITEGIC>MOL_PROPERTY
U+W
SciTegic.value.DoubleValue
-52.878

@<SCITEGIC>MOL_PROPERTY
Grad RMS
SciTegic.value.DoubleValue
0.000000

@<SCITEGIC>MOL_PROPERTY
U
SciTegic.value.DoubleValue
10.067

@<SCITEGIC>MOL_PROPERTY
W
SciTegic.value.DoubleValue
-62.945

@<SCITEGIC>MOL_PROPERTY
W(PB)
SciTegic.value.DoubleValue
-64.982

@<SCITEGIC>MOL_PROPERTY
W(SA)
SciTegic.value.DoubleValue
2.037

@<SCITEGIC>MOL_PROPERTY
Valence
SciTegic.value.DoubleValue
2.779

@<SCITEGIC>MOL_PROPERTY
Coulomb
SciTegic.value.DoubleValue
6.474

@<SCITEGIC>MOL_PROPERTY
VdW
SciTegic.value.DoubleValue
0.815

@<SCITEGIC>MOL_PROPERTY
VdW6
SciTegic.value.DoubleValue
-5.088

@<SCITEGIC>MOL_PROPERTY
VdW12
SciTegic.value.DoubleValue
5.902

@<SCITEGIC>MOL_PROPERTY
Bond
SciTegic.value.DoubleValue
0.078

@<SCITEGIC>MOL_PROPERTY
Angle
SciTegic.value.DoubleValue
2.651

@<SCITEGIC>MOL_PROPERTY
Pdih
SciTegic.value.DoubleValue
0.050

@<SCITEGIC>MOL_PROPERTY
Idih
SciTegic.value.DoubleValue
0.000

@<SCITEGIC>MOL_PROPERTY
Tether
SciTegic.value.DoubleValue
0.000

@<TRIPOS>MOLECULE
guest-s19_confgen4.mol2 : confsearch ligand conformer 272
          17          16           1
SMALL
USER_CHARGES
 
@<TRIPOS>ATOM
       1    C1      17.852171   19.788128   20.044536 C.2        1 MOL1         0.6173
       2    O1      17.181097   19.053357   19.346288 O.co2      1 MOL1        -0.6755
       3    O2      18.031607   20.963270   19.785130 O.co2      1 MOL1        -0.6755
       4    C2      18.467879   19.202290   21.265916 C.2        1 MOL1        -0.1504
       5    H1      18.267546   18.147355   21.438210 H          1 MOL1         0.0814
       6    C3      19.238670   19.900862   22.130476 C.2        1 MOL1        -0.1394
       7    H2      19.447416   20.957289   21.963432 H          1 MOL1         0.0817
       8    C4      19.866382   19.300952   23.371614 C.3        1 MOL1        -0.1849
       9    H3      19.376572   18.352985   23.632733 H          1 MOL1         0.0736
      10    H4      19.696995   19.976134   24.220994 H          1 MOL1         0.0736
      11    C5      21.385072   19.072609   23.208501 C.3        1 MOL1        -0.1866
      12    H5      21.875477   20.019902   22.944686 H          1 MOL1         0.0738
      13    H6      21.806186   18.759457   24.173797 H          1 MOL1         0.0738
      14    C6      21.714034   18.002701   22.145528 C.3        1 MOL1        -0.2879
      15    H7      21.364334   18.311012   21.151693 H          1 MOL1         0.0750
      16    H8      22.797752   17.839172   22.084873 H          1 MOL1         0.0750
      17    H9      21.239690   17.044245   22.393422 H          1 MOL1         0.0750
@<TRIPOS>BOND
    1     1     2    1
    2     1     3    2
    3     1     4    1
    4     4     5    1
    5     4     6    2
    6     6     7    1
    7     6     8    1
    8     8     9    1
    9     8    10    1
   10     8    11    1
   11    11    12    1
   12    11    13    1
   13    11    14    1
   14    14    15    1
   15    14    16    1
   16    14    17    1
@<TRIPOS>SUBSTRUCTURE
       1 MOL1            1 RESIDUE      1      MOL     
@<SCITEGIC>MOL_PROPERTY
VConf Rank
SciTegic.value.IntegerValue
272

@<SCITEGIC>MOL_PROPERTY
Conf_Id
SciTegic.value.IntegerValue
45

@<SCITEGIC>MOL_PROPERTY
Delta U+W
SciTegic.value.DoubleValue
0.562

@<SCITEGIC>MOL_PROPERTY
U+W
SciTegic.value.DoubleValue
-52.846

@<SCITEGIC>MOL_PROPERTY
Grad RMS
SciTegic.value.DoubleValue
0.000000

@<SCITEGIC>MOL_PROPERTY
U
SciTegic.value.DoubleValue
10.243

@<SCITEGIC>MOL_PROPERTY
W
SciTegic.value.DoubleValue
-63.089

@<SCITEGIC>MOL_PROPERTY
W(PB)
SciTegic.value.DoubleValue
-65.116

@<SCITEGIC>MOL_PROPERTY
W(SA)
SciTegic.value.DoubleValue
2.026

@<SCITEGIC>MOL_PROPERTY
Valence
SciTegic.value.DoubleValue
2.822

@<SCITEGIC>MOL_PROPERTY
Coulomb
SciTegic.value.DoubleValue
6.637

@<SCITEGIC>MOL_PROPERTY
VdW
SciTegic.value.DoubleValue
0.785

@<SCITEGIC>MOL_PROPERTY
VdW6
SciTegic.value.DoubleValue
-5.216

@<SCITEGIC>MOL_PROPERTY
VdW12
SciTegic.value.DoubleValue
6.001

@<SCITEGIC>MOL_PROPERTY
Bond
SciTegic.value.DoubleValue
0.080

@<SCITEGIC>MOL_PROPERTY
Angle
SciTegic.value.DoubleValue
2.678

@<SCITEGIC>MOL_PROPERTY
Pdih
SciTegic.value.DoubleValue
0.064

@<SCITEGIC>MOL_PROPERTY
Idih
SciTegic.value.DoubleValue
0.000

@<SCITEGIC>MOL_PROPERTY
Tether
SciTegic.value.DoubleValue
0.000

@<TRIPOS>MOLECULE
guest-s19_confgen4.mol2 : confsearch ligand conformer 273
          17          16           1
SMALL
USER_CHARGES
 
@<TRIPOS>ATOM
       1    C1      20.912318   16.658549   19.795567 C.2        1 MOL1         0.6173
       2    O1      20.225939   15.816761   19.249692 O.co2      1 MOL1        -0.6755
       3    O2      22.127134   16.599829   19.829763 O.co2      1 MOL1        -0.6755
       4    C2      20.213356   17.802107   20.442011 C.2        1 MOL1        -0.1504
       5    H1      19.127834   17.794021   20.375041 H          1 MOL1         0.0814
       6    C3      20.848996   18.807936   21.084938 C.2        1 MOL1        -0.1394
       7    H2      21.936127   18.824697   21.160024 H          1 MOL1         0.0817
       8    C4      20.130466   19.966240   21.741661 C.3        1 MOL1        -0.1849
       9    H3      19.272248   20.272369   21.128020 H          1 MOL1         0.0736
      10    H4      20.802244   20.833617   21.794191 H          1 MOL1         0.0736
      11    C5      19.650870   19.598184   23.160652 C.3        1 MOL1        -0.1866
      12    H5      18.975246   18.733044   23.109415 H          1 MOL1         0.0738
      13    H6      20.511223   19.294325   23.773050 H          1 MOL1         0.0738
      14    C6      18.925618   20.776823   23.840610 C.3        1 MOL1        -0.2879
      15    H7      19.589823   21.646104   23.933424 H          1 MOL1         0.0750
      16    H8      18.042295   21.080186   23.263421 H          1 MOL1         0.0750
      17    H9      18.592013   20.496246   24.848139 H          1 MOL1         0.0750
@<TRIPOS>BOND
    1     1     2    1
    2     1     3    2
    3     1     4    1
    4     4     5    1
    5     4     6    2
    6     6     7    1
    7     6     8    1
    8     8     9    1
    9     8    10    1
   10     8    11    1
   11    11    12    1
   12    11    13    1
   13    11    14    1
   14    14    15    1
   15    14    16    1
   16    14    17    1
@<TRIPOS>SUBSTRUCTURE
       1 MOL1            1 RESIDUE      1      MOL     
@<SCITEGIC>MOL_PROPERTY
VConf Rank
SciTegic.value.IntegerValue
273

@<SCITEGIC>MOL_PROPERTY
Conf_Id
SciTegic.value.IntegerValue
36

@<SCITEGIC>MOL_PROPERTY
Delta U+W
SciTegic.value.DoubleValue
0.000

@<SCITEGIC>MOL_PROPERTY
U+W
SciTegic.value.DoubleValue
-53.409

@<SCITEGIC>MOL_PROPERTY
Grad RMS
SciTegic.value.DoubleValue
0.000000

@<SCITEGIC>MOL_PROPERTY
U
SciTegic.value.DoubleValue
9.048

@<SCITEGIC>MOL_PROPERTY
W
SciTegic.value.DoubleValue
-62.457

@<SCITEGIC>MOL_PROPERTY
W(PB)
SciTegic.value.DoubleValue
-64.540

@<SCITEGIC>MOL_PROPERTY
W(SA)
SciTegic.value.DoubleValue
2.084

@<SCITEGIC>MOL_PROPERTY
Valence
SciTegic.value.DoubleValue
2.652

@<SCITEGIC>MOL_PROPERTY
Coulomb
SciTegic.value.DoubleValue
5.578

@<SCITEGIC>MOL_PROPERTY
VdW
SciTegic.value.DoubleValue
0.818

@<SCITEGIC>MOL_PROPERTY
VdW6
SciTegic.value.DoubleValue
-4.534

@<SCITEGIC>MOL_PROPERTY
VdW12
SciTegic.value.DoubleValue
5.352

@<SCITEGIC>MOL_PROPERTY
Bond
SciTegic.value.DoubleValue
0.063

@<SCITEGIC>MOL_PROPERTY
Angle
SciTegic.value.DoubleValue
2.579

@<SCITEGIC>MOL_PROPERTY
Pdih
SciTegic.value.DoubleValue
0.010

@<SCITEGIC>MOL_PROPERTY
Idih
SciTegic.value.DoubleValue
0.000

@<SCITEGIC>MOL_PROPERTY
Tether
SciTegic.value.DoubleValue
0.000

@<TRIPOS>MOLECULE
guest-s19_confgen4.mol2 : confsearch ligand conformer 274
          17          16           1
SMALL
USER_CHARGES
 
@<TRIPOS>ATOM
       1    C1      20.613548   21.581521   19.716629 C.2        1 MOL1         0.6173
       2    O1      20.841247   22.581992   20.370544 O.co2      1 MOL1        -0.6755
       3    O2      20.437677   21.604886   18.514036 O.co2      1 MOL1        -0.6755
       4    C2      20.543841   20.259546   20.396103 C.2        1 MOL1        -0.1504
       5    H1      20.337177   19.406275   19.754130 H          1 MOL1         0.0814
       6    C3      20.718021   20.085474   21.725933 C.2        1 MOL1        -0.1394
       7    H2      20.923379   20.933718   22.378684 H          1 MOL1         0.0817
       8    C4      20.643656   18.737662   22.409387 C.3        1 MOL1        -0.1849
       9    H3      21.227781   18.764021   23.339167 H          1 MOL1         0.0736
      10    H4      21.102753   17.968355   21.773617 H          1 MOL1         0.0736
      11    C5      19.185367   18.348307   22.726898 C.3        1 MOL1        -0.1866
      12    H5      18.729044   19.118139   23.364624 H          1 MOL1         0.0738
      13    H6      18.600455   18.317471   21.797120 H          1 MOL1         0.0738
      14    C6      19.101668   16.979654   23.432099 C.3        1 MOL1        -0.2879
      15    H7      19.652645   16.992478   24.381672 H          1 MOL1         0.0750
      16    H8      18.057488   16.719952   23.649753 H          1 MOL1         0.0750
      17    H9      19.523745   16.186283   22.801346 H          1 MOL1         0.0750
@<TRIPOS>BOND
    1     1     2    1
    2     1     3    2
    3     1     4    1
    4     4     5    1
    5     4     6    2
    6     6     7    1
    7     6     8    1
    8     8     9    1
    9     8    10    1
   10     8    11    1
   11    11    12    1
   12    11    13    1
   13    11    14    1
   14    14    15    1
   15    14    16    1
   16    14    17    1
@<TRIPOS>SUBSTRUCTURE
       1 MOL1            1 RESIDUE      1      MOL     
@<SCITEGIC>MOL_PROPERTY
VConf Rank
SciTegic.value.IntegerValue
274

@<SCITEGIC>MOL_PROPERTY
Conf_Id
SciTegic.value.IntegerValue
1

@<SCITEGIC>MOL_PROPERTY
Delta U+W
SciTegic.value.DoubleValue
0.030

@<SCITEGIC>MOL_PROPERTY
U+W
SciTegic.value.DoubleValue
-53.378

@<SCITEGIC>MOL_PROPERTY
Grad RMS
SciTegic.value.DoubleValue
0.000000

@<SCITEGIC>MOL_PROPERTY
U
SciTegic.value.DoubleValue
9.048

@<SCITEGIC>MOL_PROPERTY
W
SciTegic.value.DoubleValue
-62.426

@<SCITEGIC>MOL_PROPERTY
W(PB)
SciTegic.value.DoubleValue
-64.506

@<SCITEGIC>MOL_PROPERTY
W(SA)
SciTegic.value.DoubleValue
2.080

@<SCITEGIC>MOL_PROPERTY
Valence
SciTegic.value.DoubleValue
2.652

@<SCITEGIC>MOL_PROPERTY
Coulomb
SciTegic.value.DoubleValue
5.578

@<SCITEGIC>MOL_PROPERTY
VdW
SciTegic.value.DoubleValue
0.818

@<SCITEGIC>MOL_PROPERTY
VdW6
SciTegic.value.DoubleValue
-4.535

@<SCITEGIC>MOL_PROPERTY
VdW12
SciTegic.value.DoubleValue
5.352

@<SCITEGIC>MOL_PROPERTY
Bond
SciTegic.value.DoubleValue
0.063

@<SCITEGIC>MOL_PROPERTY
Angle
SciTegic.value.DoubleValue
2.579

@<SCITEGIC>MOL_PROPERTY
Pdih
SciTegic.value.DoubleValue
0.010

@<SCITEGIC>MOL_PROPERTY
Idih
SciTegic.value.DoubleValue
0.000

@<SCITEGIC>MOL_PROPERTY
Tether
SciTegic.value.DoubleValue
0.000

@<TRIPOS>MOLECULE
guest-s19_confgen4.mol2 : confsearch ligand conformer 275
          17          16           1
SMALL
USER_CHARGES
 
@<TRIPOS>ATOM
       1    C1      17.163155   17.956200   21.771867 C.2        1 MOL1         0.6173
       2    O1      17.263287   16.943225   22.438423 O.co2      1 MOL1        -0.6755
       3    O2      16.091455   18.426342   21.442874 O.co2      1 MOL1        -0.6755
       4    C2      18.391717   18.666746   21.324818 C.2        1 MOL1        -0.1504
       5    H1      18.231805   19.564322   20.731906 H          1 MOL1         0.0814
       6    C3      19.647264   18.258479   21.617914 C.2        1 MOL1        -0.1394
       7    H2      19.818885   17.362523   22.214074 H          1 MOL1         0.0817
       8    C4      20.893032   18.989088   21.162626 C.3        1 MOL1        -0.1849
       9    H3      20.760922   19.332820   20.127773 H          1 MOL1         0.0736
      10    H4      21.746608   18.298062   21.149080 H          1 MOL1         0.0736
      11    C5      21.224386   20.201471   22.060343 C.3        1 MOL1        -0.1866
      12    H5      22.069544   20.751286   21.623806 H          1 MOL1         0.0738
      13    H6      20.372523   20.895406   22.074898 H          1 MOL1         0.0738
      14    C6      21.582962   19.788181   23.503716 C.3        1 MOL1        -0.2879
      15    H7      22.440996   19.103486   23.514466 H          1 MOL1         0.0750
      16    H8      21.844941   20.669327   24.103597 H          1 MOL1         0.0750
      17    H9      20.738073   19.286835   23.993651 H          1 MOL1         0.0750
@<TRIPOS>BOND
    1     1     2    1
    2     1     3    2
    3     1     4    1
    4     4     5    1
    5     4     6    2
    6     6     7    1
    7     6     8    1
    8     8     9    1
    9     8    10    1
   10     8    11    1
   11    11    12    1
   12    11    13    1
   13    11    14    1
   14    14    15    1
   15    14    16    1
   16    14    17    1
@<TRIPOS>SUBSTRUCTURE
       1 MOL1            1 RESIDUE      1      MOL     
@<SCITEGIC>MOL_PROPERTY
VConf Rank
SciTegic.value.IntegerValue
275

@<SCITEGIC>MOL_PROPERTY
Conf_Id
SciTegic.value.IntegerValue
3

@<SCITEGIC>MOL_PROPERTY
Delta U+W
SciTegic.value.DoubleValue
0.531

@<SCITEGIC>MOL_PROPERTY
U+W
SciTegic.value.DoubleValue
-52.878

@<SCITEGIC>MOL_PROPERTY
Grad RMS
SciTegic.value.DoubleValue
0.000000

@<SCITEGIC>MOL_PROPERTY
U
SciTegic.value.DoubleValue
10.067

@<SCITEGIC>MOL_PROPERTY
W
SciTegic.value.DoubleValue
-62.945

@<SCITEGIC>MOL_PROPERTY
W(PB)
SciTegic.value.DoubleValue
-64.982

@<SCITEGIC>MOL_PROPERTY
W(SA)
SciTegic.value.DoubleValue
2.037

@<SCITEGIC>MOL_PROPERTY
Valence
SciTegic.value.DoubleValue
2.779

@<SCITEGIC>MOL_PROPERTY
Coulomb
SciTegic.value.DoubleValue
6.474

@<SCITEGIC>MOL_PROPERTY
VdW
SciTegic.value.DoubleValue
0.815

@<SCITEGIC>MOL_PROPERTY
VdW6
SciTegic.value.DoubleValue
-5.088

@<SCITEGIC>MOL_PROPERTY
VdW12
SciTegic.value.DoubleValue
5.902

@<SCITEGIC>MOL_PROPERTY
Bond
SciTegic.value.DoubleValue
0.078

@<SCITEGIC>MOL_PROPERTY
Angle
SciTegic.value.DoubleValue
2.651

@<SCITEGIC>MOL_PROPERTY
Pdih
SciTegic.value.DoubleValue
0.050

@<SCITEGIC>MOL_PROPERTY
Idih
SciTegic.value.DoubleValue
0.000

@<SCITEGIC>MOL_PROPERTY
Tether
SciTegic.value.DoubleValue
0.000

@<TRIPOS>MOLECULE
guest-s19_confgen4.mol2 : confsearch ligand conformer 276
          17          16           1
SMALL
USER_CHARGES
 
@<TRIPOS>ATOM
       1    C1      19.494037   17.673737   19.458913 C.2        1 MOL1         0.6173
       2    O1      20.068936   16.714827   18.981667 O.co2      1 MOL1        -0.6755
       3    O2      18.842649   18.453510   18.789513 O.co2      1 MOL1        -0.6755
       4    C2      19.604114   17.879712   20.928447 C.2        1 MOL1        -0.1504
       5    H1      20.200714   17.146599   21.466332 H          1 MOL1         0.0814
       6    C3      19.019558   18.903366   21.591779 C.2        1 MOL1        -0.1394
       7    H2      18.423157   19.644381   21.060064 H          1 MOL1         0.0817
       8    C4      19.135738   19.111945   23.087551 C.3        1 MOL1        -0.1849
       9    H3      19.475595   18.191146   23.580872 H          1 MOL1         0.0736
      10    H4      18.140228   19.328334   23.497605 H          1 MOL1         0.0736
      11    C5      20.088053   20.274021   23.445102 C.3        1 MOL1        -0.1866
      12    H5      19.750303   21.194966   22.949880 H          1 MOL1         0.0738
      13    H6      20.034632   20.461488   24.526398 H          1 MOL1         0.0738
      14    C6      21.553327   19.981947   23.057162 C.3        1 MOL1        -0.2879
      15    H7      21.657544   19.852301   21.972089 H          1 MOL1         0.0750
      16    H8      22.205683   20.810804   23.360959 H          1 MOL1         0.0750
      17    H9      21.914611   19.068636   23.547497 H          1 MOL1         0.0750
@<TRIPOS>BOND
    1     1     2    1
    2     1     3    2
    3     1     4    1
    4     4     5    1
    5     4     6    2
    6     6     7    1
    7     6     8    1
    8     8     9    1
    9     8    10    1
   10     8    11    1
   11    11    12    1
   12    11    13    1
   13    11    14    1
   14    14    15    1
   15    14    16    1
   16    14    17    1
@<TRIPOS>SUBSTRUCTURE
       1 MOL1            1 RESIDUE      1      MOL     
@<SCITEGIC>MOL_PROPERTY
VConf Rank
SciTegic.value.IntegerValue
276

@<SCITEGIC>MOL_PROPERTY
Conf_Id
SciTegic.value.IntegerValue
45

@<SCITEGIC>MOL_PROPERTY
Delta U+W
SciTegic.value.DoubleValue
0.562

@<SCITEGIC>MOL_PROPERTY
U+W
SciTegic.value.DoubleValue
-52.846

@<SCITEGIC>MOL_PROPERTY
Grad RMS
SciTegic.value.DoubleValue
0.000000

@<SCITEGIC>MOL_PROPERTY
U
SciTegic.value.DoubleValue
10.243

@<SCITEGIC>MOL_PROPERTY
W
SciTegic.value.DoubleValue
-63.089

@<SCITEGIC>MOL_PROPERTY
W(PB)
SciTegic.value.DoubleValue
-65.116

@<SCITEGIC>MOL_PROPERTY
W(SA)
SciTegic.value.DoubleValue
2.026

@<SCITEGIC>MOL_PROPERTY
Valence
SciTegic.value.DoubleValue
2.822

@<SCITEGIC>MOL_PROPERTY
Coulomb
SciTegic.value.DoubleValue
6.637

@<SCITEGIC>MOL_PROPERTY
VdW
SciTegic.value.DoubleValue
0.785

@<SCITEGIC>MOL_PROPERTY
VdW6
SciTegic.value.DoubleValue
-5.216

@<SCITEGIC>MOL_PROPERTY
VdW12
SciTegic.value.DoubleValue
6.001

@<SCITEGIC>MOL_PROPERTY
Bond
SciTegic.value.DoubleValue
0.080

@<SCITEGIC>MOL_PROPERTY
Angle
SciTegic.value.DoubleValue
2.678

@<SCITEGIC>MOL_PROPERTY
Pdih
SciTegic.value.DoubleValue
0.064

@<SCITEGIC>MOL_PROPERTY
Idih
SciTegic.value.DoubleValue
0.000

@<SCITEGIC>MOL_PROPERTY
Tether
SciTegic.value.DoubleValue
0.000

@<TRIPOS>MOLECULE
guest-s19_confgen4.mol2 : confsearch ligand conformer 277
          17          16           1
SMALL
USER_CHARGES
 
@<TRIPOS>ATOM
       1    C1      20.166496   18.758836   25.263006 C.2        1 MOL1         0.6173
       2    O1      19.346389   19.050570   26.111545 O.co2      1 MOL1        -0.6755
       3    O2      21.320539   18.479066   25.528164 O.co2      1 MOL1        -0.6755
       4    C2      19.715074   18.748971   23.845162 C.2        1 MOL1        -0.1504
       5    H1      18.672234   19.008237   23.677305 H          1 MOL1         0.0814
       6    C3      20.518440   18.445160   22.800468 C.2        1 MOL1        -0.1394
       7    H2      21.565447   18.186282   22.957092 H          1 MOL1         0.0817
       8    C4      20.051942   18.439581   21.361167 C.3        1 MOL1        -0.1849
       9    H3      19.031618   18.037295   21.298616 H          1 MOL1         0.0736
      10    H4      20.689388   17.767872   20.770526 H          1 MOL1         0.0736
      11    C5      20.091183   19.856171   20.752277 C.3        1 MOL1        -0.1866
      12    H5      19.450535   20.528577   21.339644 H          1 MOL1         0.0738
      13    H6      21.113058   20.255561   20.814142 H          1 MOL1         0.0738
      14    C6      19.626032   19.857588   19.282189 C.3        1 MOL1        -0.2879
      15    H7      20.270102   19.216958   18.665586 H          1 MOL1         0.0750
      16    H8      18.594611   19.491248   19.196157 H          1 MOL1         0.0750
      17    H9      19.660662   20.873065   18.866571 H          1 MOL1         0.0750
@<TRIPOS>BOND
    1     1     2    1
    2     1     3    2
    3     1     4    1
    4     4     5    1
    5     4     6    2
    6     6     7    1
    7     6     8    1
    8     8     9    1
    9     8    10    1
   10     8    11    1
   11    11    12    1
   12    11    13    1
   13    11    14    1
   14    14    15    1
   15    14    16    1
   16    14    17    1
@<TRIPOS>SUBSTRUCTURE
       1 MOL1            1 RESIDUE      1      MOL     
@<SCITEGIC>MOL_PROPERTY
VConf Rank
SciTegic.value.IntegerValue
277

@<SCITEGIC>MOL_PROPERTY
Conf_Id
SciTegic.value.IntegerValue
36

@<SCITEGIC>MOL_PROPERTY
Delta U+W
SciTegic.value.DoubleValue
0.000

@<SCITEGIC>MOL_PROPERTY
U+W
SciTegic.value.DoubleValue
-53.409

@<SCITEGIC>MOL_PROPERTY
Grad RMS
SciTegic.value.DoubleValue
0.000000

@<SCITEGIC>MOL_PROPERTY
U
SciTegic.value.DoubleValue
9.048

@<SCITEGIC>MOL_PROPERTY
W
SciTegic.value.DoubleValue
-62.457

@<SCITEGIC>MOL_PROPERTY
W(PB)
SciTegic.value.DoubleValue
-64.540

@<SCITEGIC>MOL_PROPERTY
W(SA)
SciTegic.value.DoubleValue
2.084

@<SCITEGIC>MOL_PROPERTY
Valence
SciTegic.value.DoubleValue
2.652

@<SCITEGIC>MOL_PROPERTY
Coulomb
SciTegic.value.DoubleValue
5.578

@<SCITEGIC>MOL_PROPERTY
VdW
SciTegic.value.DoubleValue
0.818

@<SCITEGIC>MOL_PROPERTY
VdW6
SciTegic.value.DoubleValue
-4.534

@<SCITEGIC>MOL_PROPERTY
VdW12
SciTegic.value.DoubleValue
5.352

@<SCITEGIC>MOL_PROPERTY
Bond
SciTegic.value.DoubleValue
0.063

@<SCITEGIC>MOL_PROPERTY
Angle
SciTegic.value.DoubleValue
2.579

@<SCITEGIC>MOL_PROPERTY
Pdih
SciTegic.value.DoubleValue
0.010

@<SCITEGIC>MOL_PROPERTY
Idih
SciTegic.value.DoubleValue
0.000

@<SCITEGIC>MOL_PROPERTY
Tether
SciTegic.value.DoubleValue
0.000

@<TRIPOS>MOLECULE
guest-s19_confgen4.mol2 : confsearch ligand conformer 278
          17          16           1
SMALL
USER_CHARGES
 
@<TRIPOS>ATOM
       1    C1      17.056660   19.805399   23.371037 C.2        1 MOL1         0.6173
       2    O1      16.554781   20.707912   22.727624 O.co2      1 MOL1        -0.6755
       3    O2      16.619182   19.437037   24.443711 O.co2      1 MOL1        -0.6755
       4    C2      18.258483   19.105654   22.841754 C.2        1 MOL1        -0.1504
       5    H1      18.657017   18.308946   23.465721 H          1 MOL1         0.0814
       6    C3      18.851083   19.410754   21.664968 C.2        1 MOL1        -0.1394
       7    H2      18.461383   20.208586   21.033009 H          1 MOL1         0.0817
       8    C4      20.074327   18.695343   21.134779 C.3        1 MOL1        -0.1849
       9    H3      20.106318   18.783206   20.040410 H          1 MOL1         0.0736
      10    H4      20.008983   17.622191   21.360347 H          1 MOL1         0.0736
      11    C5      21.370072   19.275930   21.737258 C.3        1 MOL1        -0.1866
      12    H5      21.434221   20.348829   21.508481 H          1 MOL1         0.0738
      13    H6      21.341476   19.185070   22.832012 H          1 MOL1         0.0738
      14    C6      22.622234   18.558101   21.194730 C.3        1 MOL1        -0.2879
      15    H7      22.692275   18.660585   20.103848 H          1 MOL1         0.0750
      16    H8      23.533349   18.984488   21.634268 H          1 MOL1         0.0750
      17    H9      22.597649   17.487702   21.437786 H          1 MOL1         0.0750
@<TRIPOS>BOND
    1     1     2    1
    2     1     3    2
    3     1     4    1
    4     4     5    1
    5     4     6    2
    6     6     7    1
    7     6     8    1
    8     8     9    1
    9     8    10    1
   10     8    11    1
   11    11    12    1
   12    11    13    1
   13    11    14    1
   14    14    15    1
   15    14    16    1
   16    14    17    1
@<TRIPOS>SUBSTRUCTURE
       1 MOL1            1 RESIDUE      1      MOL     
@<SCITEGIC>MOL_PROPERTY
VConf Rank
SciTegic.value.IntegerValue
278

@<SCITEGIC>MOL_PROPERTY
Conf_Id
SciTegic.value.IntegerValue
1

@<SCITEGIC>MOL_PROPERTY
Delta U+W
SciTegic.value.DoubleValue
0.030

@<SCITEGIC>MOL_PROPERTY
U+W
SciTegic.value.DoubleValue
-53.378

@<SCITEGIC>MOL_PROPERTY
Grad RMS
SciTegic.value.DoubleValue
0.000000

@<SCITEGIC>MOL_PROPERTY
U
SciTegic.value.DoubleValue
9.048

@<SCITEGIC>MOL_PROPERTY
W
SciTegic.value.DoubleValue
-62.426

@<SCITEGIC>MOL_PROPERTY
W(PB)
SciTegic.value.DoubleValue
-64.506

@<SCITEGIC>MOL_PROPERTY
W(SA)
SciTegic.value.DoubleValue
2.080

@<SCITEGIC>MOL_PROPERTY
Valence
SciTegic.value.DoubleValue
2.652

@<SCITEGIC>MOL_PROPERTY
Coulomb
SciTegic.value.DoubleValue
5.578

@<SCITEGIC>MOL_PROPERTY
VdW
SciTegic.value.DoubleValue
0.818

@<SCITEGIC>MOL_PROPERTY
VdW6
SciTegic.value.DoubleValue
-4.535

@<SCITEGIC>MOL_PROPERTY
VdW12
SciTegic.value.DoubleValue
5.352

@<SCITEGIC>MOL_PROPERTY
Bond
SciTegic.value.DoubleValue
0.063

@<SCITEGIC>MOL_PROPERTY
Angle
SciTegic.value.DoubleValue
2.579

@<SCITEGIC>MOL_PROPERTY
Pdih
SciTegic.value.DoubleValue
0.010

@<SCITEGIC>MOL_PROPERTY
Idih
SciTegic.value.DoubleValue
0.000

@<SCITEGIC>MOL_PROPERTY
Tether
SciTegic.value.DoubleValue
0.000

@<TRIPOS>MOLECULE
guest-s19_confgen4.mol2 : confsearch ligand conformer 279
          17          16           1
SMALL
USER_CHARGES
 
@<TRIPOS>ATOM
       1    C1      19.574395   19.103888   25.100653 C.2        1 MOL1         0.6173
       2    O1      18.366103   19.239561   25.146084 O.co2      1 MOL1        -0.6755
       3    O2      20.234490   18.745111   26.056355 O.co2      1 MOL1        -0.6755
       4    C2      20.298949   19.386715   23.832141 C.2        1 MOL1        -0.1504
       5    H1      21.377083   19.246649   23.859877 H          1 MOL1         0.0814
       6    C3      19.693502   19.791134   22.692463 C.2        1 MOL1        -0.1394
       7    H2      18.613528   19.931363   22.652609 H          1 MOL1         0.0817
       8    C4      20.437179   20.073387   21.403940 C.3        1 MOL1        -0.1849
       9    H3      21.374732   20.600161   21.627613 H          1 MOL1         0.0736
      10    H4      19.847172   20.752603   20.773979 H          1 MOL1         0.0736
      11    C5      20.756505   18.784353   20.615280 C.3        1 MOL1        -0.1866
      12    H5      21.384263   19.038773   19.750212 H          1 MOL1         0.0738
      13    H6      21.347935   18.103175   21.242683 H          1 MOL1         0.0738
      14    C6      19.484492   18.063109   20.120809 C.3        1 MOL1        -0.2879
      15    H7      18.883331   18.721810   19.480602 H          1 MOL1         0.0750
      16    H8      19.748541   17.171828   19.537025 H          1 MOL1         0.0750
      17    H9      18.859355   17.740179   20.963508 H          1 MOL1         0.0750
@<TRIPOS>BOND
    1     1     2    1
    2     1     3    2
    3     1     4    1
    4     4     5    1
    5     4     6    2
    6     6     7    1
    7     6     8    1
    8     8     9    1
    9     8    10    1
   10     8    11    1
   11    11    12    1
   12    11    13    1
   13    11    14    1
   14    14    15    1
   15    14    16    1
   16    14    17    1
@<TRIPOS>SUBSTRUCTURE
       1 MOL1            1 RESIDUE      1      MOL     
@<SCITEGIC>MOL_PROPERTY
VConf Rank
SciTegic.value.IntegerValue
279

@<SCITEGIC>MOL_PROPERTY
Conf_Id
SciTegic.value.IntegerValue
3

@<SCITEGIC>MOL_PROPERTY
Delta U+W
SciTegic.value.DoubleValue
0.531

@<SCITEGIC>MOL_PROPERTY
U+W
SciTegic.value.DoubleValue
-52.878

@<SCITEGIC>MOL_PROPERTY
Grad RMS
SciTegic.value.DoubleValue
0.000000

@<SCITEGIC>MOL_PROPERTY
U
SciTegic.value.DoubleValue
10.067

@<SCITEGIC>MOL_PROPERTY
W
SciTegic.value.DoubleValue
-62.945

@<SCITEGIC>MOL_PROPERTY
W(PB)
SciTegic.value.DoubleValue
-64.982

@<SCITEGIC>MOL_PROPERTY
W(SA)
SciTegic.value.DoubleValue
2.037

@<SCITEGIC>MOL_PROPERTY
Valence
SciTegic.value.DoubleValue
2.779

@<SCITEGIC>MOL_PROPERTY
Coulomb
SciTegic.value.DoubleValue
6.474

@<SCITEGIC>MOL_PROPERTY
VdW
SciTegic.value.DoubleValue
0.815

@<SCITEGIC>MOL_PROPERTY
VdW6
SciTegic.value.DoubleValue
-5.088

@<SCITEGIC>MOL_PROPERTY
VdW12
SciTegic.value.DoubleValue
5.902

@<SCITEGIC>MOL_PROPERTY
Bond
SciTegic.value.DoubleValue
0.078

@<SCITEGIC>MOL_PROPERTY
Angle
SciTegic.value.DoubleValue
2.651

@<SCITEGIC>MOL_PROPERTY
Pdih
SciTegic.value.DoubleValue
0.050

@<SCITEGIC>MOL_PROPERTY
Idih
SciTegic.value.DoubleValue
0.000

@<SCITEGIC>MOL_PROPERTY
Tether
SciTegic.value.DoubleValue
0.000

@<TRIPOS>MOLECULE
guest-s19_confgen4.mol2 : confsearch ligand conformer 280
          17          16           1
SMALL
USER_CHARGES
 
@<TRIPOS>ATOM
       1    C1      19.882127   16.122797   21.578166 C.2        1 MOL1         0.6173
       2    O1      19.630237   15.216242   22.347900 O.co2      1 MOL1        -0.6755
       3    O2      20.493339   15.956409   20.539329 O.co2      1 MOL1        -0.6755
       4    C2      19.409035   17.485602   21.942884 C.2        1 MOL1        -0.1504
       5    H1      18.869586   17.563884   22.883932 H          1 MOL1         0.0814
       6    C3      19.619888   18.584834   21.183401 C.2        1 MOL1        -0.1394
       7    H2      20.162604   18.515926   20.240942 H          1 MOL1         0.0817
       8    C4      19.139396   19.971408   21.558735 C.3        1 MOL1        -0.1849
       9    H3      18.361544   19.914584   22.332334 H          1 MOL1         0.0736
      10    H4      18.665965   20.435783   20.683391 H          1 MOL1         0.0736
      11    C5      20.290353   20.878704   22.045848 C.3        1 MOL1        -0.1866
      12    H5      21.070146   20.933975   21.273627 H          1 MOL1         0.0738
      13    H6      19.909049   21.900319   22.180420 H          1 MOL1         0.0738
      14    C6      20.907595   20.393206   23.374808 C.3        1 MOL1        -0.2879
      15    H7      21.357684   19.398295   23.262446 H          1 MOL1         0.0750
      16    H8      21.693831   21.082070   23.709718 H          1 MOL1         0.0750
      17    H9      20.146501   20.337684   24.163950 H          1 MOL1         0.0750
@<TRIPOS>BOND
    1     1     2    1
    2     1     3    2
    3     1     4    1
    4     4     5    1
    5     4     6    2
    6     6     7    1
    7     6     8    1
    8     8     9    1
    9     8    10    1
   10     8    11    1
   11    11    12    1
   12    11    13    1
   13    11    14    1
   14    14    15    1
   15    14    16    1
   16    14    17    1
@<TRIPOS>SUBSTRUCTURE
       1 MOL1            1 RESIDUE      1      MOL     
@<SCITEGIC>MOL_PROPERTY
VConf Rank
SciTegic.value.IntegerValue
280

@<SCITEGIC>MOL_PROPERTY
Conf_Id
SciTegic.value.IntegerValue
45

@<SCITEGIC>MOL_PROPERTY
Delta U+W
SciTegic.value.DoubleValue
0.562

@<SCITEGIC>MOL_PROPERTY
U+W
SciTegic.value.DoubleValue
-52.846

@<SCITEGIC>MOL_PROPERTY
Grad RMS
SciTegic.value.DoubleValue
0.000000

@<SCITEGIC>MOL_PROPERTY
U
SciTegic.value.DoubleValue
10.243

@<SCITEGIC>MOL_PROPERTY
W
SciTegic.value.DoubleValue
-63.089

@<SCITEGIC>MOL_PROPERTY
W(PB)
SciTegic.value.DoubleValue
-65.116

@<SCITEGIC>MOL_PROPERTY
W(SA)
SciTegic.value.DoubleValue
2.026

@<SCITEGIC>MOL_PROPERTY
Valence
SciTegic.value.DoubleValue
2.822

@<SCITEGIC>MOL_PROPERTY
Coulomb
SciTegic.value.DoubleValue
6.637

@<SCITEGIC>MOL_PROPERTY
VdW
SciTegic.value.DoubleValue
0.785

@<SCITEGIC>MOL_PROPERTY
VdW6
SciTegic.value.DoubleValue
-5.216

@<SCITEGIC>MOL_PROPERTY
VdW12
SciTegic.value.DoubleValue
6.001

@<SCITEGIC>MOL_PROPERTY
Bond
SciTegic.value.DoubleValue
0.080

@<SCITEGIC>MOL_PROPERTY
Angle
SciTegic.value.DoubleValue
2.678

@<SCITEGIC>MOL_PROPERTY
Pdih
SciTegic.value.DoubleValue
0.064

@<SCITEGIC>MOL_PROPERTY
Idih
SciTegic.value.DoubleValue
0.000

@<SCITEGIC>MOL_PROPERTY
Tether
SciTegic.value.DoubleValue
0.000

@<TRIPOS>MOLECULE
guest-s19_confgen4.mol2 : confsearch ligand conformer 281
          17          16           1
SMALL
USER_CHARGES
 
@<TRIPOS>ATOM
       1    C1      19.895045   21.158125   19.229284 C.2        1 MOL1         0.6173
       2    O1      20.602520   21.163696   18.240774 O.co2      1 MOL1        -0.6755
       3    O2      19.145464   22.074375   19.510369 O.co2      1 MOL1        -0.6755
       4    C2      19.965373   19.967022   20.118379 C.2        1 MOL1        -0.1504
       5    H1      20.654841   19.184507   19.809811 H          1 MOL1         0.0814
       6    C3      19.237328   19.826719   21.249462 C.2        1 MOL1        -0.1394
       7    H2      18.545303   20.605606   21.569165 H          1 MOL1         0.0817
       8    C4      19.316402   18.612959   22.149335 C.3        1 MOL1        -0.1849
       9    H3      19.418955   17.702313   21.543515 H          1 MOL1         0.0736
      10    H4      18.378471   18.510210   22.711576 H          1 MOL1         0.0736
      11    C5      20.499168   18.719297   23.133596 C.3        1 MOL1        -0.1866
      12    H5      21.438883   18.817941   22.572556 H          1 MOL1         0.0738
      13    H6      20.393284   19.629749   23.739759 H          1 MOL1         0.0738
      14    C6      20.581082   17.490097   24.060894 C.3        1 MOL1        -0.2879
      15    H7      19.665353   17.386271   24.657628 H          1 MOL1         0.0750
      16    H8      20.718435   16.568448   23.480262 H          1 MOL1         0.0750
      17    H9      21.427845   17.583701   24.753254 H          1 MOL1         0.0750
@<TRIPOS>BOND
    1     1     2    1
    2     1     3    2
    3     1     4    1
    4     4     5    1
    5     4     6    2
    6     6     7    1
    7     6     8    1
    8     8     9    1
    9     8    10    1
   10     8    11    1
   11    11    12    1
   12    11    13    1
   13    11    14    1
   14    14    15    1
   15    14    16    1
   16    14    17    1
@<TRIPOS>SUBSTRUCTURE
       1 MOL1            1 RESIDUE      1      MOL     
@<SCITEGIC>MOL_PROPERTY
VConf Rank
SciTegic.value.IntegerValue
281

@<SCITEGIC>MOL_PROPERTY
Conf_Id
SciTegic.value.IntegerValue
36

@<SCITEGIC>MOL_PROPERTY
Delta U+W
SciTegic.value.DoubleValue
0.000

@<SCITEGIC>MOL_PROPERTY
U+W
SciTegic.value.DoubleValue
-53.409

@<SCITEGIC>MOL_PROPERTY
Grad RMS
SciTegic.value.DoubleValue
0.000000

@<SCITEGIC>MOL_PROPERTY
U
SciTegic.value.DoubleValue
9.048

@<SCITEGIC>MOL_PROPERTY
W
SciTegic.value.DoubleValue
-62.457

@<SCITEGIC>MOL_PROPERTY
W(PB)
SciTegic.value.DoubleValue
-64.540

@<SCITEGIC>MOL_PROPERTY
W(SA)
SciTegic.value.DoubleValue
2.084

@<SCITEGIC>MOL_PROPERTY
Valence
SciTegic.value.DoubleValue
2.652

@<SCITEGIC>MOL_PROPERTY
Coulomb
SciTegic.value.DoubleValue
5.578

@<SCITEGIC>MOL_PROPERTY
VdW
SciTegic.value.DoubleValue
0.818

@<SCITEGIC>MOL_PROPERTY
VdW6
SciTegic.value.DoubleValue
-4.534

@<SCITEGIC>MOL_PROPERTY
VdW12
SciTegic.value.DoubleValue
5.352

@<SCITEGIC>MOL_PROPERTY
Bond
SciTegic.value.DoubleValue
0.063

@<SCITEGIC>MOL_PROPERTY
Angle
SciTegic.value.DoubleValue
2.579

@<SCITEGIC>MOL_PROPERTY
Pdih
SciTegic.value.DoubleValue
0.010

@<SCITEGIC>MOL_PROPERTY
Idih
SciTegic.value.DoubleValue
0.000

@<SCITEGIC>MOL_PROPERTY
Tether
SciTegic.value.DoubleValue
0.000

@<TRIPOS>MOLECULE
guest-s19_confgen4.mol2 : confsearch ligand conformer 282
          17          16           1
SMALL
USER_CHARGES
 
@<TRIPOS>ATOM
       1    C1      16.783395   18.138924   21.742294 C.2        1 MOL1         0.6173
       2    O1      16.690550   17.376506   20.798635 O.co2      1 MOL1        -0.6755
       3    O2      15.816016   18.590405   22.323713 O.co2      1 MOL1        -0.6755
       4    C2      18.129465   18.550226   22.225086 C.2        1 MOL1        -0.1504
       5    H1      18.141867   19.232878   23.071691 H          1 MOL1         0.0814
       6    C3      19.289689   18.127468   21.673503 C.2        1 MOL1        -0.1394
       7    H2      19.288786   17.445217   20.823617 H          1 MOL1         0.0817
       8    C4      20.654600   18.552080   22.169446 C.3        1 MOL1        -0.1849
       9    H3      21.397715   17.789832   21.898993 H          1 MOL1         0.0736
      10    H4      20.653632   18.612237   23.266345 H          1 MOL1         0.0736
      11    C5      21.070647   19.912678   21.573882 C.3        1 MOL1        -0.1866
      12    H5      21.072966   19.849368   20.476817 H          1 MOL1         0.0738
      13    H6      20.330257   20.677389   21.847013 H          1 MOL1         0.0738
      14    C6      22.465026   20.348242   22.067357 C.3        1 MOL1        -0.2879
      15    H7      23.230363   19.615577   21.779446 H          1 MOL1         0.0750
      16    H8      22.743534   21.317391   21.633407 H          1 MOL1         0.0750
      17    H9      22.480984   20.449314   23.160501 H          1 MOL1         0.0750
@<TRIPOS>BOND
    1     1     2    1
    2     1     3    2
    3     1     4    1
    4     4     5    1
    5     4     6    2
    6     6     7    1
    7     6     8    1
    8     8     9    1
    9     8    10    1
   10     8    11    1
   11    11    12    1
   12    11    13    1
   13    11    14    1
   14    14    15    1
   15    14    16    1
   16    14    17    1
@<TRIPOS>SUBSTRUCTURE
       1 MOL1            1 RESIDUE      1      MOL     
@<SCITEGIC>MOL_PROPERTY
VConf Rank
SciTegic.value.IntegerValue
282

@<SCITEGIC>MOL_PROPERTY
Conf_Id
SciTegic.value.IntegerValue
1

@<SCITEGIC>MOL_PROPERTY
Delta U+W
SciTegic.value.DoubleValue
0.030

@<SCITEGIC>MOL_PROPERTY
U+W
SciTegic.value.DoubleValue
-53.378

@<SCITEGIC>MOL_PROPERTY
Grad RMS
SciTegic.value.DoubleValue
0.000000

@<SCITEGIC>MOL_PROPERTY
U
SciTegic.value.DoubleValue
9.048

@<SCITEGIC>MOL_PROPERTY
W
SciTegic.value.DoubleValue
-62.426

@<SCITEGIC>MOL_PROPERTY
W(PB)
SciTegic.value.DoubleValue
-64.506

@<SCITEGIC>MOL_PROPERTY
W(SA)
SciTegic.value.DoubleValue
2.080

@<SCITEGIC>MOL_PROPERTY
Valence
SciTegic.value.DoubleValue
2.652

@<SCITEGIC>MOL_PROPERTY
Coulomb
SciTegic.value.DoubleValue
5.578

@<SCITEGIC>MOL_PROPERTY
VdW
SciTegic.value.DoubleValue
0.818

@<SCITEGIC>MOL_PROPERTY
VdW6
SciTegic.value.DoubleValue
-4.535

@<SCITEGIC>MOL_PROPERTY
VdW12
SciTegic.value.DoubleValue
5.352

@<SCITEGIC>MOL_PROPERTY
Bond
SciTegic.value.DoubleValue
0.063

@<SCITEGIC>MOL_PROPERTY
Angle
SciTegic.value.DoubleValue
2.579

@<SCITEGIC>MOL_PROPERTY
Pdih
SciTegic.value.DoubleValue
0.010

@<SCITEGIC>MOL_PROPERTY
Idih
SciTegic.value.DoubleValue
0.000

@<SCITEGIC>MOL_PROPERTY
Tether
SciTegic.value.DoubleValue
0.000

@<TRIPOS>MOLECULE
guest-s19_confgen4.mol2 : confsearch ligand conformer 283
          17          16           1
SMALL
USER_CHARGES
 
@<TRIPOS>ATOM
       1    C1      22.456339   17.977273   20.529087 C.2        1 MOL1         0.6173
       2    O1      23.278289   17.946994   21.425704 O.co2      1 MOL1        -0.6755
       3    O2      22.604015   17.384167   19.478264 O.co2      1 MOL1        -0.6755
       4    C2      21.209387   18.770755   20.701098 C.2        1 MOL1        -0.1504
       5    H1      20.517808   18.756079   19.861894 H          1 MOL1         0.0814
       6    C3      20.913468   19.477381   21.815593 C.2        1 MOL1        -0.1394
       7    H2      21.597644   19.496262   22.663617 H          1 MOL1         0.0817
       8    C4      19.640374   20.279596   21.984993 C.3        1 MOL1        -0.1849
       9    H3      19.404620   20.798907   21.046237 H          1 MOL1         0.0736
      10    H4      19.791292   21.063731   22.739082 H          1 MOL1         0.0736
      11    C5      18.439407   19.397240   22.390809 C.3        1 MOL1        -0.1866
      12    H5      17.528151   20.011033   22.395598 H          1 MOL1         0.0738
      13    H6      18.285123   18.612349   21.637436 H          1 MOL1         0.0738
      14    C6      18.621593   18.753849   23.782056 C.3        1 MOL1        -0.2879
      15    H7      18.765014   19.521243   24.553859 H          1 MOL1         0.0750
      16    H8      17.737334   18.162329   24.052420 H          1 MOL1         0.0750
      17    H9      19.491700   18.084611   23.798084 H          1 MOL1         0.0750
@<TRIPOS>BOND
    1     1     2    1
    2     1     3    2
    3     1     4    1
    4     4     5    1
    5     4     6    2
    6     6     7    1
    7     6     8    1
    8     8     9    1
    9     8    10    1
   10     8    11    1
   11    11    12    1
   12    11    13    1
   13    11    14    1
   14    14    15    1
   15    14    16    1
   16    14    17    1
@<TRIPOS>SUBSTRUCTURE
       1 MOL1            1 RESIDUE      1      MOL     
@<SCITEGIC>MOL_PROPERTY
VConf Rank
SciTegic.value.IntegerValue
283

@<SCITEGIC>MOL_PROPERTY
Conf_Id
SciTegic.value.IntegerValue
3

@<SCITEGIC>MOL_PROPERTY
Delta U+W
SciTegic.value.DoubleValue
0.531

@<SCITEGIC>MOL_PROPERTY
U+W
SciTegic.value.DoubleValue
-52.878

@<SCITEGIC>MOL_PROPERTY
Grad RMS
SciTegic.value.DoubleValue
0.000000

@<SCITEGIC>MOL_PROPERTY
U
SciTegic.value.DoubleValue
10.067

@<SCITEGIC>MOL_PROPERTY
W
SciTegic.value.DoubleValue
-62.945

@<SCITEGIC>MOL_PROPERTY
W(PB)
SciTegic.value.DoubleValue
-64.982

@<SCITEGIC>MOL_PROPERTY
W(SA)
SciTegic.value.DoubleValue
2.037

@<SCITEGIC>MOL_PROPERTY
Valence
SciTegic.value.DoubleValue
2.779

@<SCITEGIC>MOL_PROPERTY
Coulomb
SciTegic.value.DoubleValue
6.474

@<SCITEGIC>MOL_PROPERTY
VdW
SciTegic.value.DoubleValue
0.815

@<SCITEGIC>MOL_PROPERTY
VdW6
SciTegic.value.DoubleValue
-5.088

@<SCITEGIC>MOL_PROPERTY
VdW12
SciTegic.value.DoubleValue
5.902

@<SCITEGIC>MOL_PROPERTY
Bond
SciTegic.value.DoubleValue
0.078

@<SCITEGIC>MOL_PROPERTY
Angle
SciTegic.value.DoubleValue
2.651

@<SCITEGIC>MOL_PROPERTY
Pdih
SciTegic.value.DoubleValue
0.050

@<SCITEGIC>MOL_PROPERTY
Idih
SciTegic.value.DoubleValue
0.000

@<SCITEGIC>MOL_PROPERTY
Tether
SciTegic.value.DoubleValue
0.000

@<TRIPOS>MOLECULE
guest-s19_confgen4.mol2 : confsearch ligand conformer 284
          17          16           1
SMALL
USER_CHARGES
 
@<TRIPOS>ATOM
       1    C1      20.395194   18.737506   25.045133 C.2        1 MOL1         0.6173
       2    O1      20.784550   19.535473   25.875452 O.co2      1 MOL1        -0.6755
       3    O2      20.442508   17.533384   25.213358 O.co2      1 MOL1        -0.6755
       4    C2      19.837733   19.281592   23.777347 C.2        1 MOL1        -0.1504
       5    H1      19.824802   20.365692   23.692113 H          1 MOL1         0.0814
       6    C3      19.371089   18.511838   22.767739 C.2        1 MOL1        -0.1394
       7    H2      19.383737   17.424807   22.843387 H          1 MOL1         0.0817
       8    C4      18.806690   19.068659   21.477104 C.3        1 MOL1        -0.1849
       9    H3      18.546213   20.129305   21.595095 H          1 MOL1         0.0736
      10    H4      17.868577   18.548278   21.242249 H          1 MOL1         0.0736
      11    C5      19.781913   18.902683   20.291120 C.3        1 MOL1        -0.1866
      12    H5      20.045072   17.842259   20.174042 H          1 MOL1         0.0738
      13    H6      19.274098   19.204102   19.364584 H          1 MOL1         0.0738
      14    C6      21.066565   19.742410   20.456523 C.3        1 MOL1        -0.2879
      15    H7      21.636147   19.425301   21.339740 H          1 MOL1         0.0750
      16    H8      21.716626   19.630413   19.579173 H          1 MOL1         0.0750
      17    H9      20.827365   20.808018   20.567672 H          1 MOL1         0.0750
@<TRIPOS>BOND
    1     1     2    1
    2     1     3    2
    3     1     4    1
    4     4     5    1
    5     4     6    2
    6     6     7    1
    7     6     8    1
    8     8     9    1
    9     8    10    1
   10     8    11    1
   11    11    12    1
   12    11    13    1
   13    11    14    1
   14    14    15    1
   15    14    16    1
   16    14    17    1
@<TRIPOS>SUBSTRUCTURE
       1 MOL1            1 RESIDUE      1      MOL     
@<SCITEGIC>MOL_PROPERTY
VConf Rank
SciTegic.value.IntegerValue
284

@<SCITEGIC>MOL_PROPERTY
Conf_Id
SciTegic.value.IntegerValue
45

@<SCITEGIC>MOL_PROPERTY
Delta U+W
SciTegic.value.DoubleValue
0.562

@<SCITEGIC>MOL_PROPERTY
U+W
SciTegic.value.DoubleValue
-52.846

@<SCITEGIC>MOL_PROPERTY
Grad RMS
SciTegic.value.DoubleValue
0.000000

@<SCITEGIC>MOL_PROPERTY
U
SciTegic.value.DoubleValue
10.243

@<SCITEGIC>MOL_PROPERTY
W
SciTegic.value.DoubleValue
-63.089

@<SCITEGIC>MOL_PROPERTY
W(PB)
SciTegic.value.DoubleValue
-65.116

@<SCITEGIC>MOL_PROPERTY
W(SA)
SciTegic.value.DoubleValue
2.026

@<SCITEGIC>MOL_PROPERTY
Valence
SciTegic.value.DoubleValue
2.822

@<SCITEGIC>MOL_PROPERTY
Coulomb
SciTegic.value.DoubleValue
6.637

@<SCITEGIC>MOL_PROPERTY
VdW
SciTegic.value.DoubleValue
0.785

@<SCITEGIC>MOL_PROPERTY
VdW6
SciTegic.value.DoubleValue
-5.216

@<SCITEGIC>MOL_PROPERTY
VdW12
SciTegic.value.DoubleValue
6.001

@<SCITEGIC>MOL_PROPERTY
Bond
SciTegic.value.DoubleValue
0.080

@<SCITEGIC>MOL_PROPERTY
Angle
SciTegic.value.DoubleValue
2.678

@<SCITEGIC>MOL_PROPERTY
Pdih
SciTegic.value.DoubleValue
0.064

@<SCITEGIC>MOL_PROPERTY
Idih
SciTegic.value.DoubleValue
0.000

@<SCITEGIC>MOL_PROPERTY
Tether
SciTegic.value.DoubleValue
0.000

@<TRIPOS>MOLECULE
guest-s19_confgen4.mol2 : confsearch ligand conformer 285
          17          16           1
SMALL
USER_CHARGES
 
@<TRIPOS>ATOM
       1    C1      22.589584   21.035567   22.892481 C.2        1 MOL1         0.6173
       2    O1      22.678318   22.247202   22.934563 O.co2      1 MOL1        -0.6755
       3    O2      23.551998   20.298637   22.997772 O.co2      1 MOL1        -0.6755
       4    C2      21.233910   20.451596   22.704632 C.2        1 MOL1        -0.1504
       5    H1      20.417696   21.165123   22.617552 H          1 MOL1         0.0814
       6    C3      20.987948   19.123370   22.638288 C.2        1 MOL1        -0.1394
       7    H2      21.798611   18.399772   22.721979 H          1 MOL1         0.0817
       8    C4      19.606347   18.537700   22.444878 C.3        1 MOL1        -0.1849
       9    H3      18.868101   19.122058   23.010854 H          1 MOL1         0.0736
      10    H4      19.578258   17.518717   22.853867 H          1 MOL1         0.0736
      11    C5      19.213004   18.506394   20.953799 C.3        1 MOL1        -0.1866
      12    H5      19.236533   19.525778   20.544089 H          1 MOL1         0.0738
      13    H6      19.951709   17.919693   20.390181 H          1 MOL1         0.0738
      14    C6      17.809590   17.901988   20.747282 C.3        1 MOL1        -0.2879
      15    H7      17.767363   16.870120   21.119969 H          1 MOL1         0.0750
      16    H8      17.047309   18.489118   21.276094 H          1 MOL1         0.0750
      17    H9      17.547473   17.888203   19.681339 H          1 MOL1         0.0750
@<TRIPOS>BOND
    1     1     2    1
    2     1     3    2
    3     1     4    1
    4     4     5    1
    5     4     6    2
    6     6     7    1
    7     6     8    1
    8     8     9    1
    9     8    10    1
   10     8    11    1
   11    11    12    1
   12    11    13    1
   13    11    14    1
   14    14    15    1
   15    14    16    1
   16    14    17    1
@<TRIPOS>SUBSTRUCTURE
       1 MOL1            1 RESIDUE      1      MOL     
@<SCITEGIC>MOL_PROPERTY
VConf Rank
SciTegic.value.IntegerValue
285

@<SCITEGIC>MOL_PROPERTY
Conf_Id
SciTegic.value.IntegerValue
36

@<SCITEGIC>MOL_PROPERTY
Delta U+W
SciTegic.value.DoubleValue
0.000

@<SCITEGIC>MOL_PROPERTY
U+W
SciTegic.value.DoubleValue
-53.409

@<SCITEGIC>MOL_PROPERTY
Grad RMS
SciTegic.value.DoubleValue
0.000000

@<SCITEGIC>MOL_PROPERTY
U
SciTegic.value.DoubleValue
9.048

@<SCITEGIC>MOL_PROPERTY
W
SciTegic.value.DoubleValue
-62.457

@<SCITEGIC>MOL_PROPERTY
W(PB)
SciTegic.value.DoubleValue
-64.540

@<SCITEGIC>MOL_PROPERTY
W(SA)
SciTegic.value.DoubleValue
2.084

@<SCITEGIC>MOL_PROPERTY
Valence
SciTegic.value.DoubleValue
2.652

@<SCITEGIC>MOL_PROPERTY
Coulomb
SciTegic.value.DoubleValue
5.578

@<SCITEGIC>MOL_PROPERTY
VdW
SciTegic.value.DoubleValue
0.818

@<SCITEGIC>MOL_PROPERTY
VdW6
SciTegic.value.DoubleValue
-4.534

@<SCITEGIC>MOL_PROPERTY
VdW12
SciTegic.value.DoubleValue
5.352

@<SCITEGIC>MOL_PROPERTY
Bond
SciTegic.value.DoubleValue
0.063

@<SCITEGIC>MOL_PROPERTY
Angle
SciTegic.value.DoubleValue
2.579

@<SCITEGIC>MOL_PROPERTY
Pdih
SciTegic.value.DoubleValue
0.010

@<SCITEGIC>MOL_PROPERTY
Idih
SciTegic.value.DoubleValue
0.000

@<SCITEGIC>MOL_PROPERTY
Tether
SciTegic.value.DoubleValue
0.000

@<TRIPOS>MOLECULE
guest-s19_confgen4.mol2 : confsearch ligand conformer 286
          17          16           1
SMALL
USER_CHARGES
 
@<TRIPOS>ATOM
       1    C1      23.235277   18.367848   22.602988 C.2        1 MOL1         0.6173
       2    O1      23.503490   18.918471   23.654306 O.co2      1 MOL1        -0.6755
       3    O2      24.078474   17.858329   21.890867 O.co2      1 MOL1        -0.6755
       4    C2      21.819957   18.301193   22.148471 C.2        1 MOL1        -0.1504
       5    H1      21.649109   17.795384   21.200906 H          1 MOL1         0.0814
       6    C3      20.781346   18.825332   22.838145 C.2        1 MOL1        -0.1394
       7    H2      20.941455   19.336110   23.787484 H          1 MOL1         0.0817
       8    C4      19.344987   18.754830   22.367889 C.3        1 MOL1        -0.1849
       9    H3      18.671057   18.826455   23.232224 H          1 MOL1         0.0736
      10    H4      19.150455   17.780191   21.899869 H          1 MOL1         0.0736
      11    C5      19.024714   19.885296   21.368644 C.3        1 MOL1        -0.1866
      12    H5      19.217985   20.859091   21.839746 H          1 MOL1         0.0738
      13    H6      19.695458   19.812616   20.501245 H          1 MOL1         0.0738
      14    C6      17.559663   19.825940   20.891542 C.3        1 MOL1        -0.2879
      15    H7      16.866604   19.928344   21.736889 H          1 MOL1         0.0750
      16    H8      17.350818   20.637176   20.182027 H          1 MOL1         0.0750
      17    H9      17.348642   18.873126   20.388501 H          1 MOL1         0.0750
@<TRIPOS>BOND
    1     1     2    1
    2     1     3    2
    3     1     4    1
    4     4     5    1
    5     4     6    2
    6     6     7    1
    7     6     8    1
    8     8     9    1
    9     8    10    1
   10     8    11    1
   11    11    12    1
   12    11    13    1
   13    11    14    1
   14    14    15    1
   15    14    16    1
   16    14    17    1
@<TRIPOS>SUBSTRUCTURE
       1 MOL1            1 RESIDUE      1      MOL     
@<SCITEGIC>MOL_PROPERTY
VConf Rank
SciTegic.value.IntegerValue
286

@<SCITEGIC>MOL_PROPERTY
Conf_Id
SciTegic.value.IntegerValue
1

@<SCITEGIC>MOL_PROPERTY
Delta U+W
SciTegic.value.DoubleValue
0.030

@<SCITEGIC>MOL_PROPERTY
U+W
SciTegic.value.DoubleValue
-53.378

@<SCITEGIC>MOL_PROPERTY
Grad RMS
SciTegic.value.DoubleValue
0.000000

@<SCITEGIC>MOL_PROPERTY
U
SciTegic.value.DoubleValue
9.048

@<SCITEGIC>MOL_PROPERTY
W
SciTegic.value.DoubleValue
-62.426

@<SCITEGIC>MOL_PROPERTY
W(PB)
SciTegic.value.DoubleValue
-64.506

@<SCITEGIC>MOL_PROPERTY
W(SA)
SciTegic.value.DoubleValue
2.080

@<SCITEGIC>MOL_PROPERTY
Valence
SciTegic.value.DoubleValue
2.652

@<SCITEGIC>MOL_PROPERTY
Coulomb
SciTegic.value.DoubleValue
5.578

@<SCITEGIC>MOL_PROPERTY
VdW
SciTegic.value.DoubleValue
0.818

@<SCITEGIC>MOL_PROPERTY
VdW6
SciTegic.value.DoubleValue
-4.535

@<SCITEGIC>MOL_PROPERTY
VdW12
SciTegic.value.DoubleValue
5.352

@<SCITEGIC>MOL_PROPERTY
Bond
SciTegic.value.DoubleValue
0.063

@<SCITEGIC>MOL_PROPERTY
Angle
SciTegic.value.DoubleValue
2.579

@<SCITEGIC>MOL_PROPERTY
Pdih
SciTegic.value.DoubleValue
0.010

@<SCITEGIC>MOL_PROPERTY
Idih
SciTegic.value.DoubleValue
0.000

@<SCITEGIC>MOL_PROPERTY
Tether
SciTegic.value.DoubleValue
0.000

@<TRIPOS>MOLECULE
guest-s19_confgen4.mol2 : confsearch ligand conformer 287
          17          16           1
SMALL
USER_CHARGES
 
@<TRIPOS>ATOM
       1    C1      18.920655   16.543822   23.401996 C.2        1 MOL1         0.6173
       2    O1      19.924922   16.141837   23.959039 O.co2      1 MOL1        -0.6755
       3    O2      17.807271   16.140695   23.677087 O.co2      1 MOL1        -0.6755
       4    C2      19.034662   17.571084   22.331562 C.2        1 MOL1        -0.1504
       5    H1      18.099525   17.885955   21.874248 H          1 MOL1         0.0814
       6    C3      20.207060   18.108505   21.924565 C.2        1 MOL1        -0.1394
       7    H2      21.149545   17.802750   22.378252 H          1 MOL1         0.0817
       8    C4      20.314934   19.156618   20.836982 C.3        1 MOL1        -0.1849
       9    H3      19.623579   18.911495   20.019381 H          1 MOL1         0.0736
      10    H4      21.322912   19.139336   20.401121 H          1 MOL1         0.0736
      11    C5      20.001292   20.576945   21.356464 C.3        1 MOL1        -0.1866
      12    H5      19.991211   21.275457   20.508447 H          1 MOL1         0.0738
      13    H6      18.992725   20.597695   21.792114 H          1 MOL1         0.0738
      14    C6      21.028512   21.065240   22.400063 C.3        1 MOL1        -0.2879
      15    H7      22.043571   21.064823   21.981970 H          1 MOL1         0.0750
      16    H8      20.794965   22.088340   22.721979 H          1 MOL1         0.0750
      17    H9      21.024213   20.423201   23.290562 H          1 MOL1         0.0750
@<TRIPOS>BOND
    1     1     2    1
    2     1     3    2
    3     1     4    1
    4     4     5    1
    5     4     6    2
    6     6     7    1
    7     6     8    1
    8     8     9    1
    9     8    10    1
   10     8    11    1
   11    11    12    1
   12    11    13    1
   13    11    14    1
   14    14    15    1
   15    14    16    1
   16    14    17    1
@<TRIPOS>SUBSTRUCTURE
       1 MOL1            1 RESIDUE      1      MOL     
@<SCITEGIC>MOL_PROPERTY
VConf Rank
SciTegic.value.IntegerValue
287

@<SCITEGIC>MOL_PROPERTY
Conf_Id
SciTegic.value.IntegerValue
3

@<SCITEGIC>MOL_PROPERTY
Delta U+W
SciTegic.value.DoubleValue
0.531

@<SCITEGIC>MOL_PROPERTY
U+W
SciTegic.value.DoubleValue
-52.878

@<SCITEGIC>MOL_PROPERTY
Grad RMS
SciTegic.value.DoubleValue
0.000000

@<SCITEGIC>MOL_PROPERTY
U
SciTegic.value.DoubleValue
10.067

@<SCITEGIC>MOL_PROPERTY
W
SciTegic.value.DoubleValue
-62.945

@<SCITEGIC>MOL_PROPERTY
W(PB)
SciTegic.value.DoubleValue
-64.982

@<SCITEGIC>MOL_PROPERTY
W(SA)
SciTegic.value.DoubleValue
2.037

@<SCITEGIC>MOL_PROPERTY
Valence
SciTegic.value.DoubleValue
2.779

@<SCITEGIC>MOL_PROPERTY
Coulomb
SciTegic.value.DoubleValue
6.474

@<SCITEGIC>MOL_PROPERTY
VdW
SciTegic.value.DoubleValue
0.815

@<SCITEGIC>MOL_PROPERTY
VdW6
SciTegic.value.DoubleValue
-5.088

@<SCITEGIC>MOL_PROPERTY
VdW12
SciTegic.value.DoubleValue
5.902

@<SCITEGIC>MOL_PROPERTY
Bond
SciTegic.value.DoubleValue
0.078

@<SCITEGIC>MOL_PROPERTY
Angle
SciTegic.value.DoubleValue
2.651

@<SCITEGIC>MOL_PROPERTY
Pdih
SciTegic.value.DoubleValue
0.050

@<SCITEGIC>MOL_PROPERTY
Idih
SciTegic.value.DoubleValue
0.000

@<SCITEGIC>MOL_PROPERTY
Tether
SciTegic.value.DoubleValue
0.000

@<TRIPOS>MOLECULE
guest-s19_confgen4.mol2 : confsearch ligand conformer 288
          17          16           1
SMALL
USER_CHARGES
 
@<TRIPOS>ATOM
       1    C1      18.096669   17.904079   24.114611 C.2        1 MOL1         0.6173
       2    O1      17.536492   18.432421   25.055269 O.co2      1 MOL1        -0.6755
       3    O2      18.273183   16.702451   24.041260 O.co2      1 MOL1        -0.6755
       4    C2      18.575438   18.786120   23.016041 C.2        1 MOL1        -0.1504
       5    H1      18.385407   19.849133   23.144871 H          1 MOL1         0.0814
       6    C3      19.215334   18.335834   21.912700 C.2        1 MOL1        -0.1394
       7    H2      19.413032   17.272759   21.777405 H          1 MOL1         0.0817
       8    C4      19.704005   19.236592   20.797275 C.3        1 MOL1        -0.1849
       9    H3      19.212943   20.217837   20.849790 H          1 MOL1         0.0736
      10    H4      19.413589   18.801224   19.831810 H          1 MOL1         0.0736
      11    C5      21.237079   19.421579   20.822339 C.3        1 MOL1        -0.1866
      12    H5      21.729077   18.440297   20.772506 H          1 MOL1         0.0738
      13    H6      21.546259   19.973582   19.924064 H          1 MOL1         0.0738
      14    C6      21.722921   20.184312   22.073350 C.3        1 MOL1        -0.2879
      15    H7      21.488204   19.629955   22.991310 H          1 MOL1         0.0750
      16    H8      22.810138   20.331182   22.037939 H          1 MOL1         0.0750
      17    H9      21.249109   21.172364   22.139291 H          1 MOL1         0.0750
@<TRIPOS>BOND
    1     1     2    1
    2     1     3    2
    3     1     4    1
    4     4     5    1
    5     4     6    2
    6     6     7    1
    7     6     8    1
    8     8     9    1
    9     8    10    1
   10     8    11    1
   11    11    12    1
   12    11    13    1
   13    11    14    1
   14    14    15    1
   15    14    16    1
   16    14    17    1
@<TRIPOS>SUBSTRUCTURE
       1 MOL1            1 RESIDUE      1      MOL     
@<SCITEGIC>MOL_PROPERTY
VConf Rank
SciTegic.value.IntegerValue
288

@<SCITEGIC>MOL_PROPERTY
Conf_Id
SciTegic.value.IntegerValue
45

@<SCITEGIC>MOL_PROPERTY
Delta U+W
SciTegic.value.DoubleValue
0.562

@<SCITEGIC>MOL_PROPERTY
U+W
SciTegic.value.DoubleValue
-52.846

@<SCITEGIC>MOL_PROPERTY
Grad RMS
SciTegic.value.DoubleValue
0.000000

@<SCITEGIC>MOL_PROPERTY
U
SciTegic.value.DoubleValue
10.243

@<SCITEGIC>MOL_PROPERTY
W
SciTegic.value.DoubleValue
-63.089

@<SCITEGIC>MOL_PROPERTY
W(PB)
SciTegic.value.DoubleValue
-65.116

@<SCITEGIC>MOL_PROPERTY
W(SA)
SciTegic.value.DoubleValue
2.026

@<SCITEGIC>MOL_PROPERTY
Valence
SciTegic.value.DoubleValue
2.822

@<SCITEGIC>MOL_PROPERTY
Coulomb
SciTegic.value.DoubleValue
6.637

@<SCITEGIC>MOL_PROPERTY
VdW
SciTegic.value.DoubleValue
0.785

@<SCITEGIC>MOL_PROPERTY
VdW6
SciTegic.value.DoubleValue
-5.216

@<SCITEGIC>MOL_PROPERTY
VdW12
SciTegic.value.DoubleValue
6.001

@<SCITEGIC>MOL_PROPERTY
Bond
SciTegic.value.DoubleValue
0.080

@<SCITEGIC>MOL_PROPERTY
Angle
SciTegic.value.DoubleValue
2.678

@<SCITEGIC>MOL_PROPERTY
Pdih
SciTegic.value.DoubleValue
0.064

@<SCITEGIC>MOL_PROPERTY
Idih
SciTegic.value.DoubleValue
0.000

@<SCITEGIC>MOL_PROPERTY
Tether
SciTegic.value.DoubleValue
0.000

@<TRIPOS>MOLECULE
guest-s19_confgen4.mol2 : confsearch ligand conformer 289
          17          16           1
SMALL
USER_CHARGES
 
@<TRIPOS>ATOM
       1    C1      17.369329   17.286362   20.845961 C.2        1 MOL1         0.6173
       2    O1      16.308834   17.066756   21.398072 O.co2      1 MOL1        -0.6755
       3    O2      17.746270   16.666774   19.869016 O.co2      1 MOL1        -0.6755
       4    C2      18.225975   18.365937   21.407065 C.2        1 MOL1        -0.1504
       5    H1      17.830519   18.880146   22.280055 H          1 MOL1         0.0814
       6    C3      19.428266   18.716255   20.896322 C.2        1 MOL1        -0.1394
       7    H2      19.835014   18.206073   20.023370 H          1 MOL1         0.0817
       8    C4      20.294292   19.814029   21.474362 C.3        1 MOL1        -0.1849
       9    H3      19.666325   20.651337   21.808101 H          1 MOL1         0.0736
      10    H4      20.955130   20.211462   20.692231 H          1 MOL1         0.0736
      11    C5      21.143235   19.297591   22.654024 C.3        1 MOL1        -0.1866
      12    H5      20.483328   18.903404   23.439326 H          1 MOL1         0.0738
      13    H6      21.771908   18.461569   22.317268 H          1 MOL1         0.0738
      14    C6      22.035952   20.408367   23.242885 C.3        1 MOL1        -0.2879
      15    H7      22.728592   20.798652   22.485680 H          1 MOL1         0.0750
      16    H8      21.428988   21.243882   23.615640 H          1 MOL1         0.0750
      17    H9      22.631792   20.022441   24.080242 H          1 MOL1         0.0750
@<TRIPOS>BOND
    1     1     2    1
    2     1     3    2
    3     1     4    1
    4     4     5    1
    5     4     6    2
    6     6     7    1
    7     6     8    1
    8     8     9    1
    9     8    10    1
   10     8    11    1
   11    11    12    1
   12    11    13    1
   13    11    14    1
   14    14    15    1
   15    14    16    1
   16    14    17    1
@<TRIPOS>SUBSTRUCTURE
       1 MOL1            1 RESIDUE      1      MOL     
@<SCITEGIC>MOL_PROPERTY
VConf Rank
SciTegic.value.IntegerValue
289

@<SCITEGIC>MOL_PROPERTY
Conf_Id
SciTegic.value.IntegerValue
36

@<SCITEGIC>MOL_PROPERTY
Delta U+W
SciTegic.value.DoubleValue
0.000

@<SCITEGIC>MOL_PROPERTY
U+W
SciTegic.value.DoubleValue
-53.409

@<SCITEGIC>MOL_PROPERTY
Grad RMS
SciTegic.value.DoubleValue
0.000000

@<SCITEGIC>MOL_PROPERTY
U
SciTegic.value.DoubleValue
9.048

@<SCITEGIC>MOL_PROPERTY
W
SciTegic.value.DoubleValue
-62.457

@<SCITEGIC>MOL_PROPERTY
W(PB)
SciTegic.value.DoubleValue
-64.540

@<SCITEGIC>MOL_PROPERTY
W(SA)
SciTegic.value.DoubleValue
2.084

@<SCITEGIC>MOL_PROPERTY
Valence
SciTegic.value.DoubleValue
2.652

@<SCITEGIC>MOL_PROPERTY
Coulomb
SciTegic.value.DoubleValue
5.578

@<SCITEGIC>MOL_PROPERTY
VdW
SciTegic.value.DoubleValue
0.818

@<SCITEGIC>MOL_PROPERTY
VdW6
SciTegic.value.DoubleValue
-4.534

@<SCITEGIC>MOL_PROPERTY
VdW12
SciTegic.value.DoubleValue
5.352

@<SCITEGIC>MOL_PROPERTY
Bond
SciTegic.value.DoubleValue
0.063

@<SCITEGIC>MOL_PROPERTY
Angle
SciTegic.value.DoubleValue
2.579

@<SCITEGIC>MOL_PROPERTY
Pdih
SciTegic.value.DoubleValue
0.010

@<SCITEGIC>MOL_PROPERTY
Idih
SciTegic.value.DoubleValue
0.000

@<SCITEGIC>MOL_PROPERTY
Tether
SciTegic.value.DoubleValue
0.000

@<TRIPOS>MOLECULE
guest-s19_confgen4.mol2 : confsearch ligand conformer 290
          17          16           1
SMALL
USER_CHARGES
 
@<TRIPOS>ATOM
       1    C1      19.240120   16.139527   23.346760 C.2        1 MOL1         0.6173
       2    O1      18.091224   16.227533   23.737509 O.co2      1 MOL1        -0.6755
       3    O2      19.970537   15.215471   23.647289 O.co2      1 MOL1        -0.6755
       4    C2      19.797735   17.196328   22.459967 C.2        1 MOL1        -0.1504
       5    H1      20.829956   17.057158   22.146819 H          1 MOL1         0.0814
       6    C3      19.100499   18.279219   22.047299 C.2        1 MOL1        -0.1394
       7    H2      18.066406   18.429634   22.356816 H          1 MOL1         0.0817
       8    C4      19.675727   19.350444   21.146840 C.3        1 MOL1        -0.1849
       9    H3      18.862101   19.851812   20.605517 H          1 MOL1         0.0736
      10    H4      20.322583   18.893560   20.385498 H          1 MOL1         0.0736
      11    C5      20.477364   20.392092   21.953913 C.3        1 MOL1        -0.1866
      12    H5      19.827723   20.849184   22.713255 H          1 MOL1         0.0738
      13    H6      21.294409   19.892646   22.492940 H          1 MOL1         0.0738
      14    C6      21.059344   21.492720   21.044275 C.3        1 MOL1        -0.2879
      15    H7      20.260210   22.029800   20.516675 H          1 MOL1         0.0750
      16    H8      21.625715   22.223853   21.635712 H          1 MOL1         0.0750
      17    H9      21.737839   21.064751   20.294660 H          1 MOL1         0.0750
@<TRIPOS>BOND
    1     1     2    1
    2     1     3    2
    3     1     4    1
    4     4     5    1
    5     4     6    2
    6     6     7    1
    7     6     8    1
    8     8     9    1
    9     8    10    1
   10     8    11    1
   11    11    12    1
   12    11    13    1
   13    11    14    1
   14    14    15    1
   15    14    16    1
   16    14    17    1
@<TRIPOS>SUBSTRUCTURE
       1 MOL1            1 RESIDUE      1      MOL     
@<SCITEGIC>MOL_PROPERTY
VConf Rank
SciTegic.value.IntegerValue
290

@<SCITEGIC>MOL_PROPERTY
Conf_Id
SciTegic.value.IntegerValue
1

@<SCITEGIC>MOL_PROPERTY
Delta U+W
SciTegic.value.DoubleValue
0.030

@<SCITEGIC>MOL_PROPERTY
U+W
SciTegic.value.DoubleValue
-53.378

@<SCITEGIC>MOL_PROPERTY
Grad RMS
SciTegic.value.DoubleValue
0.000000

@<SCITEGIC>MOL_PROPERTY
U
SciTegic.value.DoubleValue
9.048

@<SCITEGIC>MOL_PROPERTY
W
SciTegic.value.DoubleValue
-62.426

@<SCITEGIC>MOL_PROPERTY
W(PB)
SciTegic.value.DoubleValue
-64.506

@<SCITEGIC>MOL_PROPERTY
W(SA)
SciTegic.value.DoubleValue
2.080

@<SCITEGIC>MOL_PROPERTY
Valence
SciTegic.value.DoubleValue
2.652

@<SCITEGIC>MOL_PROPERTY
Coulomb
SciTegic.value.DoubleValue
5.578

@<SCITEGIC>MOL_PROPERTY
VdW
SciTegic.value.DoubleValue
0.818

@<SCITEGIC>MOL_PROPERTY
VdW6
SciTegic.value.DoubleValue
-4.535

@<SCITEGIC>MOL_PROPERTY
VdW12
SciTegic.value.DoubleValue
5.352

@<SCITEGIC>MOL_PROPERTY
Bond
SciTegic.value.DoubleValue
0.063

@<SCITEGIC>MOL_PROPERTY
Angle
SciTegic.value.DoubleValue
2.579

@<SCITEGIC>MOL_PROPERTY
Pdih
SciTegic.value.DoubleValue
0.010

@<SCITEGIC>MOL_PROPERTY
Idih
SciTegic.value.DoubleValue
0.000

@<SCITEGIC>MOL_PROPERTY
Tether
SciTegic.value.DoubleValue
0.000

@<TRIPOS>MOLECULE
guest-s19_confgen4.mol2 : confsearch ligand conformer 291
          17          16           1
SMALL
USER_CHARGES
 
@<TRIPOS>ATOM
       1    C1      18.997444   16.271770   21.321554 C.2        1 MOL1         0.6173
       2    O1      18.039808   16.558178   20.627765 O.co2      1 MOL1        -0.6755
       3    O2      19.487189   15.159350   21.343523 O.co2      1 MOL1        -0.6755
       4    C2      19.611438   17.310361   22.192433 C.2        1 MOL1        -0.1504
       5    H1      20.463048   16.988279   22.787231 H          1 MOL1         0.0814
       6    C3      19.171895   18.587146   22.267319 C.2        1 MOL1        -0.1394
       7    H2      18.321632   18.921392   21.673239 H          1 MOL1         0.0817
       8    C4      19.804391   19.639839   23.153209 C.3        1 MOL1        -0.1849
       9    H3      20.066676   19.195866   24.123065 H          1 MOL1         0.0736
      10    H4      19.076292   20.433885   23.366880 H          1 MOL1         0.0736
      11    C5      21.070702   20.257162   22.520016 C.3        1 MOL1        -0.1866
      12    H5      21.543109   20.932243   23.246824 H          1 MOL1         0.0738
      13    H6      21.801702   19.465110   22.306194 H          1 MOL1         0.0738
      14    C6      20.762735   21.043046   21.227633 C.3        1 MOL1        -0.2879
      15    H7      20.042752   21.849054   21.420297 H          1 MOL1         0.0750
      16    H8      21.677741   21.495305   20.823735 H          1 MOL1         0.0750
      17    H9      20.343001   20.385815   20.454916 H          1 MOL1         0.0750
@<TRIPOS>BOND
    1     1     2    1
    2     1     3    2
    3     1     4    1
    4     4     5    1
    5     4     6    2
    6     6     7    1
    7     6     8    1
    8     8     9    1
    9     8    10    1
   10     8    11    1
   11    11    12    1
   12    11    13    1
   13    11    14    1
   14    14    15    1
   15    14    16    1
   16    14    17    1
@<TRIPOS>SUBSTRUCTURE
       1 MOL1            1 RESIDUE      1      MOL     
@<SCITEGIC>MOL_PROPERTY
VConf Rank
SciTegic.value.IntegerValue
291

@<SCITEGIC>MOL_PROPERTY
Conf_Id
SciTegic.value.IntegerValue
3

@<SCITEGIC>MOL_PROPERTY
Delta U+W
SciTegic.value.DoubleValue
0.531

@<SCITEGIC>MOL_PROPERTY
U+W
SciTegic.value.DoubleValue
-52.878

@<SCITEGIC>MOL_PROPERTY
Grad RMS
SciTegic.value.DoubleValue
0.000000

@<SCITEGIC>MOL_PROPERTY
U
SciTegic.value.DoubleValue
10.067

@<SCITEGIC>MOL_PROPERTY
W
SciTegic.value.DoubleValue
-62.945

@<SCITEGIC>MOL_PROPERTY
W(PB)
SciTegic.value.DoubleValue
-64.982

@<SCITEGIC>MOL_PROPERTY
W(SA)
SciTegic.value.DoubleValue
2.037

@<SCITEGIC>MOL_PROPERTY
Valence
SciTegic.value.DoubleValue
2.779

@<SCITEGIC>MOL_PROPERTY
Coulomb
SciTegic.value.DoubleValue
6.474

@<SCITEGIC>MOL_PROPERTY
VdW
SciTegic.value.DoubleValue
0.815

@<SCITEGIC>MOL_PROPERTY
VdW6
SciTegic.value.DoubleValue
-5.088

@<SCITEGIC>MOL_PROPERTY
VdW12
SciTegic.value.DoubleValue
5.902

@<SCITEGIC>MOL_PROPERTY
Bond
SciTegic.value.DoubleValue
0.078

@<SCITEGIC>MOL_PROPERTY
Angle
SciTegic.value.DoubleValue
2.651

@<SCITEGIC>MOL_PROPERTY
Pdih
SciTegic.value.DoubleValue
0.050

@<SCITEGIC>MOL_PROPERTY
Idih
SciTegic.value.DoubleValue
0.000

@<SCITEGIC>MOL_PROPERTY
Tether
SciTegic.value.DoubleValue
0.000

@<TRIPOS>MOLECULE
guest-s19_confgen4.mol2 : confsearch ligand conformer 292
          17          16           1
SMALL
USER_CHARGES
 
@<TRIPOS>ATOM
       1    C1      18.839884   20.468006   24.516346 C.2        1 MOL1         0.6173
       2    O1      19.354652   20.677148   25.597574 O.co2      1 MOL1        -0.6755
       3    O2      17.634797   20.463941   24.348429 O.co2      1 MOL1        -0.6755
       4    C2      19.744012   20.211608   23.362706 C.2        1 MOL1        -0.1504
       5    H1      20.809014   20.229716   23.582137 H          1 MOL1         0.0814
       6    C3      19.310076   19.962379   22.106056 C.2        1 MOL1        -0.1394
       7    H2      18.244682   19.938769   21.878250 H          1 MOL1         0.0817
       8    C4      20.232954   19.698991   20.934195 C.3        1 MOL1        -0.1849
       9    H3      21.253504   20.035010   21.162907 H          1 MOL1         0.0736
      10    H4      19.900343   20.296312   20.074784 H          1 MOL1         0.0736
      11    C5      20.255797   18.208733   20.529504 C.3        1 MOL1        -0.1866
      12    H5      19.234921   17.871080   20.303093 H          1 MOL1         0.0738
      13    H6      20.835737   18.097767   19.602922 H          1 MOL1         0.0738
      14    C6      20.872446   17.306592   21.619786 C.3        1 MOL1        -0.2879
      15    H7      20.281044   17.341397   22.543954 H          1 MOL1         0.0750
      16    H8      20.908015   16.262650   21.282463 H          1 MOL1         0.0750
      17    H9      21.896999   17.621623   21.856722 H          1 MOL1         0.0750
@<TRIPOS>BOND
    1     1     2    1
    2     1     3    2
    3     1     4    1
    4     4     5    1
    5     4     6    2
    6     6     7    1
    7     6     8    1
    8     8     9    1
    9     8    10    1
   10     8    11    1
   11    11    12    1
   12    11    13    1
   13    11    14    1
   14    14    15    1
   15    14    16    1
   16    14    17    1
@<TRIPOS>SUBSTRUCTURE
       1 MOL1            1 RESIDUE      1      MOL     
@<SCITEGIC>MOL_PROPERTY
VConf Rank
SciTegic.value.IntegerValue
292

@<SCITEGIC>MOL_PROPERTY
Conf_Id
SciTegic.value.IntegerValue
45

@<SCITEGIC>MOL_PROPERTY
Delta U+W
SciTegic.value.DoubleValue
0.562

@<SCITEGIC>MOL_PROPERTY
U+W
SciTegic.value.DoubleValue
-52.846

@<SCITEGIC>MOL_PROPERTY
Grad RMS
SciTegic.value.DoubleValue
0.000000

@<SCITEGIC>MOL_PROPERTY
U
SciTegic.value.DoubleValue
10.243

@<SCITEGIC>MOL_PROPERTY
W
SciTegic.value.DoubleValue
-63.089

@<SCITEGIC>MOL_PROPERTY
W(PB)
SciTegic.value.DoubleValue
-65.116

@<SCITEGIC>MOL_PROPERTY
W(SA)
SciTegic.value.DoubleValue
2.026

@<SCITEGIC>MOL_PROPERTY
Valence
SciTegic.value.DoubleValue
2.822

@<SCITEGIC>MOL_PROPERTY
Coulomb
SciTegic.value.DoubleValue
6.637

@<SCITEGIC>MOL_PROPERTY
VdW
SciTegic.value.DoubleValue
0.785

@<SCITEGIC>MOL_PROPERTY
VdW6
SciTegic.value.DoubleValue
-5.216

@<SCITEGIC>MOL_PROPERTY
VdW12
SciTegic.value.DoubleValue
6.001

@<SCITEGIC>MOL_PROPERTY
Bond
SciTegic.value.DoubleValue
0.080

@<SCITEGIC>MOL_PROPERTY
Angle
SciTegic.value.DoubleValue
2.678

@<SCITEGIC>MOL_PROPERTY
Pdih
SciTegic.value.DoubleValue
0.064

@<SCITEGIC>MOL_PROPERTY
Idih
SciTegic.value.DoubleValue
0.000

@<SCITEGIC>MOL_PROPERTY
Tether
SciTegic.value.DoubleValue
0.000

@<TRIPOS>MOLECULE
guest-s19_confgen4.mol2 : confsearch ligand conformer 293
          17          16           1
SMALL
USER_CHARGES
 
@<TRIPOS>ATOM
       1    C1      22.200897   21.512546   21.036790 C.2        1 MOL1         0.6173
       2    O1      22.636346   21.792158   19.936833 O.co2      1 MOL1        -0.6755
       3    O2      22.688192   21.937031   22.067688 O.co2      1 MOL1        -0.6755
       4    C2      21.018699   20.611079   21.099438 C.2        1 MOL1        -0.1504
       5    H1      20.632465   20.267697   20.142453 H          1 MOL1         0.0814
       6    C3      20.431850   20.216662   22.252316 C.2        1 MOL1        -0.1394
       7    H2      20.812116   20.552812   23.216771 H          1 MOL1         0.0817
       8    C4      19.231039   19.297824   22.307357 C.3        1 MOL1        -0.1849
       9    H3      18.538932   19.534784   21.487816 H          1 MOL1         0.0736
      10    H4      18.679388   19.469080   23.241562 H          1 MOL1         0.0736
      11    C5      19.652467   17.816628   22.220928 C.3        1 MOL1        -0.1866
      12    H5      20.200938   17.642656   21.284727 H          1 MOL1         0.0738
      13    H6      20.343017   17.581536   23.042780 H          1 MOL1         0.0738
      14    C6      18.434724   16.873012   22.285866 C.3        1 MOL1        -0.2879
      15    H7      17.885808   17.004032   23.227649 H          1 MOL1         0.0750
      16    H8      17.742798   17.066904   21.455756 H          1 MOL1         0.0750
      17    H9      18.754075   15.824594   22.222890 H          1 MOL1         0.0750
@<TRIPOS>BOND
    1     1     2    1
    2     1     3    2
    3     1     4    1
    4     4     5    1
    5     4     6    2
    6     6     7    1
    7     6     8    1
    8     8     9    1
    9     8    10    1
   10     8    11    1
   11    11    12    1
   12    11    13    1
   13    11    14    1
   14    14    15    1
   15    14    16    1
   16    14    17    1
@<TRIPOS>SUBSTRUCTURE
       1 MOL1            1 RESIDUE      1      MOL     
@<SCITEGIC>MOL_PROPERTY
VConf Rank
SciTegic.value.IntegerValue
293

@<SCITEGIC>MOL_PROPERTY
Conf_Id
SciTegic.value.IntegerValue
36

@<SCITEGIC>MOL_PROPERTY
Delta U+W
SciTegic.value.DoubleValue
0.000

@<SCITEGIC>MOL_PROPERTY
U+W
SciTegic.value.DoubleValue
-53.409

@<SCITEGIC>MOL_PROPERTY
Grad RMS
SciTegic.value.DoubleValue
0.000000

@<SCITEGIC>MOL_PROPERTY
U
SciTegic.value.DoubleValue
9.048

@<SCITEGIC>MOL_PROPERTY
W
SciTegic.value.DoubleValue
-62.457

@<SCITEGIC>MOL_PROPERTY
W(PB)
SciTegic.value.DoubleValue
-64.540

@<SCITEGIC>MOL_PROPERTY
W(SA)
SciTegic.value.DoubleValue
2.084

@<SCITEGIC>MOL_PROPERTY
Valence
SciTegic.value.DoubleValue
2.652

@<SCITEGIC>MOL_PROPERTY
Coulomb
SciTegic.value.DoubleValue
5.578

@<SCITEGIC>MOL_PROPERTY
VdW
SciTegic.value.DoubleValue
0.818

@<SCITEGIC>MOL_PROPERTY
VdW6
SciTegic.value.DoubleValue
-4.534

@<SCITEGIC>MOL_PROPERTY
VdW12
SciTegic.value.DoubleValue
5.352

@<SCITEGIC>MOL_PROPERTY
Bond
SciTegic.value.DoubleValue
0.063

@<SCITEGIC>MOL_PROPERTY
Angle
SciTegic.value.DoubleValue
2.579

@<SCITEGIC>MOL_PROPERTY
Pdih
SciTegic.value.DoubleValue
0.010

@<SCITEGIC>MOL_PROPERTY
Idih
SciTegic.value.DoubleValue
0.000

@<SCITEGIC>MOL_PROPERTY
Tether
SciTegic.value.DoubleValue
0.000

@<TRIPOS>MOLECULE
guest-s19_confgen4.mol2 : confsearch ligand conformer 294
          17          16           1
SMALL
USER_CHARGES
 
@<TRIPOS>ATOM
       1    C1      23.124448   19.914173   22.928185 C.2        1 MOL1         0.6173
       2    O1      23.791397   20.077282   21.923711 O.co2      1 MOL1        -0.6755
       3    O2      23.610076   19.859458   24.041234 O.co2      1 MOL1        -0.6755
       4    C2      21.647365   19.774338   22.814895 C.2        1 MOL1        -0.1504
       5    H1      21.111066   19.631249   23.750212 H          1 MOL1         0.0814
       6    C3      20.974182   19.814359   21.642586 C.2        1 MOL1        -0.1394
       7    H2      21.501791   19.955063   20.699397 H          1 MOL1         0.0817
       8    C4      19.471896   19.669443   21.535935 C.3        1 MOL1        -0.1849
       9    H3      19.119573   20.157736   20.617335 H          1 MOL1         0.0736
      10    H4      18.984220   20.188319   22.372444 H          1 MOL1         0.0736
      11    C5      19.049719   18.185970   21.526403 C.3        1 MOL1        -0.1866
      12    H5      19.537027   17.669659   20.687641 H          1 MOL1         0.0738
      13    H6      19.397936   17.696885   22.446784 H          1 MOL1         0.0738
      14    C6      17.520283   18.029551   21.408574 C.3        1 MOL1        -0.2879
      15    H7      17.149256   18.482858   20.479982 H          1 MOL1         0.0750
      16    H8      17.239314   16.968344   21.403369 H          1 MOL1         0.0750
      17    H9      17.009943   18.511045   22.253058 H          1 MOL1         0.0750
@<TRIPOS>BOND
    1     1     2    1
    2     1     3    2
    3     1     4    1
    4     4     5    1
    5     4     6    2
    6     6     7    1
    7     6     8    1
    8     8     9    1
    9     8    10    1
   10     8    11    1
   11    11    12    1
   12    11    13    1
   13    11    14    1
   14    14    15    1
   15    14    16    1
   16    14    17    1
@<TRIPOS>SUBSTRUCTURE
       1 MOL1            1 RESIDUE      1      MOL     
@<SCITEGIC>MOL_PROPERTY
VConf Rank
SciTegic.value.IntegerValue
294

@<SCITEGIC>MOL_PROPERTY
Conf_Id
SciTegic.value.IntegerValue
1

@<SCITEGIC>MOL_PROPERTY
Delta U+W
SciTegic.value.DoubleValue
0.030

@<SCITEGIC>MOL_PROPERTY
U+W
SciTegic.value.DoubleValue
-53.378

@<SCITEGIC>MOL_PROPERTY
Grad RMS
SciTegic.value.DoubleValue
0.000000

@<SCITEGIC>MOL_PROPERTY
U
SciTegic.value.DoubleValue
9.048

@<SCITEGIC>MOL_PROPERTY
W
SciTegic.value.DoubleValue
-62.426

@<SCITEGIC>MOL_PROPERTY
W(PB)
SciTegic.value.DoubleValue
-64.506

@<SCITEGIC>MOL_PROPERTY
W(SA)
SciTegic.value.DoubleValue
2.080

@<SCITEGIC>MOL_PROPERTY
Valence
SciTegic.value.DoubleValue
2.652

@<SCITEGIC>MOL_PROPERTY
Coulomb
SciTegic.value.DoubleValue
5.578

@<SCITEGIC>MOL_PROPERTY
VdW
SciTegic.value.DoubleValue
0.818

@<SCITEGIC>MOL_PROPERTY
VdW6
SciTegic.value.DoubleValue
-4.535

@<SCITEGIC>MOL_PROPERTY
VdW12
SciTegic.value.DoubleValue
5.352

@<SCITEGIC>MOL_PROPERTY
Bond
SciTegic.value.DoubleValue
0.063

@<SCITEGIC>MOL_PROPERTY
Angle
SciTegic.value.DoubleValue
2.579

@<SCITEGIC>MOL_PROPERTY
Pdih
SciTegic.value.DoubleValue
0.010

@<SCITEGIC>MOL_PROPERTY
Idih
SciTegic.value.DoubleValue
0.000

@<SCITEGIC>MOL_PROPERTY
Tether
SciTegic.value.DoubleValue
0.000

@<TRIPOS>MOLECULE
guest-s19_confgen4.mol2 : confsearch ligand conformer 295
          17          16           1
SMALL
USER_CHARGES
 
@<TRIPOS>ATOM
       1    C1      21.452631   21.156548   23.827543 C.2        1 MOL1         0.6173
       2    O1      22.399096   21.436942   23.116189 O.co2      1 MOL1        -0.6755
       3    O2      21.120136   21.833817   24.780729 O.co2      1 MOL1        -0.6755
       4    C2      20.653784   19.934393   23.540713 C.2        1 MOL1        -0.1504
       5    H1      19.822621   19.741447   24.215029 H          1 MOL1         0.0814
       6    C3      20.908596   19.091101   22.514596 C.2        1 MOL1        -0.1394
       7    H2      21.736713   19.276703   21.830950 H          1 MOL1         0.0817
       8    C4      20.088671   17.851038   22.226534 C.3        1 MOL1        -0.1849
       9    H3      19.836059   17.349079   23.170330 H          1 MOL1         0.0736
      10    H4      20.687481   17.133900   21.649097 H          1 MOL1         0.0736
      11    C5      18.786941   18.172262   21.459803 C.3        1 MOL1        -0.1866
      12    H5      18.186191   17.256490   21.372549 H          1 MOL1         0.0738
      13    H6      18.184996   18.888750   22.035768 H          1 MOL1         0.0738
      14    C6      19.055751   18.735675   20.048060 C.3        1 MOL1        -0.2879
      15    H7      19.646066   18.029800   19.449382 H          1 MOL1         0.0750
      16    H8      18.111295   18.920691   19.520159 H          1 MOL1         0.0750
      17    H9      19.604528   19.685164   20.098401 H          1 MOL1         0.0750
@<TRIPOS>BOND
    1     1     2    1
    2     1     3    2
    3     1     4    1
    4     4     5    1
    5     4     6    2
    6     6     7    1
    7     6     8    1
    8     8     9    1
    9     8    10    1
   10     8    11    1
   11    11    12    1
   12    11    13    1
   13    11    14    1
   14    14    15    1
   15    14    16    1
   16    14    17    1
@<TRIPOS>SUBSTRUCTURE
       1 MOL1            1 RESIDUE      1      MOL     
@<SCITEGIC>MOL_PROPERTY
VConf Rank
SciTegic.value.IntegerValue
295

@<SCITEGIC>MOL_PROPERTY
Conf_Id
SciTegic.value.IntegerValue
3

@<SCITEGIC>MOL_PROPERTY
Delta U+W
SciTegic.value.DoubleValue
0.531

@<SCITEGIC>MOL_PROPERTY
U+W
SciTegic.value.DoubleValue
-52.878

@<SCITEGIC>MOL_PROPERTY
Grad RMS
SciTegic.value.DoubleValue
0.000000

@<SCITEGIC>MOL_PROPERTY
U
SciTegic.value.DoubleValue
10.067

@<SCITEGIC>MOL_PROPERTY
W
SciTegic.value.DoubleValue
-62.945

@<SCITEGIC>MOL_PROPERTY
W(PB)
SciTegic.value.DoubleValue
-64.982

@<SCITEGIC>MOL_PROPERTY
W(SA)
SciTegic.value.DoubleValue
2.037

@<SCITEGIC>MOL_PROPERTY
Valence
SciTegic.value.DoubleValue
2.779

@<SCITEGIC>MOL_PROPERTY
Coulomb
SciTegic.value.DoubleValue
6.474

@<SCITEGIC>MOL_PROPERTY
VdW
SciTegic.value.DoubleValue
0.815

@<SCITEGIC>MOL_PROPERTY
VdW6
SciTegic.value.DoubleValue
-5.088

@<SCITEGIC>MOL_PROPERTY
VdW12
SciTegic.value.DoubleValue
5.902

@<SCITEGIC>MOL_PROPERTY
Bond
SciTegic.value.DoubleValue
0.078

@<SCITEGIC>MOL_PROPERTY
Angle
SciTegic.value.DoubleValue
2.651

@<SCITEGIC>MOL_PROPERTY
Pdih
SciTegic.value.DoubleValue
0.050

@<SCITEGIC>MOL_PROPERTY
Idih
SciTegic.value.DoubleValue
0.000

@<SCITEGIC>MOL_PROPERTY
Tether
SciTegic.value.DoubleValue
0.000

@<TRIPOS>MOLECULE
guest-s19_confgen4.mol2 : confsearch ligand conformer 296
          17          16           1
SMALL
USER_CHARGES
 
@<TRIPOS>ATOM
       1    C1      20.831831   21.293740   23.966783 C.2        1 MOL1         0.6173
       2    O1      21.164308   21.224589   25.134026 O.co2      1 MOL1        -0.6755
       3    O2      20.443211   22.324867   23.450836 O.co2      1 MOL1        -0.6755
       4    C2      20.915647   20.050563   23.153422 C.2        1 MOL1        -0.1504
       5    H1      21.270732   19.165402   23.676023 H          1 MOL1         0.0814
       6    C3      20.576557   19.981252   21.845829 C.2        1 MOL1        -0.1394
       7    H2      20.216388   20.862487   21.315527 H          1 MOL1         0.0817
       8    C4      20.660362   18.713489   21.021153 C.3        1 MOL1        -0.1849
       9    H3      21.301480   17.971799   21.516736 H          1 MOL1         0.0736
      10    H4      21.143028   18.941511   20.061440 H          1 MOL1         0.0736
      11    C5      19.270154   18.098381   20.748884 C.3        1 MOL1        -0.1866
      12    H5      18.627317   18.840544   20.255513 H          1 MOL1         0.0738
      13    H6      19.380003   17.261419   20.045586 H          1 MOL1         0.0738
      14    C6      18.584251   17.588373   22.034286 C.3        1 MOL1        -0.2879
      15    H7      18.398732   18.410782   22.737337 H          1 MOL1         0.0750
      16    H8      17.618307   17.123598   21.798061 H          1 MOL1         0.0750
      17    H9      19.206572   16.838926   22.540387 H          1 MOL1         0.0750
@<TRIPOS>BOND
    1     1     2    1
    2     1     3    2
    3     1     4    1
    4     4     5    1
    5     4     6    2
    6     6     7    1
    7     6     8    1
    8     8     9    1
    9     8    10    1
   10     8    11    1
   11    11    12    1
   12    11    13    1
   13    11    14    1
   14    14    15    1
   15    14    16    1
   16    14    17    1
@<TRIPOS>SUBSTRUCTURE
       1 MOL1            1 RESIDUE      1      MOL     
@<SCITEGIC>MOL_PROPERTY
VConf Rank
SciTegic.value.IntegerValue
296

@<SCITEGIC>MOL_PROPERTY
Conf_Id
SciTegic.value.IntegerValue
45

@<SCITEGIC>MOL_PROPERTY
Delta U+W
SciTegic.value.DoubleValue
0.562

@<SCITEGIC>MOL_PROPERTY
U+W
SciTegic.value.DoubleValue
-52.846

@<SCITEGIC>MOL_PROPERTY
Grad RMS
SciTegic.value.DoubleValue
0.000000

@<SCITEGIC>MOL_PROPERTY
U
SciTegic.value.DoubleValue
10.243

@<SCITEGIC>MOL_PROPERTY
W
SciTegic.value.DoubleValue
-63.089

@<SCITEGIC>MOL_PROPERTY
W(PB)
SciTegic.value.DoubleValue
-65.116

@<SCITEGIC>MOL_PROPERTY
W(SA)
SciTegic.value.DoubleValue
2.026

@<SCITEGIC>MOL_PROPERTY
Valence
SciTegic.value.DoubleValue
2.822

@<SCITEGIC>MOL_PROPERTY
Coulomb
SciTegic.value.DoubleValue
6.637

@<SCITEGIC>MOL_PROPERTY
VdW
SciTegic.value.DoubleValue
0.785

@<SCITEGIC>MOL_PROPERTY
VdW6
SciTegic.value.DoubleValue
-5.216

@<SCITEGIC>MOL_PROPERTY
VdW12
SciTegic.value.DoubleValue
6.001

@<SCITEGIC>MOL_PROPERTY
Bond
SciTegic.value.DoubleValue
0.080

@<SCITEGIC>MOL_PROPERTY
Angle
SciTegic.value.DoubleValue
2.678

@<SCITEGIC>MOL_PROPERTY
Pdih
SciTegic.value.DoubleValue
0.064

@<SCITEGIC>MOL_PROPERTY
Idih
SciTegic.value.DoubleValue
0.000

@<SCITEGIC>MOL_PROPERTY
Tether
SciTegic.value.DoubleValue
0.000

@<TRIPOS>MOLECULE
guest-s19_confgen4.mol2 : confsearch ligand conformer 297
          17          16           1
SMALL
USER_CHARGES
 
@<TRIPOS>ATOM
       1    C1      18.284765   22.015938   21.669324 C.2        1 MOL1         0.6173
       2    O1      17.786784   22.691948   22.548374 O.co2      1 MOL1        -0.6755
       3    O2      18.040031   22.182350   20.489151 O.co2      1 MOL1        -0.6755
       4    C2      19.233168   20.945141   22.079309 C.2        1 MOL1        -0.1504
       5    H1      19.407810   20.849707   23.148562 H          1 MOL1         0.0814
       6    C3      19.858459   20.118813   21.210242 C.2        1 MOL1        -0.1394
       7    H2      19.688913   20.204138   20.137047 H          1 MOL1         0.0817
       8    C4      20.819988   19.030824   21.635659 C.3        1 MOL1        -0.1849
       9    H3      21.437631   19.381993   22.473518 H          1 MOL1         0.0736
      10    H4      21.510154   18.806870   20.811097 H          1 MOL1         0.0736
      11    C5      20.070066   17.746443   22.044311 C.3        1 MOL1        -0.1866
      12    H5      19.382111   17.967910   22.872097 H          1 MOL1         0.0738
      13    H6      19.454640   17.396038   21.204052 H          1 MOL1         0.0738
      14    C6      21.043666   16.629257   22.470366 C.3        1 MOL1        -0.2879
      15    H7      21.723141   16.365829   21.649178 H          1 MOL1         0.0750
      16    H8      21.650144   16.943424   23.329970 H          1 MOL1         0.0750
      17    H9      20.492281   15.724415   22.757363 H          1 MOL1         0.0750
@<TRIPOS>BOND
    1     1     2    1
    2     1     3    2
    3     1     4    1
    4     4     5    1
    5     4     6    2
    6     6     7    1
    7     6     8    1
    8     8     9    1
    9     8    10    1
   10     8    11    1
   11    11    12    1
   12    11    13    1
   13    11    14    1
   14    14    15    1
   15    14    16    1
   16    14    17    1
@<TRIPOS>SUBSTRUCTURE
       1 MOL1            1 RESIDUE      1      MOL     
@<SCITEGIC>MOL_PROPERTY
VConf Rank
SciTegic.value.IntegerValue
297

@<SCITEGIC>MOL_PROPERTY
Conf_Id
SciTegic.value.IntegerValue
36

@<SCITEGIC>MOL_PROPERTY
Delta U+W
SciTegic.value.DoubleValue
0.000

@<SCITEGIC>MOL_PROPERTY
U+W
SciTegic.value.DoubleValue
-53.409

@<SCITEGIC>MOL_PROPERTY
Grad RMS
SciTegic.value.DoubleValue
0.000000

@<SCITEGIC>MOL_PROPERTY
U
SciTegic.value.DoubleValue
9.048

@<SCITEGIC>MOL_PROPERTY
W
SciTegic.value.DoubleValue
-62.457

@<SCITEGIC>MOL_PROPERTY
W(PB)
SciTegic.value.DoubleValue
-64.540

@<SCITEGIC>MOL_PROPERTY
W(SA)
SciTegic.value.DoubleValue
2.084

@<SCITEGIC>MOL_PROPERTY
Valence
SciTegic.value.DoubleValue
2.652

@<SCITEGIC>MOL_PROPERTY
Coulomb
SciTegic.value.DoubleValue
5.578

@<SCITEGIC>MOL_PROPERTY
VdW
SciTegic.value.DoubleValue
0.818

@<SCITEGIC>MOL_PROPERTY
VdW6
SciTegic.value.DoubleValue
-4.534

@<SCITEGIC>MOL_PROPERTY
VdW12
SciTegic.value.DoubleValue
5.352

@<SCITEGIC>MOL_PROPERTY
Bond
SciTegic.value.DoubleValue
0.063

@<SCITEGIC>MOL_PROPERTY
Angle
SciTegic.value.DoubleValue
2.579

@<SCITEGIC>MOL_PROPERTY
Pdih
SciTegic.value.DoubleValue
0.010

@<SCITEGIC>MOL_PROPERTY
Idih
SciTegic.value.DoubleValue
0.000

@<SCITEGIC>MOL_PROPERTY
Tether
SciTegic.value.DoubleValue
0.000

@<TRIPOS>MOLECULE
guest-s19_confgen4.mol2 : confsearch ligand conformer 298
          17          16           1
SMALL
USER_CHARGES
 
@<TRIPOS>ATOM
       1    C1      20.234995   20.043723   18.684796 C.2        1 MOL1         0.6173
       2    O1      20.275871   19.025754   18.019618 O.co2      1 MOL1        -0.6755
       3    O2      20.457595   21.144913   18.220537 O.co2      1 MOL1        -0.6755
       4    C2      19.898610   19.962911   20.132027 C.2        1 MOL1        -0.1504
       5    H1      19.879017   20.908940   20.668268 H          1 MOL1         0.0814
       6    C3      19.629704   18.806624   20.779929 C.2        1 MOL1        -0.1394
       7    H2      19.648691   17.852903   20.252832 H          1 MOL1         0.0817
       8    C4      19.290268   18.732979   22.252545 C.3        1 MOL1        -0.1849
       9    H3      18.701566   17.826859   22.449432 H          1 MOL1         0.0736
      10    H4      18.656656   19.584793   22.534955 H          1 MOL1         0.0736
      11    C5      20.563663   18.720354   23.122788 C.3        1 MOL1        -0.1866
      12    H5      21.194691   17.866318   22.839957 H          1 MOL1         0.0738
      13    H6      21.151844   19.628341   22.930011 H          1 MOL1         0.0738
      14    C6      20.226376   18.636055   24.625005 C.3        1 MOL1        -0.2879
      15    H7      19.664789   17.720072   24.850896 H          1 MOL1         0.0750
      16    H8      21.143983   18.628157   25.227554 H          1 MOL1         0.0750
      17    H9      19.621174   19.496037   24.940594 H          1 MOL1         0.0750
@<TRIPOS>BOND
    1     1     2    1
    2     1     3    2
    3     1     4    1
    4     4     5    1
    5     4     6    2
    6     6     7    1
    7     6     8    1
    8     8     9    1
    9     8    10    1
   10     8    11    1
   11    11    12    1
   12    11    13    1
   13    11    14    1
   14    14    15    1
   15    14    16    1
   16    14    17    1
@<TRIPOS>SUBSTRUCTURE
       1 MOL1            1 RESIDUE      1      MOL     
@<SCITEGIC>MOL_PROPERTY
VConf Rank
SciTegic.value.IntegerValue
298

@<SCITEGIC>MOL_PROPERTY
Conf_Id
SciTegic.value.IntegerValue
1

@<SCITEGIC>MOL_PROPERTY
Delta U+W
SciTegic.value.DoubleValue
0.030

@<SCITEGIC>MOL_PROPERTY
U+W
SciTegic.value.DoubleValue
-53.378

@<SCITEGIC>MOL_PROPERTY
Grad RMS
SciTegic.value.DoubleValue
0.000000

@<SCITEGIC>MOL_PROPERTY
U
SciTegic.value.DoubleValue
9.048

@<SCITEGIC>MOL_PROPERTY
W
SciTegic.value.DoubleValue
-62.426

@<SCITEGIC>MOL_PROPERTY
W(PB)
SciTegic.value.DoubleValue
-64.506

@<SCITEGIC>MOL_PROPERTY
W(SA)
SciTegic.value.DoubleValue
2.080

@<SCITEGIC>MOL_PROPERTY
Valence
SciTegic.value.DoubleValue
2.652

@<SCITEGIC>MOL_PROPERTY
Coulomb
SciTegic.value.DoubleValue
5.578

@<SCITEGIC>MOL_PROPERTY
VdW
SciTegic.value.DoubleValue
0.818

@<SCITEGIC>MOL_PROPERTY
VdW6
SciTegic.value.DoubleValue
-4.535

@<SCITEGIC>MOL_PROPERTY
VdW12
SciTegic.value.DoubleValue
5.352

@<SCITEGIC>MOL_PROPERTY
Bond
SciTegic.value.DoubleValue
0.063

@<SCITEGIC>MOL_PROPERTY
Angle
SciTegic.value.DoubleValue
2.579

@<SCITEGIC>MOL_PROPERTY
Pdih
SciTegic.value.DoubleValue
0.010

@<SCITEGIC>MOL_PROPERTY
Idih
SciTegic.value.DoubleValue
0.000

@<SCITEGIC>MOL_PROPERTY
Tether
SciTegic.value.DoubleValue
0.000

@<TRIPOS>MOLECULE
guest-s19_confgen4.mol2 : confsearch ligand conformer 299
          17          16           1
SMALL
USER_CHARGES
 
@<TRIPOS>ATOM
       1    C1      20.588499   20.154322   19.215607 C.2        1 MOL1         0.6173
       2    O1      21.115526   21.217677   19.483860 O.co2      1 MOL1        -0.6755
       3    O2      20.653723   19.644951   18.113746 O.co2      1 MOL1        -0.6755
       4    C2      19.822190   19.428173   20.264211 C.2        1 MOL1        -0.1504
       5    H1      19.375838   18.484782   19.958359 H          1 MOL1         0.0814
       6    C3      19.668481   19.875621   21.531156 C.2        1 MOL1        -0.1394
       7    H2      20.114264   20.817814   21.849194 H          1 MOL1         0.0817
       8    C4      18.890277   19.129066   22.594202 C.3        1 MOL1        -0.1849
       9    H3      17.978881   18.703550   22.152818 H          1 MOL1         0.0736
      10    H4      18.555902   19.828756   23.371968 H          1 MOL1         0.0736
      11    C5      19.716794   17.995440   23.240208 C.3        1 MOL1        -0.1866
      12    H5      19.072013   17.424983   23.922842 H          1 MOL1         0.0738
      13    H6      20.051777   17.292953   22.464499 H          1 MOL1         0.0738
      14    C6      20.936753   18.525442   24.023478 C.3        1 MOL1        -0.2879
      15    H7      20.624346   19.220787   24.813441 H          1 MOL1         0.0750
      16    H8      21.481016   17.697715   24.496291 H          1 MOL1         0.0750
      17    H9      21.635276   19.051768   23.359951 H          1 MOL1         0.0750
@<TRIPOS>BOND
    1     1     2    1
    2     1     3    2
    3     1     4    1
    4     4     5    1
    5     4     6    2
    6     6     7    1
    7     6     8    1
    8     8     9    1
    9     8    10    1
   10     8    11    1
   11    11    12    1
   12    11    13    1
   13    11    14    1
   14    14    15    1
   15    14    16    1
   16    14    17    1
@<TRIPOS>SUBSTRUCTURE
       1 MOL1            1 RESIDUE      1      MOL     
@<SCITEGIC>MOL_PROPERTY
VConf Rank
SciTegic.value.IntegerValue
299

@<SCITEGIC>MOL_PROPERTY
Conf_Id
SciTegic.value.IntegerValue
3

@<SCITEGIC>MOL_PROPERTY
Delta U+W
SciTegic.value.DoubleValue
0.531

@<SCITEGIC>MOL_PROPERTY
U+W
SciTegic.value.DoubleValue
-52.878

@<SCITEGIC>MOL_PROPERTY
Grad RMS
SciTegic.value.DoubleValue
0.000000

@<SCITEGIC>MOL_PROPERTY
U
SciTegic.value.DoubleValue
10.067

@<SCITEGIC>MOL_PROPERTY
W
SciTegic.value.DoubleValue
-62.945

@<SCITEGIC>MOL_PROPERTY
W(PB)
SciTegic.value.DoubleValue
-64.982

@<SCITEGIC>MOL_PROPERTY
W(SA)
SciTegic.value.DoubleValue
2.037

@<SCITEGIC>MOL_PROPERTY
Valence
SciTegic.value.DoubleValue
2.779

@<SCITEGIC>MOL_PROPERTY
Coulomb
SciTegic.value.DoubleValue
6.474

@<SCITEGIC>MOL_PROPERTY
VdW
SciTegic.value.DoubleValue
0.815

@<SCITEGIC>MOL_PROPERTY
VdW6
SciTegic.value.DoubleValue
-5.088

@<SCITEGIC>MOL_PROPERTY
VdW12
SciTegic.value.DoubleValue
5.902

@<SCITEGIC>MOL_PROPERTY
Bond
SciTegic.value.DoubleValue
0.078

@<SCITEGIC>MOL_PROPERTY
Angle
SciTegic.value.DoubleValue
2.651

@<SCITEGIC>MOL_PROPERTY
Pdih
SciTegic.value.DoubleValue
0.050

@<SCITEGIC>MOL_PROPERTY
Idih
SciTegic.value.DoubleValue
0.000

@<SCITEGIC>MOL_PROPERTY
Tether
SciTegic.value.DoubleValue
0.000

@<TRIPOS>MOLECULE
guest-s19_confgen4.mol2 : confsearch ligand conformer 300
          17          16           1
SMALL
USER_CHARGES
 
@<TRIPOS>ATOM
       1    C1      21.085079   21.359147   23.745247 C.2        1 MOL1         0.6173
       2    O1      20.835018   21.668524   24.893957 O.co2      1 MOL1        -0.6755
       3    O2      21.573799   22.133700   22.944205 O.co2      1 MOL1        -0.6755
       4    C2      20.773864   19.965991   23.325327 C.2        1 MOL1        -0.1504
       5    H1      20.338979   19.326538   24.089971 H          1 MOL1         0.0814
       6    C3      20.996981   19.486547   22.080362 C.2        1 MOL1        -0.1394
       7    H2      21.428960   20.121513   21.307233 H          1 MOL1         0.0817
       8    C4      20.676524   18.068519   21.655107 C.3        1 MOL1        -0.1849
       9    H3      20.541886   17.422749   22.533510 H          1 MOL1         0.0736
      10    H4      21.532303   17.657969   21.102748 H          1 MOL1         0.0736
      11    C5      19.420476   17.994843   20.759516 C.3        1 MOL1        -0.1866
      12    H5      19.553251   18.642612   19.881891 H          1 MOL1         0.0738
      13    H6      19.310978   16.969843   20.379273 H          1 MOL1         0.0738
      14    C6      18.131700   18.393143   21.510011 C.3        1 MOL1        -0.2879
      15    H7      18.177651   19.435774   21.850397 H          1 MOL1         0.0750
      16    H8      17.256583   18.291444   20.855264 H          1 MOL1         0.0750
      17    H9      17.974845   17.752866   22.387812 H          1 MOL1         0.0750
@<TRIPOS>BOND
    1     1     2    1
    2     1     3    2
    3     1     4    1
    4     4     5    1
    5     4     6    2
    6     6     7    1
    7     6     8    1
    8     8     9    1
    9     8    10    1
   10     8    11    1
   11    11    12    1
   12    11    13    1
   13    11    14    1
   14    14    15    1
   15    14    16    1
   16    14    17    1
@<TRIPOS>SUBSTRUCTURE
       1 MOL1            1 RESIDUE      1      MOL     
@<SCITEGIC>MOL_PROPERTY
VConf Rank
SciTegic.value.IntegerValue
300

@<SCITEGIC>MOL_PROPERTY
Conf_Id
SciTegic.value.IntegerValue
45

@<SCITEGIC>MOL_PROPERTY
Delta U+W
SciTegic.value.DoubleValue
0.562

@<SCITEGIC>MOL_PROPERTY
U+W
SciTegic.value.DoubleValue
-52.846

@<SCITEGIC>MOL_PROPERTY
Grad RMS
SciTegic.value.DoubleValue
0.000000

@<SCITEGIC>MOL_PROPERTY
U
SciTegic.value.DoubleValue
10.243

@<SCITEGIC>MOL_PROPERTY
W
SciTegic.value.DoubleValue
-63.089

@<SCITEGIC>MOL_PROPERTY
W(PB)
SciTegic.value.DoubleValue
-65.116

@<SCITEGIC>MOL_PROPERTY
W(SA)
SciTegic.value.DoubleValue
2.026

@<SCITEGIC>MOL_PROPERTY
Valence
SciTegic.value.DoubleValue
2.822

@<SCITEGIC>MOL_PROPERTY
Coulomb
SciTegic.value.DoubleValue
6.637

@<SCITEGIC>MOL_PROPERTY
VdW
SciTegic.value.DoubleValue
0.785

@<SCITEGIC>MOL_PROPERTY
VdW6
SciTegic.value.DoubleValue
-5.216

@<SCITEGIC>MOL_PROPERTY
VdW12
SciTegic.value.DoubleValue
6.001

@<SCITEGIC>MOL_PROPERTY
Bond
SciTegic.value.DoubleValue
0.080

@<SCITEGIC>MOL_PROPERTY
Angle
SciTegic.value.DoubleValue
2.678

@<SCITEGIC>MOL_PROPERTY
Pdih
SciTegic.value.DoubleValue
0.064

@<SCITEGIC>MOL_PROPERTY
Idih
SciTegic.value.DoubleValue
0.000

@<SCITEGIC>MOL_PROPERTY
Tether
SciTegic.value.DoubleValue
0.000

@<TRIPOS>MOLECULE
guest-s19_confgen4.mol2 : confsearch ligand conformer 301
          17          16           1
SMALL
USER_CHARGES
 
@<TRIPOS>ATOM
       1    C1      22.158566   16.629358   21.208442 C.2        1 MOL1         0.6173
       2    O1      22.822097   15.949005   21.966434 O.co2      1 MOL1        -0.6755
       3    O2      22.351420   16.659807   20.007495 O.co2      1 MOL1        -0.6755
       4    C2      21.067520   17.451231   21.798616 C.2        1 MOL1        -0.1504
       5    H1      20.948661   17.378154   22.877245 H          1 MOL1         0.0814
       6    C3      20.253472   18.254000   21.076139 C.2        1 MOL1        -0.1394
       7    H2      20.365315   18.336516   19.995188 H          1 MOL1         0.0817
       8    C4      19.147546   19.088333   21.684461 C.3        1 MOL1        -0.1849
       9    H3      18.655747   18.528839   22.491870 H          1 MOL1         0.0736
      10    H4      18.377036   19.286178   20.927125 H          1 MOL1         0.0736
      11    C5      19.688388   20.425036   22.231937 C.3        1 MOL1        -0.1866
      12    H5      20.456504   20.228813   22.992894 H          1 MOL1         0.0738
      13    H6      20.177985   20.983687   21.422141 H          1 MOL1         0.0738
      14    C6      18.565581   21.285594   22.845346 C.3        1 MOL1        -0.2879
      15    H7      17.798953   21.523449   22.096255 H          1 MOL1         0.0750
      16    H8      18.079749   20.761469   23.678832 H          1 MOL1         0.0750
      17    H9      18.969212   22.231570   23.229198 H          1 MOL1         0.0750
@<TRIPOS>BOND
    1     1     2    1
    2     1     3    2
    3     1     4    1
    4     4     5    1
    5     4     6    2
    6     6     7    1
    7     6     8    1
    8     8     9    1
    9     8    10    1
   10     8    11    1
   11    11    12    1
   12    11    13    1
   13    11    14    1
   14    14    15    1
   15    14    16    1
   16    14    17    1
@<TRIPOS>SUBSTRUCTURE
       1 MOL1            1 RESIDUE      1      MOL     
@<SCITEGIC>MOL_PROPERTY
VConf Rank
SciTegic.value.IntegerValue
301

@<SCITEGIC>MOL_PROPERTY
Conf_Id
SciTegic.value.IntegerValue
36

@<SCITEGIC>MOL_PROPERTY
Delta U+W
SciTegic.value.DoubleValue
0.000

@<SCITEGIC>MOL_PROPERTY
U+W
SciTegic.value.DoubleValue
-53.409

@<SCITEGIC>MOL_PROPERTY
Grad RMS
SciTegic.value.DoubleValue
0.000000

@<SCITEGIC>MOL_PROPERTY
U
SciTegic.value.DoubleValue
9.048

@<SCITEGIC>MOL_PROPERTY
W
SciTegic.value.DoubleValue
-62.457

@<SCITEGIC>MOL_PROPERTY
W(PB)
SciTegic.value.DoubleValue
-64.540

@<SCITEGIC>MOL_PROPERTY
W(SA)
SciTegic.value.DoubleValue
2.084

@<SCITEGIC>MOL_PROPERTY
Valence
SciTegic.value.DoubleValue
2.652

@<SCITEGIC>MOL_PROPERTY
Coulomb
SciTegic.value.DoubleValue
5.578

@<SCITEGIC>MOL_PROPERTY
VdW
SciTegic.value.DoubleValue
0.818

@<SCITEGIC>MOL_PROPERTY
VdW6
SciTegic.value.DoubleValue
-4.534

@<SCITEGIC>MOL_PROPERTY
VdW12
SciTegic.value.DoubleValue
5.352

@<SCITEGIC>MOL_PROPERTY
Bond
SciTegic.value.DoubleValue
0.063

@<SCITEGIC>MOL_PROPERTY
Angle
SciTegic.value.DoubleValue
2.579

@<SCITEGIC>MOL_PROPERTY
Pdih
SciTegic.value.DoubleValue
0.010

@<SCITEGIC>MOL_PROPERTY
Idih
SciTegic.value.DoubleValue
0.000

@<SCITEGIC>MOL_PROPERTY
Tether
SciTegic.value.DoubleValue
0.000

@<TRIPOS>MOLECULE
guest-s19_confgen4.mol2 : confsearch ligand conformer 302
          17          16           1
SMALL
USER_CHARGES
 
@<TRIPOS>ATOM
       1    C1      18.775406   17.262279   24.461304 C.2        1 MOL1         0.6173
       2    O1      18.521945   18.038868   25.363003 O.co2      1 MOL1        -0.6755
       3    O2      18.763670   16.055462   24.606767 O.co2      1 MOL1        -0.6755
       4    C2      19.116195   17.788854   23.111955 C.2        1 MOL1        -0.1504
       5    H1      19.331892   17.041776   22.351522 H          1 MOL1         0.0814
       6    C3      19.168146   19.105609   22.807744 C.2        1 MOL1        -0.1394
       7    H2      18.955999   19.862620   23.562529 H          1 MOL1         0.0817
       8    C4      19.517425   19.632858   21.433243 C.3        1 MOL1        -0.1849
       9    H3      19.081512   20.632294   21.300976 H          1 MOL1         0.0736
      10    H4      19.070684   18.992329   20.660616 H          1 MOL1         0.0736
      11    C5      21.044740   19.704981   21.230449 C.3        1 MOL1        -0.1866
      12    H5      21.488989   20.347872   22.003042 H          1 MOL1         0.0738
      13    H6      21.482000   18.704986   21.358411 H          1 MOL1         0.0738
      14    C6      21.409126   20.250265   19.834951 C.3        1 MOL1        -0.2879
      15    H7      21.010426   21.263259   19.692435 H          1 MOL1         0.0750
      16    H8      22.498814   20.294281   19.709361 H          1 MOL1         0.0750
      17    H9      21.002523   19.607139   19.043434 H          1 MOL1         0.0750
@<TRIPOS>BOND
    1     1     2    1
    2     1     3    2
    3     1     4    1
    4     4     5    1
    5     4     6    2
    6     6     7    1
    7     6     8    1
    8     8     9    1
    9     8    10    1
   10     8    11    1
   11    11    12    1
   12    11    13    1
   13    11    14    1
   14    14    15    1
   15    14    16    1
   16    14    17    1
@<TRIPOS>SUBSTRUCTURE
       1 MOL1            1 RESIDUE      1      MOL     
@<SCITEGIC>MOL_PROPERTY
VConf Rank
SciTegic.value.IntegerValue
302

@<SCITEGIC>MOL_PROPERTY
Conf_Id
SciTegic.value.IntegerValue
1

@<SCITEGIC>MOL_PROPERTY
Delta U+W
SciTegic.value.DoubleValue
0.030

@<SCITEGIC>MOL_PROPERTY
U+W
SciTegic.value.DoubleValue
-53.378

@<SCITEGIC>MOL_PROPERTY
Grad RMS
SciTegic.value.DoubleValue
0.000000

@<SCITEGIC>MOL_PROPERTY
U
SciTegic.value.DoubleValue
9.048

@<SCITEGIC>MOL_PROPERTY
W
SciTegic.value.DoubleValue
-62.426

@<SCITEGIC>MOL_PROPERTY
W(PB)
SciTegic.value.DoubleValue
-64.506

@<SCITEGIC>MOL_PROPERTY
W(SA)
SciTegic.value.DoubleValue
2.080

@<SCITEGIC>MOL_PROPERTY
Valence
SciTegic.value.DoubleValue
2.652

@<SCITEGIC>MOL_PROPERTY
Coulomb
SciTegic.value.DoubleValue
5.578

@<SCITEGIC>MOL_PROPERTY
VdW
SciTegic.value.DoubleValue
0.818

@<SCITEGIC>MOL_PROPERTY
VdW6
SciTegic.value.DoubleValue
-4.535

@<SCITEGIC>MOL_PROPERTY
VdW12
SciTegic.value.DoubleValue
5.352

@<SCITEGIC>MOL_PROPERTY
Bond
SciTegic.value.DoubleValue
0.063

@<SCITEGIC>MOL_PROPERTY
Angle
SciTegic.value.DoubleValue
2.579

@<SCITEGIC>MOL_PROPERTY
Pdih
SciTegic.value.DoubleValue
0.010

@<SCITEGIC>MOL_PROPERTY
Idih
SciTegic.value.DoubleValue
0.000

@<SCITEGIC>MOL_PROPERTY
Tether
SciTegic.value.DoubleValue
0.000

@<TRIPOS>MOLECULE
guest-s19_confgen4.mol2 : confsearch ligand conformer 303
          17          16           1
SMALL
USER_CHARGES
 
@<TRIPOS>ATOM
       1    C1      22.994437   19.867495   22.207204 C.2        1 MOL1         0.6173
       2    O1      23.305566   19.333995   23.255544 O.co2      1 MOL1        -0.6755
       3    O2      23.812659   20.262193   21.399407 O.co2      1 MOL1        -0.6755
       4    C2      21.556012   20.059671   21.878429 C.2        1 MOL1        -0.1504
       5    H1      21.347019   20.543520   20.927129 H          1 MOL1         0.0814
       6    C3      20.540609   19.669145   22.681818 C.2        1 MOL1        -0.1394
       7    H2      20.738611   19.180429   23.635521 H          1 MOL1         0.0817
       8    C4      19.078736   19.864615   22.338696 C.3        1 MOL1        -0.1849
       9    H3      18.936801   20.853039   21.881094 H          1 MOL1         0.0736
      10    H4      18.476687   19.863227   23.257298 H          1 MOL1         0.0736
      11    C5      18.551383   18.779743   21.374066 C.3        1 MOL1        -0.1866
      12    H5      17.523281   19.030695   21.078797 H          1 MOL1         0.0738
      13    H6      19.151118   18.779539   20.453335 H          1 MOL1         0.0738
      14    C6      18.565607   17.370627   22.004068 C.3        1 MOL1        -0.2879
      15    H7      17.961359   17.343953   22.920211 H          1 MOL1         0.0750
      16    H8      18.154033   16.631209   21.304944 H          1 MOL1         0.0750
      17    H9      19.587639   17.060705   22.258272 H          1 MOL1         0.0750
@<TRIPOS>BOND
    1     1     2    1
    2     1     3    2
    3     1     4    1
    4     4     5    1
    5     4     6    2
    6     6     7    1
    7     6     8    1
    8     8     9    1
    9     8    10    1
   10     8    11    1
   11    11    12    1
   12    11    13    1
   13    11    14    1
   14    14    15    1
   15    14    16    1
   16    14    17    1
@<TRIPOS>SUBSTRUCTURE
       1 MOL1            1 RESIDUE      1      MOL     
@<SCITEGIC>MOL_PROPERTY
VConf Rank
SciTegic.value.IntegerValue
303

@<SCITEGIC>MOL_PROPERTY
Conf_Id
SciTegic.value.IntegerValue
3

@<SCITEGIC>MOL_PROPERTY
Delta U+W
SciTegic.value.DoubleValue
0.531

@<SCITEGIC>MOL_PROPERTY
U+W
SciTegic.value.DoubleValue
-52.878

@<SCITEGIC>MOL_PROPERTY
Grad RMS
SciTegic.value.DoubleValue
0.000000

@<SCITEGIC>MOL_PROPERTY
U
SciTegic.value.DoubleValue
10.067

@<SCITEGIC>MOL_PROPERTY
W
SciTegic.value.DoubleValue
-62.945

@<SCITEGIC>MOL_PROPERTY
W(PB)
SciTegic.value.DoubleValue
-64.982

@<SCITEGIC>MOL_PROPERTY
W(SA)
SciTegic.value.DoubleValue
2.037

@<SCITEGIC>MOL_PROPERTY
Valence
SciTegic.value.DoubleValue
2.779

@<SCITEGIC>MOL_PROPERTY
Coulomb
SciTegic.value.DoubleValue
6.474

@<SCITEGIC>MOL_PROPERTY
VdW
SciTegic.value.DoubleValue
0.815

@<SCITEGIC>MOL_PROPERTY
VdW6
SciTegic.value.DoubleValue
-5.088

@<SCITEGIC>MOL_PROPERTY
VdW12
SciTegic.value.DoubleValue
5.902

@<SCITEGIC>MOL_PROPERTY
Bond
SciTegic.value.DoubleValue
0.078

@<SCITEGIC>MOL_PROPERTY
Angle
SciTegic.value.DoubleValue
2.651

@<SCITEGIC>MOL_PROPERTY
Pdih
SciTegic.value.DoubleValue
0.050

@<SCITEGIC>MOL_PROPERTY
Idih
SciTegic.value.DoubleValue
0.000

@<SCITEGIC>MOL_PROPERTY
Tether
SciTegic.value.DoubleValue
0.000

@<TRIPOS>MOLECULE
guest-s19_confgen4.mol2 : confsearch ligand conformer 304
          17          16           1
SMALL
USER_CHARGES
 
@<TRIPOS>ATOM
       1    C1      17.236603   17.986075   21.469308 C.2        1 MOL1         0.6173
       2    O1      16.257990   18.543601   21.011856 O.co2      1 MOL1        -0.6755
       3    O2      17.170563   16.947238   22.099311 O.co2      1 MOL1        -0.6755
       4    C2      18.562020   18.619500   21.232422 C.2        1 MOL1        -0.1504
       5    H1      18.549546   19.545623   20.662468 H          1 MOL1         0.0814
       6    C3      19.731460   18.111634   21.684159 C.2        1 MOL1        -0.1394
       7    H2      19.752603   17.186160   22.259112 H          1 MOL1         0.0817
       8    C4      21.078970   18.760283   21.443729 C.3        1 MOL1        -0.1849
       9    H3      21.016048   19.489848   20.624879 H          1 MOL1         0.0736
      10    H4      21.792453   17.992999   21.114749 H          1 MOL1         0.0736
      11    C5      21.632535   19.448628   22.710580 C.3        1 MOL1        -0.1866
      12    H5      21.693317   18.720120   23.530971 H          1 MOL1         0.0738
      13    H6      22.659305   19.787242   22.514920 H          1 MOL1         0.0738
      14    C6      20.779534   20.657650   23.150450 C.3        1 MOL1        -0.2879
      15    H7      19.760810   20.347654   23.417201 H          1 MOL1         0.0750
      16    H8      21.223599   21.144466   24.028335 H          1 MOL1         0.0750
      17    H9      20.711522   21.403000   22.347381 H          1 MOL1         0.0750
@<TRIPOS>BOND
    1     1     2    1
    2     1     3    2
    3     1     4    1
    4     4     5    1
    5     4     6    2
    6     6     7    1
    7     6     8    1
    8     8     9    1
    9     8    10    1
   10     8    11    1
   11    11    12    1
   12    11    13    1
   13    11    14    1
   14    14    15    1
   15    14    16    1
   16    14    17    1
@<TRIPOS>SUBSTRUCTURE
       1 MOL1            1 RESIDUE      1      MOL     
@<SCITEGIC>MOL_PROPERTY
VConf Rank
SciTegic.value.IntegerValue
304

@<SCITEGIC>MOL_PROPERTY
Conf_Id
SciTegic.value.IntegerValue
45

@<SCITEGIC>MOL_PROPERTY
Delta U+W
SciTegic.value.DoubleValue
0.562

@<SCITEGIC>MOL_PROPERTY
U+W
SciTegic.value.DoubleValue
-52.846

@<SCITEGIC>MOL_PROPERTY
Grad RMS
SciTegic.value.DoubleValue
0.000000

@<SCITEGIC>MOL_PROPERTY
U
SciTegic.value.DoubleValue
10.243

@<SCITEGIC>MOL_PROPERTY
W
SciTegic.value.DoubleValue
-63.089

@<SCITEGIC>MOL_PROPERTY
W(PB)
SciTegic.value.DoubleValue
-65.116

@<SCITEGIC>MOL_PROPERTY
W(SA)
SciTegic.value.DoubleValue
2.026

@<SCITEGIC>MOL_PROPERTY
Valence
SciTegic.value.DoubleValue
2.822

@<SCITEGIC>MOL_PROPERTY
Coulomb
SciTegic.value.DoubleValue
6.637

@<SCITEGIC>MOL_PROPERTY
VdW
SciTegic.value.DoubleValue
0.785

@<SCITEGIC>MOL_PROPERTY
VdW6
SciTegic.value.DoubleValue
-5.216

@<SCITEGIC>MOL_PROPERTY
VdW12
SciTegic.value.DoubleValue
6.001

@<SCITEGIC>MOL_PROPERTY
Bond
SciTegic.value.DoubleValue
0.080

@<SCITEGIC>MOL_PROPERTY
Angle
SciTegic.value.DoubleValue
2.678

@<SCITEGIC>MOL_PROPERTY
Pdih
SciTegic.value.DoubleValue
0.064

@<SCITEGIC>MOL_PROPERTY
Idih
SciTegic.value.DoubleValue
0.000

@<SCITEGIC>MOL_PROPERTY
Tether
SciTegic.value.DoubleValue
0.000

@<TRIPOS>MOLECULE
guest-s19_confgen4.mol2 : confsearch ligand conformer 305
          17          16           1
SMALL
USER_CHARGES
 
@<TRIPOS>ATOM
       1    C1      22.326266   18.190119   19.660912 C.2        1 MOL1         0.6173
       2    O1      23.433127   17.723429   19.847358 O.co2      1 MOL1        -0.6755
       3    O2      21.962200   18.615919   18.580845 O.co2      1 MOL1        -0.6755
       4    C2      21.393044   18.230340   20.819204 C.2        1 MOL1        -0.1504
       5    H1      21.780726   17.834234   21.754999 H          1 MOL1         0.0814
       6    C3      20.134745   18.722122   20.756613 C.2        1 MOL1        -0.1394
       7    H2      19.737073   19.123593   19.824706 H          1 MOL1         0.0817
       8    C4      19.192730   18.761338   21.939959 C.3        1 MOL1        -0.1849
       9    H3      19.309124   17.850519   22.543009 H          1 MOL1         0.0736
      10    H4      18.153999   18.769152   21.583077 H          1 MOL1         0.0736
      11    C5      19.445885   20.003360   22.818769 C.3        1 MOL1        -0.1866
      12    H5      20.483627   19.994879   23.180128 H          1 MOL1         0.0738
      13    H6      19.326888   20.913066   22.213919 H          1 MOL1         0.0738
      14    C6      18.483272   20.055704   24.022164 C.3        1 MOL1        -0.2879
      15    H7      17.438263   20.097115   23.687990 H          1 MOL1         0.0750
      16    H8      18.604328   19.170893   24.660829 H          1 MOL1         0.0750
      17    H9      18.678454   20.945253   24.635137 H          1 MOL1         0.0750
@<TRIPOS>BOND
    1     1     2    1
    2     1     3    2
    3     1     4    1
    4     4     5    1
    5     4     6    2
    6     6     7    1
    7     6     8    1
    8     8     9    1
    9     8    10    1
   10     8    11    1
   11    11    12    1
   12    11    13    1
   13    11    14    1
   14    14    15    1
   15    14    16    1
   16    14    17    1
@<TRIPOS>SUBSTRUCTURE
       1 MOL1            1 RESIDUE      1      MOL     
@<SCITEGIC>MOL_PROPERTY
VConf Rank
SciTegic.value.IntegerValue
305

@<SCITEGIC>MOL_PROPERTY
Conf_Id
SciTegic.value.IntegerValue
36

@<SCITEGIC>MOL_PROPERTY
Delta U+W
SciTegic.value.DoubleValue
0.000

@<SCITEGIC>MOL_PROPERTY
U+W
SciTegic.value.DoubleValue
-53.409

@<SCITEGIC>MOL_PROPERTY
Grad RMS
SciTegic.value.DoubleValue
0.000000

@<SCITEGIC>MOL_PROPERTY
U
SciTegic.value.DoubleValue
9.048

@<SCITEGIC>MOL_PROPERTY
W
SciTegic.value.DoubleValue
-62.457

@<SCITEGIC>MOL_PROPERTY
W(PB)
SciTegic.value.DoubleValue
-64.540

@<SCITEGIC>MOL_PROPERTY
W(SA)
SciTegic.value.DoubleValue
2.084

@<SCITEGIC>MOL_PROPERTY
Valence
SciTegic.value.DoubleValue
2.652

@<SCITEGIC>MOL_PROPERTY
Coulomb
SciTegic.value.DoubleValue
5.578

@<SCITEGIC>MOL_PROPERTY
VdW
SciTegic.value.DoubleValue
0.818

@<SCITEGIC>MOL_PROPERTY
VdW6
SciTegic.value.DoubleValue
-4.534

@<SCITEGIC>MOL_PROPERTY
VdW12
SciTegic.value.DoubleValue
5.352

@<SCITEGIC>MOL_PROPERTY
Bond
SciTegic.value.DoubleValue
0.063

@<SCITEGIC>MOL_PROPERTY
Angle
SciTegic.value.DoubleValue
2.579

@<SCITEGIC>MOL_PROPERTY
Pdih
SciTegic.value.DoubleValue
0.010

@<SCITEGIC>MOL_PROPERTY
Idih
SciTegic.value.DoubleValue
0.000

@<SCITEGIC>MOL_PROPERTY
Tether
SciTegic.value.DoubleValue
0.000

@<TRIPOS>MOLECULE
guest-s19_confgen4.mol2 : confsearch ligand conformer 306
          17          16           1
SMALL
USER_CHARGES
 
@<TRIPOS>ATOM
       1    C1      17.339274   17.403891   23.083619 C.2        1 MOL1         0.6173
       2    O1      17.076508   17.872125   24.175454 O.co2      1 MOL1        -0.6755
       3    O2      16.829647   16.383555   22.663024 O.co2      1 MOL1        -0.6755
       4    C2      18.323493   18.093198   22.205933 C.2        1 MOL1        -0.1504
       5    H1      18.512708   17.622543   21.243857 H          1 MOL1         0.0814
       6    C3      18.966742   19.233533   22.544981 C.2        1 MOL1        -0.1394
       7    H2      18.786311   19.712309   23.507266 H          1 MOL1         0.0817
       8    C4      19.967751   19.927219   21.647195 C.3        1 MOL1        -0.1849
       9    H3      20.014289   20.994203   21.903647 H          1 MOL1         0.0736
      10    H4      19.636141   19.871360   20.601384 H          1 MOL1         0.0736
      11    C5      21.371381   19.302245   21.782287 C.3        1 MOL1        -0.1866
      12    H5      21.701752   19.361254   22.828680 H          1 MOL1         0.0738
      13    H6      21.327378   18.235516   21.522070 H          1 MOL1         0.0738
      14    C6      22.399698   20.009847   20.877086 C.3        1 MOL1        -0.2879
      15    H7      22.486759   21.072871   21.137529 H          1 MOL1         0.0750
      16    H8      23.391327   19.551840   20.986778 H          1 MOL1         0.0750
      17    H9      22.108333   19.938223   19.820955 H          1 MOL1         0.0750
@<TRIPOS>BOND
    1     1     2    1
    2     1     3    2
    3     1     4    1
    4     4     5    1
    5     4     6    2
    6     6     7    1
    7     6     8    1
    8     8     9    1
    9     8    10    1
   10     8    11    1
   11    11    12    1
   12    11    13    1
   13    11    14    1
   14    14    15    1
   15    14    16    1
   16    14    17    1
@<TRIPOS>SUBSTRUCTURE
       1 MOL1            1 RESIDUE      1      MOL     
@<SCITEGIC>MOL_PROPERTY
VConf Rank
SciTegic.value.IntegerValue
306

@<SCITEGIC>MOL_PROPERTY
Conf_Id
SciTegic.value.IntegerValue
1

@<SCITEGIC>MOL_PROPERTY
Delta U+W
SciTegic.value.DoubleValue
0.030

@<SCITEGIC>MOL_PROPERTY
U+W
SciTegic.value.DoubleValue
-53.378

@<SCITEGIC>MOL_PROPERTY
Grad RMS
SciTegic.value.DoubleValue
0.000000

@<SCITEGIC>MOL_PROPERTY
U
SciTegic.value.DoubleValue
9.048

@<SCITEGIC>MOL_PROPERTY
W
SciTegic.value.DoubleValue
-62.426

@<SCITEGIC>MOL_PROPERTY
W(PB)
SciTegic.value.DoubleValue
-64.506

@<SCITEGIC>MOL_PROPERTY
W(SA)
SciTegic.value.DoubleValue
2.080

@<SCITEGIC>MOL_PROPERTY
Valence
SciTegic.value.DoubleValue
2.652

@<SCITEGIC>MOL_PROPERTY
Coulomb
SciTegic.value.DoubleValue
5.578

@<SCITEGIC>MOL_PROPERTY
VdW
SciTegic.value.DoubleValue
0.818

@<SCITEGIC>MOL_PROPERTY
VdW6
SciTegic.value.DoubleValue
-4.535

@<SCITEGIC>MOL_PROPERTY
VdW12
SciTegic.value.DoubleValue
5.352

@<SCITEGIC>MOL_PROPERTY
Bond
SciTegic.value.DoubleValue
0.063

@<SCITEGIC>MOL_PROPERTY
Angle
SciTegic.value.DoubleValue
2.579

@<SCITEGIC>MOL_PROPERTY
Pdih
SciTegic.value.DoubleValue
0.010

@<SCITEGIC>MOL_PROPERTY
Idih
SciTegic.value.DoubleValue
0.000

@<SCITEGIC>MOL_PROPERTY
Tether
SciTegic.value.DoubleValue
0.000

@<TRIPOS>MOLECULE
guest-s19_confgen4.mol2 : confsearch ligand conformer 307
          17          16           1
SMALL
USER_CHARGES
 
@<TRIPOS>ATOM
       1    C1      21.753894   16.642558   22.759062 C.2        1 MOL1         0.6173
       2    O1      22.640200   17.180720   23.395682 O.co2      1 MOL1        -0.6755
       3    O2      21.563050   15.442135   22.778419 O.co2      1 MOL1        -0.6755
       4    C2      20.853346   17.468048   21.909550 C.2        1 MOL1        -0.1504
       5    H1      20.083425   16.924900   21.366437 H          1 MOL1         0.0814
       6    C3      20.949061   18.812107   21.794089 C.2        1 MOL1        -0.1394
       7    H2      21.714549   19.366656   22.336399 H          1 MOL1         0.0817
       8    C4      20.026310   19.646143   20.930417 C.3        1 MOL1        -0.1849
       9    H3      19.838001   19.124610   19.982224 H          1 MOL1         0.0736
      10    H4      20.516739   20.592898   20.666924 H          1 MOL1         0.0736
      11    C5      18.677528   19.938782   21.623750 C.3        1 MOL1        -0.1866
      12    H5      18.013410   20.452496   20.915091 H          1 MOL1         0.0738
      13    H6      18.183797   18.993225   21.887526 H          1 MOL1         0.0738
      14    C6      18.838879   20.811067   22.886999 C.3        1 MOL1        -0.2879
      15    H7      19.319464   21.767888   22.644767 H          1 MOL1         0.0750
      16    H8      17.860046   21.027090   23.334356 H          1 MOL1         0.0750
      17    H9      19.449856   20.302476   23.644140 H          1 MOL1         0.0750
@<TRIPOS>BOND
    1     1     2    1
    2     1     3    2
    3     1     4    1
    4     4     5    1
    5     4     6    2
    6     6     7    1
    7     6     8    1
    8     8     9    1
    9     8    10    1
   10     8    11    1
   11    11    12    1
   12    11    13    1
   13    11    14    1
   14    14    15    1
   15    14    16    1
   16    14    17    1
@<TRIPOS>SUBSTRUCTURE
       1 MOL1            1 RESIDUE      1      MOL     
@<SCITEGIC>MOL_PROPERTY
VConf Rank
SciTegic.value.IntegerValue
307

@<SCITEGIC>MOL_PROPERTY
Conf_Id
SciTegic.value.IntegerValue
3

@<SCITEGIC>MOL_PROPERTY
Delta U+W
SciTegic.value.DoubleValue
0.531

@<SCITEGIC>MOL_PROPERTY
U+W
SciTegic.value.DoubleValue
-52.878

@<SCITEGIC>MOL_PROPERTY
Grad RMS
SciTegic.value.DoubleValue
0.000000

@<SCITEGIC>MOL_PROPERTY
U
SciTegic.value.DoubleValue
10.067

@<SCITEGIC>MOL_PROPERTY
W
SciTegic.value.DoubleValue
-62.945

@<SCITEGIC>MOL_PROPERTY
W(PB)
SciTegic.value.DoubleValue
-64.982

@<SCITEGIC>MOL_PROPERTY
W(SA)
SciTegic.value.DoubleValue
2.037

@<SCITEGIC>MOL_PROPERTY
Valence
SciTegic.value.DoubleValue
2.779

@<SCITEGIC>MOL_PROPERTY
Coulomb
SciTegic.value.DoubleValue
6.474

@<SCITEGIC>MOL_PROPERTY
VdW
SciTegic.value.DoubleValue
0.815

@<SCITEGIC>MOL_PROPERTY
VdW6
SciTegic.value.DoubleValue
-5.088

@<SCITEGIC>MOL_PROPERTY
VdW12
SciTegic.value.DoubleValue
5.902

@<SCITEGIC>MOL_PROPERTY
Bond
SciTegic.value.DoubleValue
0.078

@<SCITEGIC>MOL_PROPERTY
Angle
SciTegic.value.DoubleValue
2.651

@<SCITEGIC>MOL_PROPERTY
Pdih
SciTegic.value.DoubleValue
0.050

@<SCITEGIC>MOL_PROPERTY
Idih
SciTegic.value.DoubleValue
0.000

@<SCITEGIC>MOL_PROPERTY
Tether
SciTegic.value.DoubleValue
0.000

@<TRIPOS>MOLECULE
guest-s19_confgen4.mol2 : confsearch ligand conformer 308
          17          16           1
SMALL
USER_CHARGES
 
@<TRIPOS>ATOM
       1    C1      18.431554   18.190099   24.506154 C.2        1 MOL1         0.6173
       2    O1      18.413207   18.652577   25.630235 O.co2      1 MOL1        -0.6755
       3    O2      18.091944   17.048804   24.256036 O.co2      1 MOL1        -0.6755
       4    C2      18.890174   19.079062   23.404572 C.2        1 MOL1        -0.1504
       5    H1      19.178881   20.085903   23.697189 H          1 MOL1         0.0814
       6    C3      18.963442   18.697213   22.109038 C.2        1 MOL1        -0.1394
       7    H2      18.679607   17.689157   21.807741 H          1 MOL1         0.0817
       8    C4      19.433379   19.603683   20.990196 C.3        1 MOL1        -0.1849
       9    H3      19.404985   20.655143   21.307001 H          1 MOL1         0.0736
      10    H4      18.736916   19.520594   20.145184 H          1 MOL1         0.0736
      11    C5      20.855149   19.246362   20.504339 C.3        1 MOL1        -0.1866
      12    H5      20.885100   18.193950   20.189712 H          1 MOL1         0.0738
      13    H6      21.091433   19.846606   19.614915 H          1 MOL1         0.0738
      14    C6      21.931731   19.498254   21.581535 C.3        1 MOL1        -0.2879
      15    H7      21.765213   18.866165   22.463459 H          1 MOL1         0.0750
      16    H8      22.931282   19.271077   21.188909 H          1 MOL1         0.0750
      17    H9      21.924882   20.547070   21.905618 H          1 MOL1         0.0750
@<TRIPOS>BOND
    1     1     2    1
    2     1     3    2
    3     1     4    1
    4     4     5    1
    5     4     6    2
    6     6     7    1
    7     6     8    1
    8     8     9    1
    9     8    10    1
   10     8    11    1
   11    11    12    1
   12    11    13    1
   13    11    14    1
   14    14    15    1
   15    14    16    1
   16    14    17    1
@<TRIPOS>SUBSTRUCTURE
       1 MOL1            1 RESIDUE      1      MOL     
@<SCITEGIC>MOL_PROPERTY
VConf Rank
SciTegic.value.IntegerValue
308

@<SCITEGIC>MOL_PROPERTY
Conf_Id
SciTegic.value.IntegerValue
45

@<SCITEGIC>MOL_PROPERTY
Delta U+W
SciTegic.value.DoubleValue
0.562

@<SCITEGIC>MOL_PROPERTY
U+W
SciTegic.value.DoubleValue
-52.846

@<SCITEGIC>MOL_PROPERTY
Grad RMS
SciTegic.value.DoubleValue
0.000000

@<SCITEGIC>MOL_PROPERTY
U
SciTegic.value.DoubleValue
10.243

@<SCITEGIC>MOL_PROPERTY
W
SciTegic.value.DoubleValue
-63.089

@<SCITEGIC>MOL_PROPERTY
W(PB)
SciTegic.value.DoubleValue
-65.116

@<SCITEGIC>MOL_PROPERTY
W(SA)
SciTegic.value.DoubleValue
2.026

@<SCITEGIC>MOL_PROPERTY
Valence
SciTegic.value.DoubleValue
2.822

@<SCITEGIC>MOL_PROPERTY
Coulomb
SciTegic.value.DoubleValue
6.637

@<SCITEGIC>MOL_PROPERTY
VdW
SciTegic.value.DoubleValue
0.785

@<SCITEGIC>MOL_PROPERTY
VdW6
SciTegic.value.DoubleValue
-5.216

@<SCITEGIC>MOL_PROPERTY
VdW12
SciTegic.value.DoubleValue
6.001

@<SCITEGIC>MOL_PROPERTY
Bond
SciTegic.value.DoubleValue
0.080

@<SCITEGIC>MOL_PROPERTY
Angle
SciTegic.value.DoubleValue
2.678

@<SCITEGIC>MOL_PROPERTY
Pdih
SciTegic.value.DoubleValue
0.064

@<SCITEGIC>MOL_PROPERTY
Idih
SciTegic.value.DoubleValue
0.000

@<SCITEGIC>MOL_PROPERTY
Tether
SciTegic.value.DoubleValue
0.000

@<TRIPOS>MOLECULE
guest-s19_confgen4.mol2 : confsearch ligand conformer 309
          17          16           1
SMALL
USER_CHARGES
 
@<TRIPOS>ATOM
       1    C1      21.663687   19.334185   18.991100 C.2        1 MOL1         0.6173
       2    O1      22.821497   19.057935   18.744391 O.co2      1 MOL1        -0.6755
       3    O2      20.958842   19.968172   18.228441 O.co2      1 MOL1        -0.6755
       4    C2      21.106094   18.864227   20.288170 C.2        1 MOL1        -0.1504
       5    H1      21.788487   18.303408   20.922780 H          1 MOL1         0.0814
       6    C3      19.837254   19.099736   20.692725 C.2        1 MOL1        -0.1394
       7    H2      19.145893   19.662561   20.065812 H          1 MOL1         0.0817
       8    C4      19.278642   18.620062   22.014506 C.3        1 MOL1        -0.1849
       9    H3      19.663468   17.616808   22.242976 H          1 MOL1         0.0736
      10    H4      18.186814   18.526446   21.940119 H          1 MOL1         0.0736
      11    C5      19.636752   19.588359   23.160444 C.3        1 MOL1        -0.1866
      12    H5      20.729006   19.679894   23.238948 H          1 MOL1         0.0738
      13    H6      19.249053   20.590569   22.930592 H          1 MOL1         0.0738
      14    C6      19.062896   19.111367   24.509774 C.3        1 MOL1        -0.2879
      15    H7      17.967963   19.041696   24.468566 H          1 MOL1         0.0750
      16    H8      19.459581   18.123412   24.778142 H          1 MOL1         0.0750
      17    H9      19.327823   19.812199   25.312133 H          1 MOL1         0.0750
@<TRIPOS>BOND
    1     1     2    1
    2     1     3    2
    3     1     4    1
    4     4     5    1
    5     4     6    2
    6     6     7    1
    7     6     8    1
    8     8     9    1
    9     8    10    1
   10     8    11    1
   11    11    12    1
   12    11    13    1
   13    11    14    1
   14    14    15    1
   15    14    16    1
   16    14    17    1
@<TRIPOS>SUBSTRUCTURE
       1 MOL1            1 RESIDUE      1      MOL     
@<SCITEGIC>MOL_PROPERTY
VConf Rank
SciTegic.value.IntegerValue
309

@<SCITEGIC>MOL_PROPERTY
Conf_Id
SciTegic.value.IntegerValue
36

@<SCITEGIC>MOL_PROPERTY
Delta U+W
SciTegic.value.DoubleValue
0.000

@<SCITEGIC>MOL_PROPERTY
U+W
SciTegic.value.DoubleValue
-53.409

@<SCITEGIC>MOL_PROPERTY
Grad RMS
SciTegic.value.DoubleValue
0.000000

@<SCITEGIC>MOL_PROPERTY
U
SciTegic.value.DoubleValue
9.048

@<SCITEGIC>MOL_PROPERTY
W
SciTegic.value.DoubleValue
-62.457

@<SCITEGIC>MOL_PROPERTY
W(PB)
SciTegic.value.DoubleValue
-64.540

@<SCITEGIC>MOL_PROPERTY
W(SA)
SciTegic.value.DoubleValue
2.084

@<SCITEGIC>MOL_PROPERTY
Valence
SciTegic.value.DoubleValue
2.652

@<SCITEGIC>MOL_PROPERTY
Coulomb
SciTegic.value.DoubleValue
5.578

@<SCITEGIC>MOL_PROPERTY
VdW
SciTegic.value.DoubleValue
0.818

@<SCITEGIC>MOL_PROPERTY
VdW6
SciTegic.value.DoubleValue
-4.534

@<SCITEGIC>MOL_PROPERTY
VdW12
SciTegic.value.DoubleValue
5.352

@<SCITEGIC>MOL_PROPERTY
Bond
SciTegic.value.DoubleValue
0.063

@<SCITEGIC>MOL_PROPERTY
Angle
SciTegic.value.DoubleValue
2.579

@<SCITEGIC>MOL_PROPERTY
Pdih
SciTegic.value.DoubleValue
0.010

@<SCITEGIC>MOL_PROPERTY
Idih
SciTegic.value.DoubleValue
0.000

@<SCITEGIC>MOL_PROPERTY
Tether
SciTegic.value.DoubleValue
0.000

@<TRIPOS>MOLECULE
guest-s19_confgen4.mol2 : confsearch ligand conformer 310
          17          16           1
SMALL
USER_CHARGES
 
@<TRIPOS>ATOM
       1    C1      18.470176   20.233057   24.687576 C.2        1 MOL1         0.6173
       2    O1      17.745247   19.338339   25.080450 O.co2      1 MOL1        -0.6755
       3    O2      18.425234   21.362938   25.133732 O.co2      1 MOL1        -0.6755
       4    C2      19.464444   19.956169   23.615696 C.2        1 MOL1        -0.1504
       5    H1      20.080816   20.798844   23.310913 H          1 MOL1         0.0814
       6    C3      19.623215   18.748162   23.028674 C.2        1 MOL1        -0.1394
       7    H2      19.009510   17.897620   23.324846 H          1 MOL1         0.0817
       8    C4      20.635600   18.475436   21.937832 C.3        1 MOL1        -0.1849
       9    H3      20.892466   17.407548   21.933056 H          1 MOL1         0.0736
      10    H4      21.566917   19.019938   22.145131 H          1 MOL1         0.0736
      11    C5      20.092349   18.881793   20.552635 C.3        1 MOL1        -0.1866
      12    H5      19.162080   18.334304   20.346669 H          1 MOL1         0.0738
      13    H6      19.838677   19.951002   20.554459 H          1 MOL1         0.0738
      14    C6      21.114969   18.598340   19.433963 C.3        1 MOL1        -0.2879
      15    H7      21.362513   17.529620   19.389360 H          1 MOL1         0.0750
      16    H8      20.711040   18.893613   18.456831 H          1 MOL1         0.0750
      17    H9      22.044239   19.159011   19.599921 H          1 MOL1         0.0750
@<TRIPOS>BOND
    1     1     2    1
    2     1     3    2
    3     1     4    1
    4     4     5    1
    5     4     6    2
    6     6     7    1
    7     6     8    1
    8     8     9    1
    9     8    10    1
   10     8    11    1
   11    11    12    1
   12    11    13    1
   13    11    14    1
   14    14    15    1
   15    14    16    1
   16    14    17    1
@<TRIPOS>SUBSTRUCTURE
       1 MOL1            1 RESIDUE      1      MOL     
@<SCITEGIC>MOL_PROPERTY
VConf Rank
SciTegic.value.IntegerValue
310

@<SCITEGIC>MOL_PROPERTY
Conf_Id
SciTegic.value.IntegerValue
1

@<SCITEGIC>MOL_PROPERTY
Delta U+W
SciTegic.value.DoubleValue
0.030

@<SCITEGIC>MOL_PROPERTY
U+W
SciTegic.value.DoubleValue
-53.378

@<SCITEGIC>MOL_PROPERTY
Grad RMS
SciTegic.value.DoubleValue
0.000000

@<SCITEGIC>MOL_PROPERTY
U
SciTegic.value.DoubleValue
9.048

@<SCITEGIC>MOL_PROPERTY
W
SciTegic.value.DoubleValue
-62.426

@<SCITEGIC>MOL_PROPERTY
W(PB)
SciTegic.value.DoubleValue
-64.506

@<SCITEGIC>MOL_PROPERTY
W(SA)
SciTegic.value.DoubleValue
2.080

@<SCITEGIC>MOL_PROPERTY
Valence
SciTegic.value.DoubleValue
2.652

@<SCITEGIC>MOL_PROPERTY
Coulomb
SciTegic.value.DoubleValue
5.578

@<SCITEGIC>MOL_PROPERTY
VdW
SciTegic.value.DoubleValue
0.818

@<SCITEGIC>MOL_PROPERTY
VdW6
SciTegic.value.DoubleValue
-4.535

@<SCITEGIC>MOL_PROPERTY
VdW12
SciTegic.value.DoubleValue
5.352

@<SCITEGIC>MOL_PROPERTY
Bond
SciTegic.value.DoubleValue
0.063

@<SCITEGIC>MOL_PROPERTY
Angle
SciTegic.value.DoubleValue
2.579

@<SCITEGIC>MOL_PROPERTY
Pdih
SciTegic.value.DoubleValue
0.010

@<SCITEGIC>MOL_PROPERTY
Idih
SciTegic.value.DoubleValue
0.000

@<SCITEGIC>MOL_PROPERTY
Tether
SciTegic.value.DoubleValue
0.000

@<TRIPOS>MOLECULE
guest-s19_confgen4.mol2 : confsearch ligand conformer 311
          17          16           1
SMALL
USER_CHARGES
 
@<TRIPOS>ATOM
       1    C1      19.754477   16.699235   23.980600 C.2        1 MOL1         0.6173
       2    O1      19.460536   15.815850   23.197229 O.co2      1 MOL1        -0.6755
       3    O2      20.136057   16.476753   25.113168 O.co2      1 MOL1        -0.6755
       4    C2      19.647183   18.122062   23.558530 C.2        1 MOL1        -0.1504
       5    H1      19.924044   18.861306   24.306612 H          1 MOL1         0.0814
       6    C3      19.238919   18.515172   22.330617 C.2        1 MOL1        -0.1394
       7    H2      18.962408   17.782855   21.572427 H          1 MOL1         0.0817
       8    C4      19.135915   19.965301   21.906906 C.3        1 MOL1        -0.1849
       9    H3      18.722489   20.561502   22.731618 H          1 MOL1         0.0736
      10    H4      18.426162   20.060964   21.074204 H          1 MOL1         0.0736
      11    C5      20.501825   20.554556   21.491418 C.3        1 MOL1        -0.1866
      12    H5      20.385100   21.629649   21.297240 H          1 MOL1         0.0738
      13    H6      21.213863   20.461388   22.323132 H          1 MOL1         0.0738
      14    C6      21.081041   19.874520   20.232541 C.3        1 MOL1        -0.2879
      15    H7      20.390776   19.966289   19.383861 H          1 MOL1         0.0750
      16    H8      22.033475   20.339274   19.946567 H          1 MOL1         0.0750
      17    H9      21.267287   18.807122   20.409162 H          1 MOL1         0.0750
@<TRIPOS>BOND
    1     1     2    1
    2     1     3    2
    3     1     4    1
    4     4     5    1
    5     4     6    2
    6     6     7    1
    7     6     8    1
    8     8     9    1
    9     8    10    1
   10     8    11    1
   11    11    12    1
   12    11    13    1
   13    11    14    1
   14    14    15    1
   15    14    16    1
   16    14    17    1
@<TRIPOS>SUBSTRUCTURE
       1 MOL1            1 RESIDUE      1      MOL     
@<SCITEGIC>MOL_PROPERTY
VConf Rank
SciTegic.value.IntegerValue
311

@<SCITEGIC>MOL_PROPERTY
Conf_Id
SciTegic.value.IntegerValue
3

@<SCITEGIC>MOL_PROPERTY
Delta U+W
SciTegic.value.DoubleValue
0.531

@<SCITEGIC>MOL_PROPERTY
U+W
SciTegic.value.DoubleValue
-52.878

@<SCITEGIC>MOL_PROPERTY
Grad RMS
SciTegic.value.DoubleValue
0.000000

@<SCITEGIC>MOL_PROPERTY
U
SciTegic.value.DoubleValue
10.067

@<SCITEGIC>MOL_PROPERTY
W
SciTegic.value.DoubleValue
-62.945

@<SCITEGIC>MOL_PROPERTY
W(PB)
SciTegic.value.DoubleValue
-64.982

@<SCITEGIC>MOL_PROPERTY
W(SA)
SciTegic.value.DoubleValue
2.037

@<SCITEGIC>MOL_PROPERTY
Valence
SciTegic.value.DoubleValue
2.779

@<SCITEGIC>MOL_PROPERTY
Coulomb
SciTegic.value.DoubleValue
6.474

@<SCITEGIC>MOL_PROPERTY
VdW
SciTegic.value.DoubleValue
0.815

@<SCITEGIC>MOL_PROPERTY
VdW6
SciTegic.value.DoubleValue
-5.088

@<SCITEGIC>MOL_PROPERTY
VdW12
SciTegic.value.DoubleValue
5.902

@<SCITEGIC>MOL_PROPERTY
Bond
SciTegic.value.DoubleValue
0.078

@<SCITEGIC>MOL_PROPERTY
Angle
SciTegic.value.DoubleValue
2.651

@<SCITEGIC>MOL_PROPERTY
Pdih
SciTegic.value.DoubleValue
0.050

@<SCITEGIC>MOL_PROPERTY
Idih
SciTegic.value.DoubleValue
0.000

@<SCITEGIC>MOL_PROPERTY
Tether
SciTegic.value.DoubleValue
0.000

@<TRIPOS>MOLECULE
guest-s19_confgen4.mol2 : confsearch ligand conformer 312
          17          16           1
SMALL
USER_CHARGES
 
@<TRIPOS>ATOM
       1    C1      17.074848   18.666544   22.789565 C.2        1 MOL1         0.6173
       2    O1      16.096089   18.638880   22.069116 O.co2      1 MOL1        -0.6755
       3    O2      17.008312   18.877044   23.986106 O.co2      1 MOL1        -0.6755
       4    C2      18.400430   18.426439   22.157698 C.2        1 MOL1        -0.1504
       5    H1      18.388384   18.244863   21.085508 H          1 MOL1         0.0814
       6    C3      19.570498   18.430363   22.836306 C.2        1 MOL1        -0.1394
       7    H2      19.591941   18.615075   23.910056 H          1 MOL1         0.0817
       8    C4      20.918719   18.188317   22.189737 C.3        1 MOL1        -0.1849
       9    H3      20.795980   17.718114   21.204555 H          1 MOL1         0.0736
      10    H4      21.485953   17.473413   22.800611 H          1 MOL1         0.0736
      11    C5      21.741438   19.487386   22.045797 C.3        1 MOL1        -0.1866
      12    H5      21.862441   19.959789   23.030507 H          1 MOL1         0.0738
      13    H6      22.750817   19.235148   21.692627 H          1 MOL1         0.0738
      14    C6      21.100732   20.490337   21.062732 C.3        1 MOL1        -0.2879
      15    H7      20.113920   20.816252   21.416337 H          1 MOL1         0.0750
      16    H8      21.731160   21.382531   20.955892 H          1 MOL1         0.0750
      17    H9      20.977219   20.041225   20.068682 H          1 MOL1         0.0750
@<TRIPOS>BOND
    1     1     2    1
    2     1     3    2
    3     1     4    1
    4     4     5    1
    5     4     6    2
    6     6     7    1
    7     6     8    1
    8     8     9    1
    9     8    10    1
   10     8    11    1
   11    11    12    1
   12    11    13    1
   13    11    14    1
   14    14    15    1
   15    14    16    1
   16    14    17    1
@<TRIPOS>SUBSTRUCTURE
       1 MOL1            1 RESIDUE      1      MOL     
@<SCITEGIC>MOL_PROPERTY
VConf Rank
SciTegic.value.IntegerValue
312

@<SCITEGIC>MOL_PROPERTY
Conf_Id
SciTegic.value.IntegerValue
45

@<SCITEGIC>MOL_PROPERTY
Delta U+W
SciTegic.value.DoubleValue
0.562

@<SCITEGIC>MOL_PROPERTY
U+W
SciTegic.value.DoubleValue
-52.846

@<SCITEGIC>MOL_PROPERTY
Grad RMS
SciTegic.value.DoubleValue
0.000000

@<SCITEGIC>MOL_PROPERTY
U
SciTegic.value.DoubleValue
10.243

@<SCITEGIC>MOL_PROPERTY
W
SciTegic.value.DoubleValue
-63.089

@<SCITEGIC>MOL_PROPERTY
W(PB)
SciTegic.value.DoubleValue
-65.116

@<SCITEGIC>MOL_PROPERTY
W(SA)
SciTegic.value.DoubleValue
2.026

@<SCITEGIC>MOL_PROPERTY
Valence
SciTegic.value.DoubleValue
2.822

@<SCITEGIC>MOL_PROPERTY
Coulomb
SciTegic.value.DoubleValue
6.637

@<SCITEGIC>MOL_PROPERTY
VdW
SciTegic.value.DoubleValue
0.785

@<SCITEGIC>MOL_PROPERTY
VdW6
SciTegic.value.DoubleValue
-5.216

@<SCITEGIC>MOL_PROPERTY
VdW12
SciTegic.value.DoubleValue
6.001

@<SCITEGIC>MOL_PROPERTY
Bond
SciTegic.value.DoubleValue
0.080

@<SCITEGIC>MOL_PROPERTY
Angle
SciTegic.value.DoubleValue
2.678

@<SCITEGIC>MOL_PROPERTY
Pdih
SciTegic.value.DoubleValue
0.064

@<SCITEGIC>MOL_PROPERTY
Idih
SciTegic.value.DoubleValue
0.000

@<SCITEGIC>MOL_PROPERTY
Tether
SciTegic.value.DoubleValue
0.000

@<TRIPOS>MOLECULE
guest-s19_confgen4.mol2 : confsearch ligand conformer 313
          17          16           1
SMALL
USER_CHARGES
 
@<TRIPOS>ATOM
       1    C1      22.174711   21.690389   21.901876 C.2        1 MOL1         0.6173
       2    O1      22.331392   22.570059   22.726094 O.co2      1 MOL1        -0.6755
       3    O2      22.660880   21.735097   20.787409 O.co2      1 MOL1        -0.6755
       4    C2      21.349428   20.516990   22.297102 C.2        1 MOL1        -0.1504
       5    H1      20.944832   20.539668   23.306407 H          1 MOL1         0.0814
       6    C3      21.091661   19.468255   21.482979 C.2        1 MOL1        -0.1394
       7    H2      21.490056   19.436416   20.469055 H          1 MOL1         0.0817
       8    C4      20.249464   18.279712   21.892010 C.3        1 MOL1        -0.1849
       9    H3      20.451188   18.019327   22.940016 H          1 MOL1         0.0736
      10    H4      20.533000   17.404233   21.292401 H          1 MOL1         0.0736
      11    C5      18.745296   18.566656   21.707200 C.3        1 MOL1        -0.1866
      12    H5      18.459058   19.439862   22.309811 H          1 MOL1         0.0738
      13    H6      18.545720   18.824828   20.657874 H          1 MOL1         0.0738
      14    C6      17.880272   17.356487   22.113093 C.3        1 MOL1        -0.2879
      15    H7      18.124310   16.476765   21.503202 H          1 MOL1         0.0750
      16    H8      18.038220   17.096922   23.168135 H          1 MOL1         0.0750
      17    H9      16.814264   17.579369   21.974952 H          1 MOL1         0.0750
@<TRIPOS>BOND
    1     1     2    1
    2     1     3    2
    3     1     4    1
    4     4     5    1
    5     4     6    2
    6     6     7    1
    7     6     8    1
    8     8     9    1
    9     8    10    1
   10     8    11    1
   11    11    12    1
   12    11    13    1
   13    11    14    1
   14    14    15    1
   15    14    16    1
   16    14    17    1
@<TRIPOS>SUBSTRUCTURE
       1 MOL1            1 RESIDUE      1      MOL     
@<SCITEGIC>MOL_PROPERTY
VConf Rank
SciTegic.value.IntegerValue
313

@<SCITEGIC>MOL_PROPERTY
Conf_Id
SciTegic.value.IntegerValue
36

@<SCITEGIC>MOL_PROPERTY
Delta U+W
SciTegic.value.DoubleValue
0.000

@<SCITEGIC>MOL_PROPERTY
U+W
SciTegic.value.DoubleValue
-53.409

@<SCITEGIC>MOL_PROPERTY
Grad RMS
SciTegic.value.DoubleValue
0.000000

@<SCITEGIC>MOL_PROPERTY
U
SciTegic.value.DoubleValue
9.048

@<SCITEGIC>MOL_PROPERTY
W
SciTegic.value.DoubleValue
-62.457

@<SCITEGIC>MOL_PROPERTY
W(PB)
SciTegic.value.DoubleValue
-64.540

@<SCITEGIC>MOL_PROPERTY
W(SA)
SciTegic.value.DoubleValue
2.084

@<SCITEGIC>MOL_PROPERTY
Valence
SciTegic.value.DoubleValue
2.652

@<SCITEGIC>MOL_PROPERTY
Coulomb
SciTegic.value.DoubleValue
5.578

@<SCITEGIC>MOL_PROPERTY
VdW
SciTegic.value.DoubleValue
0.818

@<SCITEGIC>MOL_PROPERTY
VdW6
SciTegic.value.DoubleValue
-4.534

@<SCITEGIC>MOL_PROPERTY
VdW12
SciTegic.value.DoubleValue
5.352

@<SCITEGIC>MOL_PROPERTY
Bond
SciTegic.value.DoubleValue
0.063

@<SCITEGIC>MOL_PROPERTY
Angle
SciTegic.value.DoubleValue
2.579

@<SCITEGIC>MOL_PROPERTY
Pdih
SciTegic.value.DoubleValue
0.010

@<SCITEGIC>MOL_PROPERTY
Idih
SciTegic.value.DoubleValue
0.000

@<SCITEGIC>MOL_PROPERTY
Tether
SciTegic.value.DoubleValue
0.000

@<TRIPOS>MOLECULE
guest-s19_confgen4.mol2 : confsearch ligand conformer 314
          17          16           1
SMALL
USER_CHARGES
 
@<TRIPOS>ATOM
       1    C1      23.186153   18.366901   21.025992 C.2        1 MOL1         0.6173
       2    O1      23.505548   19.170451   20.170020 O.co2      1 MOL1        -0.6755
       3    O2      23.855764   17.388919   21.295950 O.co2      1 MOL1        -0.6755
       4    C2      21.925660   18.569434   21.790388 C.2        1 MOL1        -0.1504
       5    H1      21.699110   17.815190   22.540521 H          1 MOL1         0.0814
       6    C3      21.084717   19.610471   21.595089 C.2        1 MOL1        -0.1394
       7    H2      21.300896   20.370676   20.844670 H          1 MOL1         0.0817
       8    C4      19.803696   19.808068   22.375588 C.3        1 MOL1        -0.1849
       9    H3      19.535645   20.873209   22.378984 H          1 MOL1         0.0736
      10    H4      19.955158   19.520596   23.424981 H          1 MOL1         0.0736
      11    C5      18.645920   18.986425   21.772699 C.3        1 MOL1        -0.1866
      12    H5      18.494949   19.277261   20.723800 H          1 MOL1         0.0738
      13    H6      18.910848   17.919948   21.772324 H          1 MOL1         0.0738
      14    C6      17.334123   19.189612   22.557191 C.3        1 MOL1        -0.2879
      15    H7      17.029132   20.244266   22.546475 H          1 MOL1         0.0750
      16    H8      16.522747   18.597774   22.113876 H          1 MOL1         0.0750
      17    H9      17.449425   18.876532   23.603194 H          1 MOL1         0.0750
@<TRIPOS>BOND
    1     1     2    1
    2     1     3    2
    3     1     4    1
    4     4     5    1
    5     4     6    2
    6     6     7    1
    7     6     8    1
    8     8     9    1
    9     8    10    1
   10     8    11    1
   11    11    12    1
   12    11    13    1
   13    11    14    1
   14    14    15    1
   15    14    16    1
   16    14    17    1
@<TRIPOS>SUBSTRUCTURE
       1 MOL1            1 RESIDUE      1      MOL     
@<SCITEGIC>MOL_PROPERTY
VConf Rank
SciTegic.value.IntegerValue
314

@<SCITEGIC>MOL_PROPERTY
Conf_Id
SciTegic.value.IntegerValue
1

@<SCITEGIC>MOL_PROPERTY
Delta U+W
SciTegic.value.DoubleValue
0.030

@<SCITEGIC>MOL_PROPERTY
U+W
SciTegic.value.DoubleValue
-53.378

@<SCITEGIC>MOL_PROPERTY
Grad RMS
SciTegic.value.DoubleValue
0.000000

@<SCITEGIC>MOL_PROPERTY
U
SciTegic.value.DoubleValue
9.048

@<SCITEGIC>MOL_PROPERTY
W
SciTegic.value.DoubleValue
-62.426

@<SCITEGIC>MOL_PROPERTY
W(PB)
SciTegic.value.DoubleValue
-64.506

@<SCITEGIC>MOL_PROPERTY
W(SA)
SciTegic.value.DoubleValue
2.080

@<SCITEGIC>MOL_PROPERTY
Valence
SciTegic.value.DoubleValue
2.652

@<SCITEGIC>MOL_PROPERTY
Coulomb
SciTegic.value.DoubleValue
5.578

@<SCITEGIC>MOL_PROPERTY
VdW
SciTegic.value.DoubleValue
0.818

@<SCITEGIC>MOL_PROPERTY
VdW6
SciTegic.value.DoubleValue
-4.535

@<SCITEGIC>MOL_PROPERTY
VdW12
SciTegic.value.DoubleValue
5.352

@<SCITEGIC>MOL_PROPERTY
Bond
SciTegic.value.DoubleValue
0.063

@<SCITEGIC>MOL_PROPERTY
Angle
SciTegic.value.DoubleValue
2.579

@<SCITEGIC>MOL_PROPERTY
Pdih
SciTegic.value.DoubleValue
0.010

@<SCITEGIC>MOL_PROPERTY
Idih
SciTegic.value.DoubleValue
0.000

@<SCITEGIC>MOL_PROPERTY
Tether
SciTegic.value.DoubleValue
0.000

@<TRIPOS>MOLECULE
guest-s19_confgen4.mol2 : confsearch ligand conformer 315
          17          16           1
SMALL
USER_CHARGES
 
@<TRIPOS>ATOM
       1    C1      22.687642   19.036264   20.513194 C.2        1 MOL1         0.6173
       2    O1      22.413008   19.757600   19.572614 O.co2      1 MOL1        -0.6755
       3    O2      23.829539   18.737988   20.804593 O.co2      1 MOL1        -0.6755
       4    C2      21.595355   18.479683   21.356531 C.2        1 MOL1        -0.1504
       5    H1      21.909182   17.842132   22.179818 H          1 MOL1         0.0814
       6    C3      20.282216   18.728309   21.149560 C.2        1 MOL1        -0.1394
       7    H2      19.956898   19.368356   20.329739 H          1 MOL1         0.0817
       8    C4      19.176173   18.161337   22.014561 C.3        1 MOL1        -0.1849
       9    H3      19.403064   17.116017   22.264266 H          1 MOL1         0.0736
      10    H4      18.233747   18.143806   21.450806 H          1 MOL1         0.0736
      11    C5      18.981898   18.963035   23.320355 C.3        1 MOL1        -0.1866
      12    H5      18.245097   18.447822   23.951887 H          1 MOL1         0.0738
      13    H6      19.923001   18.981300   23.887293 H          1 MOL1         0.0738
      14    C6      18.502604   20.407391   23.061844 C.3        1 MOL1        -0.2879
      15    H7      17.555578   20.413438   22.506641 H          1 MOL1         0.0750
      16    H8      18.342879   20.936508   24.010227 H          1 MOL1         0.0750
      17    H9      19.243674   20.972814   22.481902 H          1 MOL1         0.0750
@<TRIPOS>BOND
    1     1     2    1
    2     1     3    2
    3     1     4    1
    4     4     5    1
    5     4     6    2
    6     6     7    1
    7     6     8    1
    8     8     9    1
    9     8    10    1
   10     8    11    1
   11    11    12    1
   12    11    13    1
   13    11    14    1
   14    14    15    1
   15    14    16    1
   16    14    17    1
@<TRIPOS>SUBSTRUCTURE
       1 MOL1            1 RESIDUE      1      MOL     
@<SCITEGIC>MOL_PROPERTY
VConf Rank
SciTegic.value.IntegerValue
315

@<SCITEGIC>MOL_PROPERTY
Conf_Id
SciTegic.value.IntegerValue
3

@<SCITEGIC>MOL_PROPERTY
Delta U+W
SciTegic.value.DoubleValue
0.531

@<SCITEGIC>MOL_PROPERTY
U+W
SciTegic.value.DoubleValue
-52.878

@<SCITEGIC>MOL_PROPERTY
Grad RMS
SciTegic.value.DoubleValue
0.000000

@<SCITEGIC>MOL_PROPERTY
U
SciTegic.value.DoubleValue
10.067

@<SCITEGIC>MOL_PROPERTY
W
SciTegic.value.DoubleValue
-62.945

@<SCITEGIC>MOL_PROPERTY
W(PB)
SciTegic.value.DoubleValue
-64.982

@<SCITEGIC>MOL_PROPERTY
W(SA)
SciTegic.value.DoubleValue
2.037

@<SCITEGIC>MOL_PROPERTY
Valence
SciTegic.value.DoubleValue
2.779

@<SCITEGIC>MOL_PROPERTY
Coulomb
SciTegic.value.DoubleValue
6.474

@<SCITEGIC>MOL_PROPERTY
VdW
SciTegic.value.DoubleValue
0.815

@<SCITEGIC>MOL_PROPERTY
VdW6
SciTegic.value.DoubleValue
-5.088

@<SCITEGIC>MOL_PROPERTY
VdW12
SciTegic.value.DoubleValue
5.902

@<SCITEGIC>MOL_PROPERTY
Bond
SciTegic.value.DoubleValue
0.078

@<SCITEGIC>MOL_PROPERTY
Angle
SciTegic.value.DoubleValue
2.651

@<SCITEGIC>MOL_PROPERTY
Pdih
SciTegic.value.DoubleValue
0.050

@<SCITEGIC>MOL_PROPERTY
Idih
SciTegic.value.DoubleValue
0.000

@<SCITEGIC>MOL_PROPERTY
Tether
SciTegic.value.DoubleValue
0.000

@<TRIPOS>MOLECULE
guest-s19_confgen4.mol2 : confsearch ligand conformer 316
          17          16           1
SMALL
USER_CHARGES
 
@<TRIPOS>ATOM
       1    C1      20.436199   21.852503   20.924001 C.2        1 MOL1         0.6173
       2    O1      20.437036   22.216295   19.764073 O.co2      1 MOL1        -0.6755
       3    O2      20.977372   22.481677   21.813787 O.co2      1 MOL1        -0.6755
       4    C2      19.733421   20.580839   21.245009 C.2        1 MOL1        -0.1504
       5    H1      19.271543   20.069263   20.403781 H          1 MOL1         0.0814
       6    C3      19.654931   20.056598   22.489435 C.2        1 MOL1        -0.1394
       7    H2      20.118006   20.560763   23.337312 H          1 MOL1         0.0817
       8    C4      18.941090   18.760333   22.812643 C.3        1 MOL1        -0.1849
       9    H3      18.259179   18.481165   21.997902 H          1 MOL1         0.0736
      10    H4      18.311513   18.909524   23.699990 H          1 MOL1         0.0736
      11    C5      19.925005   17.601676   23.085757 C.3        1 MOL1        -0.1866
      12    H5      20.609237   17.881144   23.898888 H          1 MOL1         0.0738
      13    H6      19.360304   16.727248   23.437448 H          1 MOL1         0.0738
      14    C6      20.737899   17.205416   21.834753 C.3        1 MOL1        -0.2879
      15    H7      21.366309   18.037192   21.490800 H          1 MOL1         0.0750
      16    H8      21.396420   16.355429   22.055523 H          1 MOL1         0.0750
      17    H9      20.073415   16.914658   21.010731 H          1 MOL1         0.0750
@<TRIPOS>BOND
    1     1     2    1
    2     1     3    2
    3     1     4    1
    4     4     5    1
    5     4     6    2
    6     6     7    1
    7     6     8    1
    8     8     9    1
    9     8    10    1
   10     8    11    1
   11    11    12    1
   12    11    13    1
   13    11    14    1
   14    14    15    1
   15    14    16    1
   16    14    17    1
@<TRIPOS>SUBSTRUCTURE
       1 MOL1            1 RESIDUE      1      MOL     
@<SCITEGIC>MOL_PROPERTY
VConf Rank
SciTegic.value.IntegerValue
316

@<SCITEGIC>MOL_PROPERTY
Conf_Id
SciTegic.value.IntegerValue
45

@<SCITEGIC>MOL_PROPERTY
Delta U+W
SciTegic.value.DoubleValue
0.562

@<SCITEGIC>MOL_PROPERTY
U+W
SciTegic.value.DoubleValue
-52.846

@<SCITEGIC>MOL_PROPERTY
Grad RMS
SciTegic.value.DoubleValue
0.000000

@<SCITEGIC>MOL_PROPERTY
U
SciTegic.value.DoubleValue
10.243

@<SCITEGIC>MOL_PROPERTY
W
SciTegic.value.DoubleValue
-63.089

@<SCITEGIC>MOL_PROPERTY
W(PB)
SciTegic.value.DoubleValue
-65.116

@<SCITEGIC>MOL_PROPERTY
W(SA)
SciTegic.value.DoubleValue
2.026

@<SCITEGIC>MOL_PROPERTY
Valence
SciTegic.value.DoubleValue
2.822

@<SCITEGIC>MOL_PROPERTY
Coulomb
SciTegic.value.DoubleValue
6.637

@<SCITEGIC>MOL_PROPERTY
VdW
SciTegic.value.DoubleValue
0.785

@<SCITEGIC>MOL_PROPERTY
VdW6
SciTegic.value.DoubleValue
-5.216

@<SCITEGIC>MOL_PROPERTY
VdW12
SciTegic.value.DoubleValue
6.001

@<SCITEGIC>MOL_PROPERTY
Bond
SciTegic.value.DoubleValue
0.080

@<SCITEGIC>MOL_PROPERTY
Angle
SciTegic.value.DoubleValue
2.678

@<SCITEGIC>MOL_PROPERTY
Pdih
SciTegic.value.DoubleValue
0.064

@<SCITEGIC>MOL_PROPERTY
Idih
SciTegic.value.DoubleValue
0.000

@<SCITEGIC>MOL_PROPERTY
Tether
SciTegic.value.DoubleValue
0.000

@<TRIPOS>MOLECULE
guest-s19_confgen4.mol2 : confsearch ligand conformer 317
          17          16           1
SMALL
USER_CHARGES
 
@<TRIPOS>ATOM
       1    C1      16.663771   18.685242   21.587766 C.2        1 MOL1         0.6173
       2    O1      15.992780   17.693138   21.795628 O.co2      1 MOL1        -0.6755
       3    O2      16.238791   19.657311   20.992060 O.co2      1 MOL1        -0.6755
       4    C2      18.062657   18.687812   22.094985 C.2        1 MOL1        -0.1504
       5    H1      18.379369   17.788547   22.618362 H          1 MOL1         0.0814
       6    C3      18.920544   19.721008   21.934916 C.2        1 MOL1        -0.1394
       7    H2      18.614386   20.625771   21.410089 H          1 MOL1         0.0817
       8    C4      20.342450   19.714707   22.452005 C.3        1 MOL1        -0.1849
       9    H3      20.383372   19.220798   23.432407 H          1 MOL1         0.0736
      10    H4      20.681622   20.747652   22.608128 H          1 MOL1         0.0736
      11    C5      21.294364   19.001783   21.469858 C.3        1 MOL1        -0.1866
      12    H5      20.958793   17.966785   21.315806 H          1 MOL1         0.0738
      13    H6      21.253216   19.498815   20.490657 H          1 MOL1         0.0738
      14    C6      22.747591   18.999337   21.985272 C.3        1 MOL1        -0.2879
      15    H7      23.119282   20.023889   22.117820 H          1 MOL1         0.0750
      16    H8      22.821406   18.480216   22.949897 H          1 MOL1         0.0750
      17    H9      23.409356   18.488226   21.273962 H          1 MOL1         0.0750
@<TRIPOS>BOND
    1     1     2    1
    2     1     3    2
    3     1     4    1
    4     4     5    1
    5     4     6    2
    6     6     7    1
    7     6     8    1
    8     8     9    1
    9     8    10    1
   10     8    11    1
   11    11    12    1
   12    11    13    1
   13    11    14    1
   14    14    15    1
   15    14    16    1
   16    14    17    1
@<TRIPOS>SUBSTRUCTURE
       1 MOL1            1 RESIDUE      1      MOL     
@<SCITEGIC>MOL_PROPERTY
VConf Rank
SciTegic.value.IntegerValue
317

@<SCITEGIC>MOL_PROPERTY
Conf_Id
SciTegic.value.IntegerValue
36

@<SCITEGIC>MOL_PROPERTY
Delta U+W
SciTegic.value.DoubleValue
0.000

@<SCITEGIC>MOL_PROPERTY
U+W
SciTegic.value.DoubleValue
-53.409

@<SCITEGIC>MOL_PROPERTY
Grad RMS
SciTegic.value.DoubleValue
0.000000

@<SCITEGIC>MOL_PROPERTY
U
SciTegic.value.DoubleValue
9.048

@<SCITEGIC>MOL_PROPERTY
W
SciTegic.value.DoubleValue
-62.457

@<SCITEGIC>MOL_PROPERTY
W(PB)
SciTegic.value.DoubleValue
-64.540

@<SCITEGIC>MOL_PROPERTY
W(SA)
SciTegic.value.DoubleValue
2.084

@<SCITEGIC>MOL_PROPERTY
Valence
SciTegic.value.DoubleValue
2.652

@<SCITEGIC>MOL_PROPERTY
Coulomb
SciTegic.value.DoubleValue
5.578

@<SCITEGIC>MOL_PROPERTY
VdW
SciTegic.value.DoubleValue
0.818

@<SCITEGIC>MOL_PROPERTY
VdW6
SciTegic.value.DoubleValue
-4.534

@<SCITEGIC>MOL_PROPERTY
VdW12
SciTegic.value.DoubleValue
5.352

@<SCITEGIC>MOL_PROPERTY
Bond
SciTegic.value.DoubleValue
0.063

@<SCITEGIC>MOL_PROPERTY
Angle
SciTegic.value.DoubleValue
2.579

@<SCITEGIC>MOL_PROPERTY
Pdih
SciTegic.value.DoubleValue
0.010

@<SCITEGIC>MOL_PROPERTY
Idih
SciTegic.value.DoubleValue
0.000

@<SCITEGIC>MOL_PROPERTY
Tether
SciTegic.value.DoubleValue
0.000

@<TRIPOS>MOLECULE
guest-s19_confgen4.mol2 : confsearch ligand conformer 318
          17          16           1
SMALL
USER_CHARGES
 
@<TRIPOS>ATOM
       1    C1      17.365158   17.460473   23.215417 C.2        1 MOL1         0.6173
       2    O1      16.844007   18.215087   24.015012 O.co2      1 MOL1        -0.6755
       3    O2      17.063306   16.286637   23.122144 O.co2      1 MOL1        -0.6755
       4    C2      18.419805   17.974007   22.299903 C.2        1 MOL1        -0.1504
       5    H1      18.844183   17.248005   21.610168 H          1 MOL1         0.0814
       6    C3      18.854575   19.254642   22.294024 C.2        1 MOL1        -0.1394
       7    H2      18.437822   19.989747   22.982290 H          1 MOL1         0.0817
       8    C4      19.929030   19.768382   21.360827 C.3        1 MOL1        -0.1849
       9    H3      19.806553   20.850673   21.219294 H          1 MOL1         0.0736
      10    H4      19.816487   19.308856   20.369375 H          1 MOL1         0.0736
      11    C5      21.339373   19.476399   21.912822 C.3        1 MOL1        -0.1866
      12    H5      21.450247   19.938825   22.903496 H          1 MOL1         0.0738
      13    H6      21.465029   18.393517   22.051159 H          1 MOL1         0.0738
      14    C6      22.440354   20.005242   20.971710 C.3        1 MOL1        -0.2879
      15    H7      22.357022   21.092179   20.841120 H          1 MOL1         0.0750
      16    H8      23.435756   19.788481   21.380755 H          1 MOL1         0.0750
      17    H9      22.370785   19.534581   19.982228 H          1 MOL1         0.0750
@<TRIPOS>BOND
    1     1     2    1
    2     1     3    2
    3     1     4    1
    4     4     5    1
    5     4     6    2
    6     6     7    1
    7     6     8    1
    8     8     9    1
    9     8    10    1
   10     8    11    1
   11    11    12    1
   12    11    13    1
   13    11    14    1
   14    14    15    1
   15    14    16    1
   16    14    17    1
@<TRIPOS>SUBSTRUCTURE
       1 MOL1            1 RESIDUE      1      MOL     
@<SCITEGIC>MOL_PROPERTY
VConf Rank
SciTegic.value.IntegerValue
318

@<SCITEGIC>MOL_PROPERTY
Conf_Id
SciTegic.value.IntegerValue
1

@<SCITEGIC>MOL_PROPERTY
Delta U+W
SciTegic.value.DoubleValue
0.030

@<SCITEGIC>MOL_PROPERTY
U+W
SciTegic.value.DoubleValue
-53.378

@<SCITEGIC>MOL_PROPERTY
Grad RMS
SciTegic.value.DoubleValue
0.000000

@<SCITEGIC>MOL_PROPERTY
U
SciTegic.value.DoubleValue
9.048

@<SCITEGIC>MOL_PROPERTY
W
SciTegic.value.DoubleValue
-62.426

@<SCITEGIC>MOL_PROPERTY
W(PB)
SciTegic.value.DoubleValue
-64.506

@<SCITEGIC>MOL_PROPERTY
W(SA)
SciTegic.value.DoubleValue
2.080

@<SCITEGIC>MOL_PROPERTY
Valence
SciTegic.value.DoubleValue
2.652

@<SCITEGIC>MOL_PROPERTY
Coulomb
SciTegic.value.DoubleValue
5.578

@<SCITEGIC>MOL_PROPERTY
VdW
SciTegic.value.DoubleValue
0.818

@<SCITEGIC>MOL_PROPERTY
VdW6
SciTegic.value.DoubleValue
-4.535

@<SCITEGIC>MOL_PROPERTY
VdW12
SciTegic.value.DoubleValue
5.352

@<SCITEGIC>MOL_PROPERTY
Bond
SciTegic.value.DoubleValue
0.063

@<SCITEGIC>MOL_PROPERTY
Angle
SciTegic.value.DoubleValue
2.579

@<SCITEGIC>MOL_PROPERTY
Pdih
SciTegic.value.DoubleValue
0.010

@<SCITEGIC>MOL_PROPERTY
Idih
SciTegic.value.DoubleValue
0.000

@<SCITEGIC>MOL_PROPERTY
Tether
SciTegic.value.DoubleValue
0.000

@<TRIPOS>MOLECULE
guest-s19_confgen4.mol2 : confsearch ligand conformer 319
          17          16           1
SMALL
USER_CHARGES
 
@<TRIPOS>ATOM
       1    C1      22.125879   21.262374   22.618212 C.2        1 MOL1         0.6173
       2    O1      22.509824   21.495657   21.487457 O.co2      1 MOL1        -0.6755
       3    O2      22.354380   21.999105   23.557800 O.co2      1 MOL1        -0.6755
       4    C2      21.343618   20.025862   22.888763 C.2        1 MOL1        -0.1504
       5    H1      21.032135   19.877319   23.920109 H          1 MOL1         0.0814
       6    C3      21.015692   19.118961   21.940618 C.2        1 MOL1        -0.1394
       7    H2      21.319721   19.259589   20.903609 H          1 MOL1         0.0817
       8    C4      20.215817   17.864533   22.222799 C.3        1 MOL1        -0.1849
       9    H3      20.545313   17.423669   23.173377 H          1 MOL1         0.0736
      10    H4      20.418327   17.111326   21.449519 H          1 MOL1         0.0736
      11    C5      18.697386   18.138807   22.291377 C.3        1 MOL1        -0.1866
      12    H5      18.180140   17.220352   22.601297 H          1 MOL1         0.0738
      13    H6      18.491474   18.891277   23.065209 H          1 MOL1         0.0738
      14    C6      18.120115   18.611390   20.940031 C.3        1 MOL1        -0.2879
      15    H7      18.303414   17.868095   20.153227 H          1 MOL1         0.0750
      16    H8      17.035779   18.764233   21.015929 H          1 MOL1         0.0750
      17    H9      18.572542   19.561248   20.626500 H          1 MOL1         0.0750
@<TRIPOS>BOND
    1     1     2    1
    2     1     3    2
    3     1     4    1
    4     4     5    1
    5     4     6    2
    6     6     7    1
    7     6     8    1
    8     8     9    1
    9     8    10    1
   10     8    11    1
   11    11    12    1
   12    11    13    1
   13    11    14    1
   14    14    15    1
   15    14    16    1
   16    14    17    1
@<TRIPOS>SUBSTRUCTURE
       1 MOL1            1 RESIDUE      1      MOL     
@<SCITEGIC>MOL_PROPERTY
VConf Rank
SciTegic.value.IntegerValue
319

@<SCITEGIC>MOL_PROPERTY
Conf_Id
SciTegic.value.IntegerValue
3

@<SCITEGIC>MOL_PROPERTY
Delta U+W
SciTegic.value.DoubleValue
0.531

@<SCITEGIC>MOL_PROPERTY
U+W
SciTegic.value.DoubleValue
-52.878

@<SCITEGIC>MOL_PROPERTY
Grad RMS
SciTegic.value.DoubleValue
0.000000

@<SCITEGIC>MOL_PROPERTY
U
SciTegic.value.DoubleValue
10.067

@<SCITEGIC>MOL_PROPERTY
W
SciTegic.value.DoubleValue
-62.945

@<SCITEGIC>MOL_PROPERTY
W(PB)
SciTegic.value.DoubleValue
-64.982

@<SCITEGIC>MOL_PROPERTY
W(SA)
SciTegic.value.DoubleValue
2.037

@<SCITEGIC>MOL_PROPERTY
Valence
SciTegic.value.DoubleValue
2.779

@<SCITEGIC>MOL_PROPERTY
Coulomb
SciTegic.value.DoubleValue
6.474

@<SCITEGIC>MOL_PROPERTY
VdW
SciTegic.value.DoubleValue
0.815

@<SCITEGIC>MOL_PROPERTY
VdW6
SciTegic.value.DoubleValue
-5.088

@<SCITEGIC>MOL_PROPERTY
VdW12
SciTegic.value.DoubleValue
5.902

@<SCITEGIC>MOL_PROPERTY
Bond
SciTegic.value.DoubleValue
0.078

@<SCITEGIC>MOL_PROPERTY
Angle
SciTegic.value.DoubleValue
2.651

@<SCITEGIC>MOL_PROPERTY
Pdih
SciTegic.value.DoubleValue
0.050

@<SCITEGIC>MOL_PROPERTY
Idih
SciTegic.value.DoubleValue
0.000

@<SCITEGIC>MOL_PROPERTY
Tether
SciTegic.value.DoubleValue
0.000

@<TRIPOS>MOLECULE
guest-s19_confgen4.mol2 : confsearch ligand conformer 320
          17          16           1
SMALL
USER_CHARGES
 
@<TRIPOS>ATOM
       1    C1      22.700617   19.012119   20.775622 C.2        1 MOL1         0.6173
       2    O1      23.794774   19.241426   21.253136 O.co2      1 MOL1        -0.6755
       3    O2      22.481121   19.049677   19.579437 O.co2      1 MOL1        -0.6755
       4    C2      21.598683   18.669831   21.715118 C.2        1 MOL1        -0.1504
       5    H1      21.863025   18.653974   22.769906 H          1 MOL1         0.0814
       6    C3      20.333397   18.394435   21.324231 C.2        1 MOL1        -0.1394
       7    H2      20.059130   18.411693   20.269718 H          1 MOL1         0.0817
       8    C4      19.213055   18.048994   22.283314 C.3        1 MOL1        -0.1849
       9    H3      19.618306   17.755025   23.261114 H          1 MOL1         0.0736
      10    H4      18.671700   17.173137   21.901453 H          1 MOL1         0.0736
      11    C5      18.215929   19.214436   22.464016 C.3        1 MOL1        -0.1866
      12    H5      17.812047   19.510888   21.486032 H          1 MOL1         0.0738
      13    H6      17.363181   18.866918   23.063391 H          1 MOL1         0.0738
      14    C6      18.852097   20.438358   23.156933 C.3        1 MOL1        -0.2879
      15    H7      19.669705   20.854361   22.554012 H          1 MOL1         0.0750
      16    H8      18.106020   21.230012   23.303626 H          1 MOL1         0.0750
      17    H9      19.256091   20.166436   24.140772 H          1 MOL1         0.0750
@<TRIPOS>BOND
    1     1     2    1
    2     1     3    2
    3     1     4    1
    4     4     5    1
    5     4     6    2
    6     6     7    1
    7     6     8    1
    8     8     9    1
    9     8    10    1
   10     8    11    1
   11    11    12    1
   12    11    13    1
   13    11    14    1
   14    14    15    1
   15    14    16    1
   16    14    17    1
@<TRIPOS>SUBSTRUCTURE
       1 MOL1            1 RESIDUE      1      MOL     
@<SCITEGIC>MOL_PROPERTY
VConf Rank
SciTegic.value.IntegerValue
320

@<SCITEGIC>MOL_PROPERTY
Conf_Id
SciTegic.value.IntegerValue
45

@<SCITEGIC>MOL_PROPERTY
Delta U+W
SciTegic.value.DoubleValue
0.562

@<SCITEGIC>MOL_PROPERTY
U+W
SciTegic.value.DoubleValue
-52.846

@<SCITEGIC>MOL_PROPERTY
Grad RMS
SciTegic.value.DoubleValue
0.000000

@<SCITEGIC>MOL_PROPERTY
U
SciTegic.value.DoubleValue
10.243

@<SCITEGIC>MOL_PROPERTY
W
SciTegic.value.DoubleValue
-63.089

@<SCITEGIC>MOL_PROPERTY
W(PB)
SciTegic.value.DoubleValue
-65.116

@<SCITEGIC>MOL_PROPERTY
W(SA)
SciTegic.value.DoubleValue
2.026

@<SCITEGIC>MOL_PROPERTY
Valence
SciTegic.value.DoubleValue
2.822

@<SCITEGIC>MOL_PROPERTY
Coulomb
SciTegic.value.DoubleValue
6.637

@<SCITEGIC>MOL_PROPERTY
VdW
SciTegic.value.DoubleValue
0.785

@<SCITEGIC>MOL_PROPERTY
VdW6
SciTegic.value.DoubleValue
-5.216

@<SCITEGIC>MOL_PROPERTY
VdW12
SciTegic.value.DoubleValue
6.001

@<SCITEGIC>MOL_PROPERTY
Bond
SciTegic.value.DoubleValue
0.080

@<SCITEGIC>MOL_PROPERTY
Angle
SciTegic.value.DoubleValue
2.678

@<SCITEGIC>MOL_PROPERTY
Pdih
SciTegic.value.DoubleValue
0.064

@<SCITEGIC>MOL_PROPERTY
Idih
SciTegic.value.DoubleValue
0.000

@<SCITEGIC>MOL_PROPERTY
Tether
SciTegic.value.DoubleValue
0.000

@<TRIPOS>MOLECULE
guest-s19_confgen4.mol2 : confsearch ligand conformer 321
          17          16           1
SMALL
USER_CHARGES
 
@<TRIPOS>ATOM
       1    C1      23.275151   18.393224   21.627759 C.2        1 MOL1         0.6173
       2    O1      23.980370   17.719460   22.353301 O.co2      1 MOL1        -0.6755
       3    O2      23.722956   19.122395   20.762788 O.co2      1 MOL1        -0.6755
       4    C2      21.802868   18.304318   21.824333 C.2        1 MOL1        -0.1504
       5    H1      21.469030   17.634659   22.613647 H          1 MOL1         0.0814
       6    C3      20.901444   18.996963   21.091691 C.2        1 MOL1        -0.1394
       7    H2      21.225078   19.672454   20.300018 H          1 MOL1         0.0817
       8    C4      19.405743   18.902465   21.299504 C.3        1 MOL1        -0.1849
       9    H3      19.123327   17.866181   21.530080 H          1 MOL1         0.0736
      10    H4      18.887519   19.167677   20.368110 H          1 MOL1         0.0736
      11    C5      18.936180   19.834869   22.434910 C.3        1 MOL1        -0.1866
      12    H5      19.450669   19.568096   23.368555 H          1 MOL1         0.0738
      13    H6      19.217965   20.870954   22.201044 H          1 MOL1         0.0738
      14    C6      17.411164   19.751449   22.646788 C.3        1 MOL1        -0.2879
      15    H7      16.871352   20.044303   21.736694 H          1 MOL1         0.0750
      16    H8      17.106749   18.730619   22.912632 H          1 MOL1         0.0750
      17    H9      17.096185   20.420952   23.457765 H          1 MOL1         0.0750
@<TRIPOS>BOND
    1     1     2    1
    2     1     3    2
    3     1     4    1
    4     4     5    1
    5     4     6    2
    6     6     7    1
    7     6     8    1
    8     8     9    1
    9     8    10    1
   10     8    11    1
   11    11    12    1
   12    11    13    1
   13    11    14    1
   14    14    15    1
   15    14    16    1
   16    14    17    1
@<TRIPOS>SUBSTRUCTURE
       1 MOL1            1 RESIDUE      1      MOL     
@<SCITEGIC>MOL_PROPERTY
VConf Rank
SciTegic.value.IntegerValue
321

@<SCITEGIC>MOL_PROPERTY
Conf_Id
SciTegic.value.IntegerValue
36

@<SCITEGIC>MOL_PROPERTY
Delta U+W
SciTegic.value.DoubleValue
0.000

@<SCITEGIC>MOL_PROPERTY
U+W
SciTegic.value.DoubleValue
-53.409

@<SCITEGIC>MOL_PROPERTY
Grad RMS
SciTegic.value.DoubleValue
0.000000

@<SCITEGIC>MOL_PROPERTY
U
SciTegic.value.DoubleValue
9.048

@<SCITEGIC>MOL_PROPERTY
W
SciTegic.value.DoubleValue
-62.457

@<SCITEGIC>MOL_PROPERTY
W(PB)
SciTegic.value.DoubleValue
-64.540

@<SCITEGIC>MOL_PROPERTY
W(SA)
SciTegic.value.DoubleValue
2.084

@<SCITEGIC>MOL_PROPERTY
Valence
SciTegic.value.DoubleValue
2.652

@<SCITEGIC>MOL_PROPERTY
Coulomb
SciTegic.value.DoubleValue
5.578

@<SCITEGIC>MOL_PROPERTY
VdW
SciTegic.value.DoubleValue
0.818

@<SCITEGIC>MOL_PROPERTY
VdW6
SciTegic.value.DoubleValue
-4.534

@<SCITEGIC>MOL_PROPERTY
VdW12
SciTegic.value.DoubleValue
5.352

@<SCITEGIC>MOL_PROPERTY
Bond
SciTegic.value.DoubleValue
0.063

@<SCITEGIC>MOL_PROPERTY
Angle
SciTegic.value.DoubleValue
2.579

@<SCITEGIC>MOL_PROPERTY
Pdih
SciTegic.value.DoubleValue
0.010

@<SCITEGIC>MOL_PROPERTY
Idih
SciTegic.value.DoubleValue
0.000

@<SCITEGIC>MOL_PROPERTY
Tether
SciTegic.value.DoubleValue
0.000

@<TRIPOS>MOLECULE
guest-s19_confgen4.mol2 : confsearch ligand conformer 322
          17          16           1
SMALL
USER_CHARGES
 
@<TRIPOS>ATOM
       1    C1      18.750302   16.109776   22.851228 C.2        1 MOL1         0.6173
       2    O1      19.561256   15.264364   22.522557 O.co2      1 MOL1        -0.6755
       3    O2      17.630691   15.835629   23.237260 O.co2      1 MOL1        -0.6755
       4    C2      19.122491   17.549089   22.787843 C.2        1 MOL1        -0.1504
       5    H1      18.352107   18.252502   23.095459 H          1 MOL1         0.0814
       6    C3      20.330505   17.997874   22.377501 C.2        1 MOL1        -0.1394
       7    H2      21.108863   17.301955   22.065046 H          1 MOL1         0.0817
       8    C4      20.700342   19.463635   22.314236 C.3        1 MOL1        -0.1849
       9    H3      21.790616   19.571560   22.391970 H          1 MOL1         0.0736
      10    H4      20.271486   19.996606   23.173789 H          1 MOL1         0.0736
      11    C5      20.209833   20.110859   21.002931 C.3        1 MOL1        -0.1866
      12    H5      20.641800   19.577451   20.144766 H          1 MOL1         0.0738
      13    H6      19.118568   20.007357   20.925546 H          1 MOL1         0.0738
      14    C6      20.591035   21.602965   20.926584 C.3        1 MOL1        -0.2879
      15    H7      21.680368   21.732998   20.969907 H          1 MOL1         0.0750
      16    H8      20.234052   22.045779   19.987643 H          1 MOL1         0.0750
      17    H9      20.145175   22.165334   21.757478 H          1 MOL1         0.0750
@<TRIPOS>BOND
    1     1     2    1
    2     1     3    2
    3     1     4    1
    4     4     5    1
    5     4     6    2
    6     6     7    1
    7     6     8    1
    8     8     9    1
    9     8    10    1
   10     8    11    1
   11    11    12    1
   12    11    13    1
   13    11    14    1
   14    14    15    1
   15    14    16    1
   16    14    17    1
@<TRIPOS>SUBSTRUCTURE
       1 MOL1            1 RESIDUE      1      MOL     
@<SCITEGIC>MOL_PROPERTY
VConf Rank
SciTegic.value.IntegerValue
322

@<SCITEGIC>MOL_PROPERTY
Conf_Id
SciTegic.value.IntegerValue
1

@<SCITEGIC>MOL_PROPERTY
Delta U+W
SciTegic.value.DoubleValue
0.030

@<SCITEGIC>MOL_PROPERTY
U+W
SciTegic.value.DoubleValue
-53.378

@<SCITEGIC>MOL_PROPERTY
Grad RMS
SciTegic.value.DoubleValue
0.000000

@<SCITEGIC>MOL_PROPERTY
U
SciTegic.value.DoubleValue
9.048

@<SCITEGIC>MOL_PROPERTY
W
SciTegic.value.DoubleValue
-62.426

@<SCITEGIC>MOL_PROPERTY
W(PB)
SciTegic.value.DoubleValue
-64.506

@<SCITEGIC>MOL_PROPERTY
W(SA)
SciTegic.value.DoubleValue
2.080

@<SCITEGIC>MOL_PROPERTY
Valence
SciTegic.value.DoubleValue
2.652

@<SCITEGIC>MOL_PROPERTY
Coulomb
SciTegic.value.DoubleValue
5.578

@<SCITEGIC>MOL_PROPERTY
VdW
SciTegic.value.DoubleValue
0.818

@<SCITEGIC>MOL_PROPERTY
VdW6
SciTegic.value.DoubleValue
-4.535

@<SCITEGIC>MOL_PROPERTY
VdW12
SciTegic.value.DoubleValue
5.352

@<SCITEGIC>MOL_PROPERTY
Bond
SciTegic.value.DoubleValue
0.063

@<SCITEGIC>MOL_PROPERTY
Angle
SciTegic.value.DoubleValue
2.579

@<SCITEGIC>MOL_PROPERTY
Pdih
SciTegic.value.DoubleValue
0.010

@<SCITEGIC>MOL_PROPERTY
Idih
SciTegic.value.DoubleValue
0.000

@<SCITEGIC>MOL_PROPERTY
Tether
SciTegic.value.DoubleValue
0.000

@<TRIPOS>MOLECULE
guest-s19_confgen4.mol2 : confsearch ligand conformer 323
          17          16           1
SMALL
USER_CHARGES
 
@<TRIPOS>ATOM
       1    C1      20.668427   21.197568   19.899899 C.2        1 MOL1         0.6173
       2    O1      21.625993   21.745102   20.413430 O.co2      1 MOL1        -0.6755
       3    O2      20.385732   21.327823   18.724770 O.co2      1 MOL1        -0.6755
       4    C2      19.787859   20.328304   20.726382 C.2        1 MOL1        -0.1504
       5    H1      18.949759   19.870205   20.206292 H          1 MOL1         0.0814
       6    C3      19.983179   20.092912   22.043738 C.2        1 MOL1        -0.1394
       7    H2      20.821621   20.544052   22.573913 H          1 MOL1         0.0817
       8    C4      19.084830   19.203772   22.877652 C.3        1 MOL1        -0.1849
       9    H3      18.035945   19.377259   22.601485 H          1 MOL1         0.0736
      10    H4      19.171239   19.476054   23.938166 H          1 MOL1         0.0736
      11    C5      19.413603   17.705029   22.700907 C.3        1 MOL1        -0.1866
      12    H5      18.667671   17.107363   23.242695 H          1 MOL1         0.0738
      13    H6      19.326773   17.429271   21.640791 H          1 MOL1         0.0738
      14    C6      20.822212   17.343495   23.218426 C.3        1 MOL1        -0.2879
      15    H7      20.927831   17.599111   24.280806 H          1 MOL1         0.0750
      16    H8      21.009271   16.267469   23.108495 H          1 MOL1         0.0750
      17    H9      21.599610   17.879011   22.657984 H          1 MOL1         0.0750
@<TRIPOS>BOND
    1     1     2    1
    2     1     3    2
    3     1     4    1
    4     4     5    1
    5     4     6    2
    6     6     7    1
    7     6     8    1
    8     8     9    1
    9     8    10    1
   10     8    11    1
   11    11    12    1
   12    11    13    1
   13    11    14    1
   14    14    15    1
   15    14    16    1
   16    14    17    1
@<TRIPOS>SUBSTRUCTURE
       1 MOL1            1 RESIDUE      1      MOL     
@<SCITEGIC>MOL_PROPERTY
VConf Rank
SciTegic.value.IntegerValue
323

@<SCITEGIC>MOL_PROPERTY
Conf_Id
SciTegic.value.IntegerValue
3

@<SCITEGIC>MOL_PROPERTY
Delta U+W
SciTegic.value.DoubleValue
0.531

@<SCITEGIC>MOL_PROPERTY
U+W
SciTegic.value.DoubleValue
-52.878

@<SCITEGIC>MOL_PROPERTY
Grad RMS
SciTegic.value.DoubleValue
0.000000

@<SCITEGIC>MOL_PROPERTY
U
SciTegic.value.DoubleValue
10.067

@<SCITEGIC>MOL_PROPERTY
W
SciTegic.value.DoubleValue
-62.945

@<SCITEGIC>MOL_PROPERTY
W(PB)
SciTegic.value.DoubleValue
-64.982

@<SCITEGIC>MOL_PROPERTY
W(SA)
SciTegic.value.DoubleValue
2.037

@<SCITEGIC>MOL_PROPERTY
Valence
SciTegic.value.DoubleValue
2.779

@<SCITEGIC>MOL_PROPERTY
Coulomb
SciTegic.value.DoubleValue
6.474

@<SCITEGIC>MOL_PROPERTY
VdW
SciTegic.value.DoubleValue
0.815

@<SCITEGIC>MOL_PROPERTY
VdW6
SciTegic.value.DoubleValue
-5.088

@<SCITEGIC>MOL_PROPERTY
VdW12
SciTegic.value.DoubleValue
5.902

@<SCITEGIC>MOL_PROPERTY
Bond
SciTegic.value.DoubleValue
0.078

@<SCITEGIC>MOL_PROPERTY
Angle
SciTegic.value.DoubleValue
2.651

@<SCITEGIC>MOL_PROPERTY
Pdih
SciTegic.value.DoubleValue
0.050

@<SCITEGIC>MOL_PROPERTY
Idih
SciTegic.value.DoubleValue
0.000

@<SCITEGIC>MOL_PROPERTY
Tether
SciTegic.value.DoubleValue
0.000

@<TRIPOS>MOLECULE
guest-s19_confgen4.mol2 : confsearch ligand conformer 324
          17          16           1
SMALL
USER_CHARGES
 
@<TRIPOS>ATOM
       1    C1      19.033894   16.622190   20.630312 C.2        1 MOL1         0.6173
       2    O1      17.947717   16.376067   20.143050 O.co2      1 MOL1        -0.6755
       3    O2      19.834256   15.756460   20.930944 O.co2      1 MOL1        -0.6755
       4    C2      19.377759   18.052141   20.856296 C.2        1 MOL1        -0.1504
       5    H1      18.618042   18.773900   20.565435 H          1 MOL1         0.0814
       6    C3      20.547373   18.470415   21.391678 C.2        1 MOL1        -0.1394
       7    H2      21.312502   17.753790   21.689240 H          1 MOL1         0.0817
       8    C4      20.893427   19.926796   21.623058 C.3        1 MOL1        -0.1849
       9    H3      20.233430   20.578950   21.034976 H          1 MOL1         0.0736
      10    H4      21.912186   20.115301   21.258907 H          1 MOL1         0.0736
      11    C5      20.814446   20.318161   23.114956 C.3        1 MOL1        -0.1866
      12    H5      21.472381   19.664531   23.704318 H          1 MOL1         0.0738
      13    H6      21.196388   21.340999   23.237926 H          1 MOL1         0.0738
      14    C6      19.376570   20.247930   23.672101 C.3        1 MOL1        -0.2879
      15    H7      18.983157   19.224167   23.625324 H          1 MOL1         0.0750
      16    H8      19.352942   20.569616   24.721303 H          1 MOL1         0.0750
      17    H9      18.702411   20.900307   23.102006 H          1 MOL1         0.0750
@<TRIPOS>BOND
    1     1     2    1
    2     1     3    2
    3     1     4    1
    4     4     5    1
    5     4     6    2
    6     6     7    1
    7     6     8    1
    8     8     9    1
    9     8    10    1
   10     8    11    1
   11    11    12    1
   12    11    13    1
   13    11    14    1
   14    14    15    1
   15    14    16    1
   16    14    17    1
@<TRIPOS>SUBSTRUCTURE
       1 MOL1            1 RESIDUE      1      MOL     
@<SCITEGIC>MOL_PROPERTY
VConf Rank
SciTegic.value.IntegerValue
324

@<SCITEGIC>MOL_PROPERTY
Conf_Id
SciTegic.value.IntegerValue
45

@<SCITEGIC>MOL_PROPERTY
Delta U+W
SciTegic.value.DoubleValue
0.562

@<SCITEGIC>MOL_PROPERTY
U+W
SciTegic.value.DoubleValue
-52.846

@<SCITEGIC>MOL_PROPERTY
Grad RMS
SciTegic.value.DoubleValue
0.000000

@<SCITEGIC>MOL_PROPERTY
U
SciTegic.value.DoubleValue
10.243

@<SCITEGIC>MOL_PROPERTY
W
SciTegic.value.DoubleValue
-63.089

@<SCITEGIC>MOL_PROPERTY
W(PB)
SciTegic.value.DoubleValue
-65.116

@<SCITEGIC>MOL_PROPERTY
W(SA)
SciTegic.value.DoubleValue
2.026

@<SCITEGIC>MOL_PROPERTY
Valence
SciTegic.value.DoubleValue
2.822

@<SCITEGIC>MOL_PROPERTY
Coulomb
SciTegic.value.DoubleValue
6.637

@<SCITEGIC>MOL_PROPERTY
VdW
SciTegic.value.DoubleValue
0.785

@<SCITEGIC>MOL_PROPERTY
VdW6
SciTegic.value.DoubleValue
-5.216

@<SCITEGIC>MOL_PROPERTY
VdW12
SciTegic.value.DoubleValue
6.001

@<SCITEGIC>MOL_PROPERTY
Bond
SciTegic.value.DoubleValue
0.080

@<SCITEGIC>MOL_PROPERTY
Angle
SciTegic.value.DoubleValue
2.678

@<SCITEGIC>MOL_PROPERTY
Pdih
SciTegic.value.DoubleValue
0.064

@<SCITEGIC>MOL_PROPERTY
Idih
SciTegic.value.DoubleValue
0.000

@<SCITEGIC>MOL_PROPERTY
Tether
SciTegic.value.DoubleValue
0.000

@<TRIPOS>MOLECULE
guest-s19_confgen4.mol2 : confsearch ligand conformer 325
          17          16           1
SMALL
USER_CHARGES
 
@<TRIPOS>ATOM
       1    C1      17.009286   17.611693   22.367800 C.2        1 MOL1         0.6173
       2    O1      16.169382   17.304163   21.544581 O.co2      1 MOL1        -0.6755
       3    O2      16.790264   17.617443   23.564625 O.co2      1 MOL1        -0.6755
       4    C2      18.357162   17.992632   21.865529 C.2        1 MOL1        -0.1504
       5    H1      18.486185   17.966463   20.785911 H          1 MOL1         0.0814
       6    C3      19.384466   18.357317   22.665991 C.2        1 MOL1        -0.1394
       7    H2      19.265436   18.389259   23.748850 H          1 MOL1         0.0817
       8    C4      20.751649   18.745414   22.146927 C.3        1 MOL1        -0.1849
       9    H3      21.025826   18.106344   21.296500 H          1 MOL1         0.0736
      10    H4      21.504899   18.568343   22.926444 H          1 MOL1         0.0736
      11    C5      20.790428   20.226676   21.718704 C.3        1 MOL1        -0.1866
      12    H5      20.040168   20.404604   20.935753 H          1 MOL1         0.0738
      13    H6      20.517853   20.863929   22.571452 H          1 MOL1         0.0738
      14    C6      22.183478   20.632753   21.197130 C.3        1 MOL1        -0.2879
      15    H7      22.948879   20.494605   21.972054 H          1 MOL1         0.0750
      16    H8      22.466885   20.030586   20.323911 H          1 MOL1         0.0750
      17    H9      22.191506   21.688813   20.897459 H          1 MOL1         0.0750
@<TRIPOS>BOND
    1     1     2    1
    2     1     3    2
    3     1     4    1
    4     4     5    1
    5     4     6    2
    6     6     7    1
    7     6     8    1
    8     8     9    1
    9     8    10    1
   10     8    11    1
   11    11    12    1
   12    11    13    1
   13    11    14    1
   14    14    15    1
   15    14    16    1
   16    14    17    1
@<TRIPOS>SUBSTRUCTURE
       1 MOL1            1 RESIDUE      1      MOL     
@<SCITEGIC>MOL_PROPERTY
VConf Rank
SciTegic.value.IntegerValue
325

@<SCITEGIC>MOL_PROPERTY
Conf_Id
SciTegic.value.IntegerValue
36

@<SCITEGIC>MOL_PROPERTY
Delta U+W
SciTegic.value.DoubleValue
0.000

@<SCITEGIC>MOL_PROPERTY
U+W
SciTegic.value.DoubleValue
-53.409

@<SCITEGIC>MOL_PROPERTY
Grad RMS
SciTegic.value.DoubleValue
0.000000

@<SCITEGIC>MOL_PROPERTY
U
SciTegic.value.DoubleValue
9.048

@<SCITEGIC>MOL_PROPERTY
W
SciTegic.value.DoubleValue
-62.457

@<SCITEGIC>MOL_PROPERTY
W(PB)
SciTegic.value.DoubleValue
-64.540

@<SCITEGIC>MOL_PROPERTY
W(SA)
SciTegic.value.DoubleValue
2.084

@<SCITEGIC>MOL_PROPERTY
Valence
SciTegic.value.DoubleValue
2.652

@<SCITEGIC>MOL_PROPERTY
Coulomb
SciTegic.value.DoubleValue
5.578

@<SCITEGIC>MOL_PROPERTY
VdW
SciTegic.value.DoubleValue
0.818

@<SCITEGIC>MOL_PROPERTY
VdW6
SciTegic.value.DoubleValue
-4.534

@<SCITEGIC>MOL_PROPERTY
VdW12
SciTegic.value.DoubleValue
5.352

@<SCITEGIC>MOL_PROPERTY
Bond
SciTegic.value.DoubleValue
0.063

@<SCITEGIC>MOL_PROPERTY
Angle
SciTegic.value.DoubleValue
2.579

@<SCITEGIC>MOL_PROPERTY
Pdih
SciTegic.value.DoubleValue
0.010

@<SCITEGIC>MOL_PROPERTY
Idih
SciTegic.value.DoubleValue
0.000

@<SCITEGIC>MOL_PROPERTY
Tether
SciTegic.value.DoubleValue
0.000

@<TRIPOS>MOLECULE
guest-s19_confgen4.mol2 : confsearch ligand conformer 326
          17          16           1
SMALL
USER_CHARGES
 
@<TRIPOS>ATOM
       1    C1      21.120405   17.505832   24.676530 C.2        1 MOL1         0.6173
       2    O1      21.824713   18.294711   25.278206 O.co2      1 MOL1        -0.6755
       3    O2      21.055395   16.326529   24.964145 O.co2      1 MOL1        -0.6755
       4    C2      20.292021   17.981984   23.535819 C.2        1 MOL1        -0.1504
       5    H1      19.685656   17.226323   23.041644 H          1 MOL1         0.0814
       6    C3      20.266668   19.264120   23.106201 C.2        1 MOL1        -0.1394
       7    H2      20.871893   20.028860   23.592667 H          1 MOL1         0.0817
       8    C4      19.422708   19.739762   21.943990 C.3        1 MOL1        -0.1849
       9    H3      19.215993   20.812823   22.054431 H          1 MOL1         0.0736
      10    H4      18.448978   19.231280   21.954069 H          1 MOL1         0.0736
      11    C5      20.128443   19.486161   20.596161 C.3        1 MOL1        -0.1866
      12    H5      21.101088   19.997487   20.587672 H          1 MOL1         0.0738
      13    H6      20.332333   18.412378   20.482233 H          1 MOL1         0.0738
      14    C6      19.278554   19.976705   19.406799 C.3        1 MOL1        -0.2879
      15    H7      19.086445   21.055246   19.479420 H          1 MOL1         0.0750
      16    H8      19.796513   19.788000   18.457463 H          1 MOL1         0.0750
      17    H9      18.311684   19.457531   19.374295 H          1 MOL1         0.0750
@<TRIPOS>BOND
    1     1     2    1
    2     1     3    2
    3     1     4    1
    4     4     5    1
    5     4     6    2
    6     6     7    1
    7     6     8    1
    8     8     9    1
    9     8    10    1
   10     8    11    1
   11    11    12    1
   12    11    13    1
   13    11    14    1
   14    14    15    1
   15    14    16    1
   16    14    17    1
@<TRIPOS>SUBSTRUCTURE
       1 MOL1            1 RESIDUE      1      MOL     
@<SCITEGIC>MOL_PROPERTY
VConf Rank
SciTegic.value.IntegerValue
326

@<SCITEGIC>MOL_PROPERTY
Conf_Id
SciTegic.value.IntegerValue
1

@<SCITEGIC>MOL_PROPERTY
Delta U+W
SciTegic.value.DoubleValue
0.030

@<SCITEGIC>MOL_PROPERTY
U+W
SciTegic.value.DoubleValue
-53.378

@<SCITEGIC>MOL_PROPERTY
Grad RMS
SciTegic.value.DoubleValue
0.000000

@<SCITEGIC>MOL_PROPERTY
U
SciTegic.value.DoubleValue
9.048

@<SCITEGIC>MOL_PROPERTY
W
SciTegic.value.DoubleValue
-62.426

@<SCITEGIC>MOL_PROPERTY
W(PB)
SciTegic.value.DoubleValue
-64.506

@<SCITEGIC>MOL_PROPERTY
W(SA)
SciTegic.value.DoubleValue
2.080

@<SCITEGIC>MOL_PROPERTY
Valence
SciTegic.value.DoubleValue
2.652

@<SCITEGIC>MOL_PROPERTY
Coulomb
SciTegic.value.DoubleValue
5.578

@<SCITEGIC>MOL_PROPERTY
VdW
SciTegic.value.DoubleValue
0.818

@<SCITEGIC>MOL_PROPERTY
VdW6
SciTegic.value.DoubleValue
-4.535

@<SCITEGIC>MOL_PROPERTY
VdW12
SciTegic.value.DoubleValue
5.352

@<SCITEGIC>MOL_PROPERTY
Bond
SciTegic.value.DoubleValue
0.063

@<SCITEGIC>MOL_PROPERTY
Angle
SciTegic.value.DoubleValue
2.579

@<SCITEGIC>MOL_PROPERTY
Pdih
SciTegic.value.DoubleValue
0.010

@<SCITEGIC>MOL_PROPERTY
Idih
SciTegic.value.DoubleValue
0.000

@<SCITEGIC>MOL_PROPERTY
Tether
SciTegic.value.DoubleValue
0.000

@<TRIPOS>MOLECULE
guest-s19_confgen4.mol2 : confsearch ligand conformer 327
          17          16           1
SMALL
USER_CHARGES
 
@<TRIPOS>ATOM
       1    C1      18.863422   19.053372   19.192156 C.2        1 MOL1         0.6173
       2    O1      18.839481   20.245779   18.951253 O.co2      1 MOL1        -0.6755
       3    O2      18.757613   18.203623   18.329287 O.co2      1 MOL1        -0.6755
       4    C2      19.024772   18.590065   20.596935 C.2        1 MOL1        -0.1504
       5    H1      19.037110   17.512432   20.742938 H          1 MOL1         0.0814
       6    C3      19.154671   19.422507   21.654834 C.2        1 MOL1        -0.1394
       7    H2      19.147057   20.503817   21.519528 H          1 MOL1         0.0817
       8    C4      19.322433   18.943551   23.081534 C.3        1 MOL1        -0.1849
       9    H3      18.661290   18.085155   23.262015 H          1 MOL1         0.0736
      10    H4      19.001452   19.729119   23.778777 H          1 MOL1         0.0736
      11    C5      20.778448   18.536286   23.397314 C.3        1 MOL1        -0.1866
      12    H5      20.819006   18.100576   24.405115 H          1 MOL1         0.0738
      13    H6      21.102079   17.749394   22.701979 H          1 MOL1         0.0738
      14    C6      21.755442   19.729089   23.323714 C.3        1 MOL1        -0.2879
      15    H7      21.458326   20.523630   24.020544 H          1 MOL1         0.0750
      16    H8      22.772860   19.411274   23.585939 H          1 MOL1         0.0750
      17    H9      21.786097   20.154129   22.311972 H          1 MOL1         0.0750
@<TRIPOS>BOND
    1     1     2    1
    2     1     3    2
    3     1     4    1
    4     4     5    1
    5     4     6    2
    6     6     7    1
    7     6     8    1
    8     8     9    1
    9     8    10    1
   10     8    11    1
   11    11    12    1
   12    11    13    1
   13    11    14    1
   14    14    15    1
   15    14    16    1
   16    14    17    1
@<TRIPOS>SUBSTRUCTURE
       1 MOL1            1 RESIDUE      1      MOL     
@<SCITEGIC>MOL_PROPERTY
VConf Rank
SciTegic.value.IntegerValue
327

@<SCITEGIC>MOL_PROPERTY
Conf_Id
SciTegic.value.IntegerValue
3

@<SCITEGIC>MOL_PROPERTY
Delta U+W
SciTegic.value.DoubleValue
0.531

@<SCITEGIC>MOL_PROPERTY
U+W
SciTegic.value.DoubleValue
-52.878

@<SCITEGIC>MOL_PROPERTY
Grad RMS
SciTegic.value.DoubleValue
0.000000

@<SCITEGIC>MOL_PROPERTY
U
SciTegic.value.DoubleValue
10.067

@<SCITEGIC>MOL_PROPERTY
W
SciTegic.value.DoubleValue
-62.945

@<SCITEGIC>MOL_PROPERTY
W(PB)
SciTegic.value.DoubleValue
-64.982

@<SCITEGIC>MOL_PROPERTY
W(SA)
SciTegic.value.DoubleValue
2.037

@<SCITEGIC>MOL_PROPERTY
Valence
SciTegic.value.DoubleValue
2.779

@<SCITEGIC>MOL_PROPERTY
Coulomb
SciTegic.value.DoubleValue
6.474

@<SCITEGIC>MOL_PROPERTY
VdW
SciTegic.value.DoubleValue
0.815

@<SCITEGIC>MOL_PROPERTY
VdW6
SciTegic.value.DoubleValue
-5.088

@<SCITEGIC>MOL_PROPERTY
VdW12
SciTegic.value.DoubleValue
5.902

@<SCITEGIC>MOL_PROPERTY
Bond
SciTegic.value.DoubleValue
0.078

@<SCITEGIC>MOL_PROPERTY
Angle
SciTegic.value.DoubleValue
2.651

@<SCITEGIC>MOL_PROPERTY
Pdih
SciTegic.value.DoubleValue
0.050

@<SCITEGIC>MOL_PROPERTY
Idih
SciTegic.value.DoubleValue
0.000

@<SCITEGIC>MOL_PROPERTY
Tether
SciTegic.value.DoubleValue
0.000

@<TRIPOS>MOLECULE
guest-s19_confgen4.mol2 : confsearch ligand conformer 328
          17          16           1
SMALL
USER_CHARGES
 
@<TRIPOS>ATOM
       1    C1      22.732680   20.035622   22.881651 C.2        1 MOL1         0.6173
       2    O1      23.817947   19.540300   22.647917 O.co2      1 MOL1        -0.6755
       3    O2      22.546730   20.817961   23.794786 O.co2      1 MOL1        -0.6755
       4    C2      21.598626   19.655443   21.996521 C.2        1 MOL1        -0.1504
       5    H1      21.833704   18.952651   21.200576 H          1 MOL1         0.0814
       6    C3      20.339006   20.126624   22.141194 C.2        1 MOL1        -0.1394
       7    H2      20.094029   20.828229   22.938223 H          1 MOL1         0.0817
       8    C4      19.185954   19.735572   21.240147 C.3        1 MOL1        -0.1849
       9    H3      19.558158   19.289223   20.307958 H          1 MOL1         0.0736
      10    H4      18.637067   20.640558   20.947348 H          1 MOL1         0.0736
      11    C5      18.208795   18.758217   21.929426 C.3        1 MOL1        -0.1866
      12    H5      17.838015   19.202857   22.863383 H          1 MOL1         0.0738
      13    H6      17.332949   18.611235   21.282519 H          1 MOL1         0.0738
      14    C6      18.851213   17.386179   22.225473 C.3        1 MOL1        -0.2879
      15    H7      19.693464   17.485239   22.922505 H          1 MOL1         0.0750
      16    H8      18.118086   16.706299   22.678411 H          1 MOL1         0.0750
      17    H9      19.222455   16.919514   21.303792 H          1 MOL1         0.0750
@<TRIPOS>BOND
    1     1     2    1
    2     1     3    2
    3     1     4    1
    4     4     5    1
    5     4     6    2
    6     6     7    1
    7     6     8    1
    8     8     9    1
    9     8    10    1
   10     8    11    1
   11    11    12    1
   12    11    13    1
   13    11    14    1
   14    14    15    1
   15    14    16    1
   16    14    17    1
@<TRIPOS>SUBSTRUCTURE
       1 MOL1            1 RESIDUE      1      MOL     
@<SCITEGIC>MOL_PROPERTY
VConf Rank
SciTegic.value.IntegerValue
328

@<SCITEGIC>MOL_PROPERTY
Conf_Id
SciTegic.value.IntegerValue
45

@<SCITEGIC>MOL_PROPERTY
Delta U+W
SciTegic.value.DoubleValue
0.562

@<SCITEGIC>MOL_PROPERTY
U+W
SciTegic.value.DoubleValue
-52.846

@<SCITEGIC>MOL_PROPERTY
Grad RMS
SciTegic.value.DoubleValue
0.000000

@<SCITEGIC>MOL_PROPERTY
U
SciTegic.value.DoubleValue
10.243

@<SCITEGIC>MOL_PROPERTY
W
SciTegic.value.DoubleValue
-63.089

@<SCITEGIC>MOL_PROPERTY
W(PB)
SciTegic.value.DoubleValue
-65.116

@<SCITEGIC>MOL_PROPERTY
W(SA)
SciTegic.value.DoubleValue
2.026

@<SCITEGIC>MOL_PROPERTY
Valence
SciTegic.value.DoubleValue
2.822

@<SCITEGIC>MOL_PROPERTY
Coulomb
SciTegic.value.DoubleValue
6.637

@<SCITEGIC>MOL_PROPERTY
VdW
SciTegic.value.DoubleValue
0.785

@<SCITEGIC>MOL_PROPERTY
VdW6
SciTegic.value.DoubleValue
-5.216

@<SCITEGIC>MOL_PROPERTY
VdW12
SciTegic.value.DoubleValue
6.001

@<SCITEGIC>MOL_PROPERTY
Bond
SciTegic.value.DoubleValue
0.080

@<SCITEGIC>MOL_PROPERTY
Angle
SciTegic.value.DoubleValue
2.678

@<SCITEGIC>MOL_PROPERTY
Pdih
SciTegic.value.DoubleValue
0.064

@<SCITEGIC>MOL_PROPERTY
Idih
SciTegic.value.DoubleValue
0.000

@<SCITEGIC>MOL_PROPERTY
Tether
SciTegic.value.DoubleValue
0.000

@<TRIPOS>MOLECULE
guest-s19_confgen4.mol2 : confsearch ligand conformer 329
          17          16           1
SMALL
USER_CHARGES
 
@<TRIPOS>ATOM
       1    C1      21.157919   22.182476   22.706300 C.2        1 MOL1         0.6173
       2    O1      22.133613   22.488452   23.363645 O.co2      1 MOL1        -0.6755
       3    O2      20.289414   22.978809   22.403073 O.co2      1 MOL1        -0.6755
       4    C2      21.043712   20.766475   22.263512 C.2        1 MOL1        -0.1504
       5    H1      21.853327   20.107197   22.568117 H          1 MOL1         0.0814
       6    C3      20.013862   20.286964   21.529644 C.2        1 MOL1        -0.1394
       7    H2      19.196283   20.938208   21.221071 H          1 MOL1         0.0817
       8    C4      19.904228   18.844839   21.085242 C.3        1 MOL1        -0.1849
       9    H3      20.895215   18.461356   20.806506 H          1 MOL1         0.0736
      10    H4      19.280711   18.784376   20.183046 H          1 MOL1         0.0736
      11    C5      19.296425   17.960179   22.192928 C.3        1 MOL1        -0.1866
      12    H5      19.921439   18.016258   23.095022 H          1 MOL1         0.0738
      13    H6      18.304508   18.344497   22.468550 H          1 MOL1         0.0738
      14    C6      19.172538   16.490161   21.744347 C.3        1 MOL1        -0.2879
      15    H7      18.525883   16.401857   20.861470 H          1 MOL1         0.0750
      16    H8      20.155993   16.072122   21.492363 H          1 MOL1         0.0750
      17    H9      18.738682   15.876810   22.544784 H          1 MOL1         0.0750
@<TRIPOS>BOND
    1     1     2    1
    2     1     3    2
    3     1     4    1
    4     4     5    1
    5     4     6    2
    6     6     7    1
    7     6     8    1
    8     8     9    1
    9     8    10    1
   10     8    11    1
   11    11    12    1
   12    11    13    1
   13    11    14    1
   14    14    15    1
   15    14    16    1
   16    14    17    1
@<TRIPOS>SUBSTRUCTURE
       1 MOL1            1 RESIDUE      1      MOL     
@<SCITEGIC>MOL_PROPERTY
VConf Rank
SciTegic.value.IntegerValue
329

@<SCITEGIC>MOL_PROPERTY
Conf_Id
SciTegic.value.IntegerValue
36

@<SCITEGIC>MOL_PROPERTY
Delta U+W
SciTegic.value.DoubleValue
0.000

@<SCITEGIC>MOL_PROPERTY
U+W
SciTegic.value.DoubleValue
-53.409

@<SCITEGIC>MOL_PROPERTY
Grad RMS
SciTegic.value.DoubleValue
0.000000

@<SCITEGIC>MOL_PROPERTY
U
SciTegic.value.DoubleValue
9.048

@<SCITEGIC>MOL_PROPERTY
W
SciTegic.value.DoubleValue
-62.457

@<SCITEGIC>MOL_PROPERTY
W(PB)
SciTegic.value.DoubleValue
-64.540

@<SCITEGIC>MOL_PROPERTY
W(SA)
SciTegic.value.DoubleValue
2.084

@<SCITEGIC>MOL_PROPERTY
Valence
SciTegic.value.DoubleValue
2.652

@<SCITEGIC>MOL_PROPERTY
Coulomb
SciTegic.value.DoubleValue
5.578

@<SCITEGIC>MOL_PROPERTY
VdW
SciTegic.value.DoubleValue
0.818

@<SCITEGIC>MOL_PROPERTY
VdW6
SciTegic.value.DoubleValue
-4.534

@<SCITEGIC>MOL_PROPERTY
VdW12
SciTegic.value.DoubleValue
5.352

@<SCITEGIC>MOL_PROPERTY
Bond
SciTegic.value.DoubleValue
0.063

@<SCITEGIC>MOL_PROPERTY
Angle
SciTegic.value.DoubleValue
2.579

@<SCITEGIC>MOL_PROPERTY
Pdih
SciTegic.value.DoubleValue
0.010

@<SCITEGIC>MOL_PROPERTY
Idih
SciTegic.value.DoubleValue
0.000

@<SCITEGIC>MOL_PROPERTY
Tether
SciTegic.value.DoubleValue
0.000

@<TRIPOS>MOLECULE
guest-s19_confgen4.mol2 : confsearch ligand conformer 330
          17          16           1
SMALL
USER_CHARGES
 
@<TRIPOS>ATOM
       1    C1      18.853560   20.622850   19.140347 C.2        1 MOL1         0.6173
       2    O1      19.727074   21.381943   18.764653 O.co2      1 MOL1        -0.6755
       3    O2      17.728029   20.632886   18.681234 O.co2      1 MOL1        -0.6755
       4    C2      19.152369   19.628724   20.206456 C.2        1 MOL1        -0.1504
       5    H1      18.328116   18.980746   20.495663 H          1 MOL1         0.0814
       6    C3      20.358296   19.506310   20.806324 C.2        1 MOL1        -0.1394
       7    H2      21.190403   20.151814   20.525797 H          1 MOL1         0.0817
       8    C4      20.653354   18.493756   21.891181 C.3        1 MOL1        -0.1849
       9    H3      21.729383   18.273936   21.906322 H          1 MOL1         0.0736
      10    H4      20.143914   17.546157   21.669069 H          1 MOL1         0.0736
      11    C5      20.212426   19.009593   23.276284 C.3        1 MOL1        -0.1866
      12    H5      20.724903   19.956261   23.497089 H          1 MOL1         0.0738
      13    H6      19.135154   19.226148   23.264051 H          1 MOL1         0.0738
      14    C6      20.518238   17.986921   24.389004 C.3        1 MOL1        -0.2879
      15    H7      21.594315   17.776070   24.444061 H          1 MOL1         0.0750
      16    H8      20.197866   18.371199   25.366154 H          1 MOL1         0.0750
      17    H9      19.992092   17.040420   24.208056 H          1 MOL1         0.0750
@<TRIPOS>BOND
    1     1     2    1
    2     1     3    2
    3     1     4    1
    4     4     5    1
    5     4     6    2
    6     6     7    1
    7     6     8    1
    8     8     9    1
    9     8    10    1
   10     8    11    1
   11    11    12    1
   12    11    13    1
   13    11    14    1
   14    14    15    1
   15    14    16    1
   16    14    17    1
@<TRIPOS>SUBSTRUCTURE
       1 MOL1            1 RESIDUE      1      MOL     
@<SCITEGIC>MOL_PROPERTY
VConf Rank
SciTegic.value.IntegerValue
330

@<SCITEGIC>MOL_PROPERTY
Conf_Id
SciTegic.value.IntegerValue
1

@<SCITEGIC>MOL_PROPERTY
Delta U+W
SciTegic.value.DoubleValue
0.030

@<SCITEGIC>MOL_PROPERTY
U+W
SciTegic.value.DoubleValue
-53.378

@<SCITEGIC>MOL_PROPERTY
Grad RMS
SciTegic.value.DoubleValue
0.000000

@<SCITEGIC>MOL_PROPERTY
U
SciTegic.value.DoubleValue
9.048

@<SCITEGIC>MOL_PROPERTY
W
SciTegic.value.DoubleValue
-62.426

@<SCITEGIC>MOL_PROPERTY
W(PB)
SciTegic.value.DoubleValue
-64.506

@<SCITEGIC>MOL_PROPERTY
W(SA)
SciTegic.value.DoubleValue
2.080

@<SCITEGIC>MOL_PROPERTY
Valence
SciTegic.value.DoubleValue
2.652

@<SCITEGIC>MOL_PROPERTY
Coulomb
SciTegic.value.DoubleValue
5.578

@<SCITEGIC>MOL_PROPERTY
VdW
SciTegic.value.DoubleValue
0.818

@<SCITEGIC>MOL_PROPERTY
VdW6
SciTegic.value.DoubleValue
-4.535

@<SCITEGIC>MOL_PROPERTY
VdW12
SciTegic.value.DoubleValue
5.352

@<SCITEGIC>MOL_PROPERTY
Bond
SciTegic.value.DoubleValue
0.063

@<SCITEGIC>MOL_PROPERTY
Angle
SciTegic.value.DoubleValue
2.579

@<SCITEGIC>MOL_PROPERTY
Pdih
SciTegic.value.DoubleValue
0.010

@<SCITEGIC>MOL_PROPERTY
Idih
SciTegic.value.DoubleValue
0.000

@<SCITEGIC>MOL_PROPERTY
Tether
SciTegic.value.DoubleValue
0.000

@<TRIPOS>MOLECULE
guest-s19_confgen4.mol2 : confsearch ligand conformer 331
          17          16           1
SMALL
USER_CHARGES
 
@<TRIPOS>ATOM
       1    C1      22.363960   17.915781   20.432911 C.2        1 MOL1         0.6173
       2    O1      23.224305   18.744671   20.663537 O.co2      1 MOL1        -0.6755
       3    O2      22.610914   16.820626   19.966585 O.co2      1 MOL1        -0.6755
       4    C2      20.939590   18.234193   20.722522 C.2        1 MOL1        -0.1504
       5    H1      20.221665   17.450359   20.492419 H          1 MOL1         0.0814
       6    C3      20.520930   19.410410   21.242353 C.2        1 MOL1        -0.1394
       7    H2      21.232039   20.201326   21.479782 H          1 MOL1         0.0817
       8    C4      19.069720   19.725907   21.538097 C.3        1 MOL1        -0.1849
       9    H3      18.436448   19.340520   20.727560 H          1 MOL1         0.0736
      10    H4      18.920106   20.813887   21.552566 H          1 MOL1         0.0736
      11    C5      18.598591   19.122030   22.879339 C.3        1 MOL1        -0.1866
      12    H5      17.518648   19.291345   22.989833 H          1 MOL1         0.0738
      13    H6      18.745914   18.033186   22.867405 H          1 MOL1         0.0738
      14    C6      19.331701   19.732556   24.092813 C.3        1 MOL1        -0.2879
      15    H7      19.187681   20.820147   24.132158 H          1 MOL1         0.0750
      16    H8      18.949481   19.305952   25.029202 H          1 MOL1         0.0750
      17    H9      20.409864   19.530901   24.046752 H          1 MOL1         0.0750
@<TRIPOS>BOND
    1     1     2    1
    2     1     3    2
    3     1     4    1
    4     4     5    1
    5     4     6    2
    6     6     7    1
    7     6     8    1
    8     8     9    1
    9     8    10    1
   10     8    11    1
   11    11    12    1
   12    11    13    1
   13    11    14    1
   14    14    15    1
   15    14    16    1
   16    14    17    1
@<TRIPOS>SUBSTRUCTURE
       1 MOL1            1 RESIDUE      1      MOL     
@<SCITEGIC>MOL_PROPERTY
VConf Rank
SciTegic.value.IntegerValue
331

@<SCITEGIC>MOL_PROPERTY
Conf_Id
SciTegic.value.IntegerValue
3

@<SCITEGIC>MOL_PROPERTY
Delta U+W
SciTegic.value.DoubleValue
0.531

@<SCITEGIC>MOL_PROPERTY
U+W
SciTegic.value.DoubleValue
-52.878

@<SCITEGIC>MOL_PROPERTY
Grad RMS
SciTegic.value.DoubleValue
0.000000

@<SCITEGIC>MOL_PROPERTY
U
SciTegic.value.DoubleValue
10.067

@<SCITEGIC>MOL_PROPERTY
W
SciTegic.value.DoubleValue
-62.945

@<SCITEGIC>MOL_PROPERTY
W(PB)
SciTegic.value.DoubleValue
-64.982

@<SCITEGIC>MOL_PROPERTY
W(SA)
SciTegic.value.DoubleValue
2.037

@<SCITEGIC>MOL_PROPERTY
Valence
SciTegic.value.DoubleValue
2.779

@<SCITEGIC>MOL_PROPERTY
Coulomb
SciTegic.value.DoubleValue
6.474

@<SCITEGIC>MOL_PROPERTY
VdW
SciTegic.value.DoubleValue
0.815

@<SCITEGIC>MOL_PROPERTY
VdW6
SciTegic.value.DoubleValue
-5.088

@<SCITEGIC>MOL_PROPERTY
VdW12
SciTegic.value.DoubleValue
5.902

@<SCITEGIC>MOL_PROPERTY
Bond
SciTegic.value.DoubleValue
0.078

@<SCITEGIC>MOL_PROPERTY
Angle
SciTegic.value.DoubleValue
2.651

@<SCITEGIC>MOL_PROPERTY
Pdih
SciTegic.value.DoubleValue
0.050

@<SCITEGIC>MOL_PROPERTY
Idih
SciTegic.value.DoubleValue
0.000

@<SCITEGIC>MOL_PROPERTY
Tether
SciTegic.value.DoubleValue
0.000

@<TRIPOS>MOLECULE
guest-s19_confgen4.mol2 : confsearch ligand conformer 332
          17          16           1
SMALL
USER_CHARGES
 
@<TRIPOS>ATOM
       1    C1      17.849074   17.656294   23.660034 C.2        1 MOL1         0.6173
       2    O1      17.963894   16.766823   24.480668 O.co2      1 MOL1        -0.6755
       3    O2      16.809199   17.879177   23.068907 O.co2      1 MOL1        -0.6755
       4    C2      19.045525   18.497474   23.386188 C.2        1 MOL1        -0.1504
       5    H1      19.941370   18.244575   23.948512 H          1 MOL1         0.0814
       6    C3      19.062079   19.517943   22.498519 C.2        1 MOL1        -0.1394
       7    H2      18.169961   19.775694   21.928250 H          1 MOL1         0.0817
       8    C4      20.282496   20.370755   22.219899 C.3        1 MOL1        -0.1849
       9    H3      21.022664   20.260623   23.024115 H          1 MOL1         0.0736
      10    H4      19.987831   21.428669   22.219053 H          1 MOL1         0.0736
      11    C5      20.936788   20.032054   20.862567 C.3        1 MOL1        -0.1866
      12    H5      20.196327   20.139414   20.057800 H          1 MOL1         0.0738
      13    H6      21.732373   20.761219   20.656266 H          1 MOL1         0.0738
      14    C6      21.537175   18.610306   20.830957 C.3        1 MOL1        -0.2879
      15    H7      20.759048   17.848512   20.969670 H          1 MOL1         0.0750
      16    H8      22.026732   18.419307   19.867256 H          1 MOL1         0.0750
      17    H9      22.286345   18.482882   21.623169 H          1 MOL1         0.0750
@<TRIPOS>BOND
    1     1     2    1
    2     1     3    2
    3     1     4    1
    4     4     5    1
    5     4     6    2
    6     6     7    1
    7     6     8    1
    8     8     9    1
    9     8    10    1
   10     8    11    1
   11    11    12    1
   12    11    13    1
   13    11    14    1
   14    14    15    1
   15    14    16    1
   16    14    17    1
@<TRIPOS>SUBSTRUCTURE
       1 MOL1            1 RESIDUE      1      MOL     
@<SCITEGIC>MOL_PROPERTY
VConf Rank
SciTegic.value.IntegerValue
332

@<SCITEGIC>MOL_PROPERTY
Conf_Id
SciTegic.value.IntegerValue
45

@<SCITEGIC>MOL_PROPERTY
Delta U+W
SciTegic.value.DoubleValue
0.562

@<SCITEGIC>MOL_PROPERTY
U+W
SciTegic.value.DoubleValue
-52.846

@<SCITEGIC>MOL_PROPERTY
Grad RMS
SciTegic.value.DoubleValue
0.000000

@<SCITEGIC>MOL_PROPERTY
U
SciTegic.value.DoubleValue
10.243

@<SCITEGIC>MOL_PROPERTY
W
SciTegic.value.DoubleValue
-63.089

@<SCITEGIC>MOL_PROPERTY
W(PB)
SciTegic.value.DoubleValue
-65.116

@<SCITEGIC>MOL_PROPERTY
W(SA)
SciTegic.value.DoubleValue
2.026

@<SCITEGIC>MOL_PROPERTY
Valence
SciTegic.value.DoubleValue
2.822

@<SCITEGIC>MOL_PROPERTY
Coulomb
SciTegic.value.DoubleValue
6.637

@<SCITEGIC>MOL_PROPERTY
VdW
SciTegic.value.DoubleValue
0.785

@<SCITEGIC>MOL_PROPERTY
VdW6
SciTegic.value.DoubleValue
-5.216

@<SCITEGIC>MOL_PROPERTY
VdW12
SciTegic.value.DoubleValue
6.001

@<SCITEGIC>MOL_PROPERTY
Bond
SciTegic.value.DoubleValue
0.080

@<SCITEGIC>MOL_PROPERTY
Angle
SciTegic.value.DoubleValue
2.678

@<SCITEGIC>MOL_PROPERTY
Pdih
SciTegic.value.DoubleValue
0.064

@<SCITEGIC>MOL_PROPERTY
Idih
SciTegic.value.DoubleValue
0.000

@<SCITEGIC>MOL_PROPERTY
Tether
SciTegic.value.DoubleValue
0.000

@<TRIPOS>MOLECULE
guest-s19_confgen4.mol2 : confsearch ligand conformer 333
          17          16           1
SMALL
USER_CHARGES
 
@<TRIPOS>ATOM
       1    C1      21.395623   22.185456   21.915375 C.2        1 MOL1         0.6173
       2    O1      21.838449   22.828451   22.847129 O.co2      1 MOL1        -0.6755
       3    O2      21.184920   22.669894   20.819328 O.co2      1 MOL1        -0.6755
       4    C2      21.107872   20.744448   22.149584 C.2        1 MOL1        -0.1504
       5    H1      21.318530   20.375007   23.150606 H          1 MOL1         0.0814
       6    C3      20.612855   19.911616   21.205956 C.2        1 MOL1        -0.1394
       7    H2      20.395966   20.271833   20.200483 H          1 MOL1         0.0817
       8    C4      20.320948   18.447719   21.453006 C.3        1 MOL1        -0.1849
       9    H3      21.096431   18.013917   22.098956 H          1 MOL1         0.0736
      10    H4      20.362949   17.898803   20.502577 H          1 MOL1         0.0736
      11    C5      18.934844   18.252688   22.100844 C.3        1 MOL1        -0.1866
      12    H5      18.892590   18.797879   23.054018 H          1 MOL1         0.0738
      13    H6      18.160756   18.685532   21.451997 H          1 MOL1         0.0738
      14    C6      18.625684   16.762322   22.347327 C.3        1 MOL1        -0.2879
      15    H7      18.630136   16.198960   21.404971 H          1 MOL1         0.0750
      16    H8      19.368719   16.312869   23.019136 H          1 MOL1         0.0750
      17    H9      17.636479   16.643643   22.808326 H          1 MOL1         0.0750
@<TRIPOS>BOND
    1     1     2    1
    2     1     3    2
    3     1     4    1
    4     4     5    1
    5     4     6    2
    6     6     7    1
    7     6     8    1
    8     8     9    1
    9     8    10    1
   10     8    11    1
   11    11    12    1
   12    11    13    1
   13    11    14    1
   14    14    15    1
   15    14    16    1
   16    14    17    1
@<TRIPOS>SUBSTRUCTURE
       1 MOL1            1 RESIDUE      1      MOL     
@<SCITEGIC>MOL_PROPERTY
VConf Rank
SciTegic.value.IntegerValue
333

@<SCITEGIC>MOL_PROPERTY
Conf_Id
SciTegic.value.IntegerValue
36

@<SCITEGIC>MOL_PROPERTY
Delta U+W
SciTegic.value.DoubleValue
0.000

@<SCITEGIC>MOL_PROPERTY
U+W
SciTegic.value.DoubleValue
-53.409

@<SCITEGIC>MOL_PROPERTY
Grad RMS
SciTegic.value.DoubleValue
0.000000

@<SCITEGIC>MOL_PROPERTY
U
SciTegic.value.DoubleValue
9.048

@<SCITEGIC>MOL_PROPERTY
W
SciTegic.value.DoubleValue
-62.457

@<SCITEGIC>MOL_PROPERTY
W(PB)
SciTegic.value.DoubleValue
-64.540

@<SCITEGIC>MOL_PROPERTY
W(SA)
SciTegic.value.DoubleValue
2.084

@<SCITEGIC>MOL_PROPERTY
Valence
SciTegic.value.DoubleValue
2.652

@<SCITEGIC>MOL_PROPERTY
Coulomb
SciTegic.value.DoubleValue
5.578

@<SCITEGIC>MOL_PROPERTY
VdW
SciTegic.value.DoubleValue
0.818

@<SCITEGIC>MOL_PROPERTY
VdW6
SciTegic.value.DoubleValue
-4.534

@<SCITEGIC>MOL_PROPERTY
VdW12
SciTegic.value.DoubleValue
5.352

@<SCITEGIC>MOL_PROPERTY
Bond
SciTegic.value.DoubleValue
0.063

@<SCITEGIC>MOL_PROPERTY
Angle
SciTegic.value.DoubleValue
2.579

@<SCITEGIC>MOL_PROPERTY
Pdih
SciTegic.value.DoubleValue
0.010

@<SCITEGIC>MOL_PROPERTY
Idih
SciTegic.value.DoubleValue
0.000

@<SCITEGIC>MOL_PROPERTY
Tether
SciTegic.value.DoubleValue
0.000

@<TRIPOS>MOLECULE
guest-s19_confgen4.mol2 : confsearch ligand conformer 334
          17          16           1
SMALL
USER_CHARGES
 
@<TRIPOS>ATOM
       1    C1      20.693340   16.799044   24.291158 C.2        1 MOL1         0.6173
       2    O1      20.247168   17.232303   25.336916 O.co2      1 MOL1        -0.6755
       3    O2      21.420982   15.826803   24.236483 O.co2      1 MOL1        -0.6755
       4    C2      20.346130   17.470875   23.009654 C.2        1 MOL1        -0.1504
       5    H1      20.777664   17.033354   22.112290 H          1 MOL1         0.0814
       6    C3      19.549749   18.560405   22.921422 C.2        1 MOL1        -0.1394
       7    H2      19.113910   19.008171   23.814353 H          1 MOL1         0.0817
       8    C4      19.203066   19.238779   21.614189 C.3        1 MOL1        -0.1849
       9    H3      18.250174   19.774805   21.719358 H          1 MOL1         0.0736
      10    H4      19.052964   18.485755   20.828549 H          1 MOL1         0.0736
      11    C5      20.306398   20.227025   21.184019 C.3        1 MOL1        -0.1866
      12    H5      20.453170   20.980423   21.970413 H          1 MOL1         0.0738
      13    H6      21.259690   19.691519   21.074353 H          1 MOL1         0.0738
      14    C6      19.956220   20.929613   19.856890 C.3        1 MOL1        -0.2879
      15    H7      19.022125   21.499290   19.948348 H          1 MOL1         0.0750
      16    H8      20.752080   21.628111   19.567344 H          1 MOL1         0.0750
      17    H9      19.834659   20.199456   19.046008 H          1 MOL1         0.0750
@<TRIPOS>BOND
    1     1     2    1
    2     1     3    2
    3     1     4    1
    4     4     5    1
    5     4     6    2
    6     6     7    1
    7     6     8    1
    8     8     9    1
    9     8    10    1
   10     8    11    1
   11    11    12    1
   12    11    13    1
   13    11    14    1
   14    14    15    1
   15    14    16    1
   16    14    17    1
@<TRIPOS>SUBSTRUCTURE
       1 MOL1            1 RESIDUE      1      MOL     
@<SCITEGIC>MOL_PROPERTY
VConf Rank
SciTegic.value.IntegerValue
334

@<SCITEGIC>MOL_PROPERTY
Conf_Id
SciTegic.value.IntegerValue
1

@<SCITEGIC>MOL_PROPERTY
Delta U+W
SciTegic.value.DoubleValue
0.030

@<SCITEGIC>MOL_PROPERTY
U+W
SciTegic.value.DoubleValue
-53.378

@<SCITEGIC>MOL_PROPERTY
Grad RMS
SciTegic.value.DoubleValue
0.000000

@<SCITEGIC>MOL_PROPERTY
U
SciTegic.value.DoubleValue
9.048

@<SCITEGIC>MOL_PROPERTY
W
SciTegic.value.DoubleValue
-62.426

@<SCITEGIC>MOL_PROPERTY
W(PB)
SciTegic.value.DoubleValue
-64.506

@<SCITEGIC>MOL_PROPERTY
W(SA)
SciTegic.value.DoubleValue
2.080

@<SCITEGIC>MOL_PROPERTY
Valence
SciTegic.value.DoubleValue
2.652

@<SCITEGIC>MOL_PROPERTY
Coulomb
SciTegic.value.DoubleValue
5.578

@<SCITEGIC>MOL_PROPERTY
VdW
SciTegic.value.DoubleValue
0.818

@<SCITEGIC>MOL_PROPERTY
VdW6
SciTegic.value.DoubleValue
-4.535

@<SCITEGIC>MOL_PROPERTY
VdW12
SciTegic.value.DoubleValue
5.352

@<SCITEGIC>MOL_PROPERTY
Bond
SciTegic.value.DoubleValue
0.063

@<SCITEGIC>MOL_PROPERTY
Angle
SciTegic.value.DoubleValue
2.579

@<SCITEGIC>MOL_PROPERTY
Pdih
SciTegic.value.DoubleValue
0.010

@<SCITEGIC>MOL_PROPERTY
Idih
SciTegic.value.DoubleValue
0.000

@<SCITEGIC>MOL_PROPERTY
Tether
SciTegic.value.DoubleValue
0.000

@<TRIPOS>MOLECULE
guest-s19_confgen4.mol2 : confsearch ligand conformer 335
          17          16           1
SMALL
USER_CHARGES
 
@<TRIPOS>ATOM
       1    C1      17.342087   17.618192   22.483227 C.2        1 MOL1         0.6173
       2    O1      17.445845   17.315876   23.657229 O.co2      1 MOL1        -0.6755
       3    O2      16.284802   17.584718   21.884197 O.co2      1 MOL1        -0.6755
       4    C2      18.548292   18.047564   21.725071 C.2        1 MOL1        -0.1504
       5    H1      18.386409   18.302770   20.680359 H          1 MOL1         0.0814
       6    C3      19.786064   18.132474   22.263307 C.2        1 MOL1        -0.1394
       7    H2      19.958922   17.882425   23.309822 H          1 MOL1         0.0817
       8    C4      21.008491   18.574080   21.486346 C.3        1 MOL1        -0.1849
       9    H3      20.983826   18.134640   20.479960 H          1 MOL1         0.0736
      10    H4      21.916388   18.186235   21.967588 H          1 MOL1         0.0736
      11    C5      21.104426   20.110877   21.365468 C.3        1 MOL1        -0.1866
      12    H5      21.945705   20.367548   20.707043 H          1 MOL1         0.0738
      13    H6      20.197819   20.501809   20.883115 H          1 MOL1         0.0738
      14    C6      21.304748   20.800267   22.731969 C.3        1 MOL1        -0.2879
      15    H7      22.213232   20.433644   23.227336 H          1 MOL1         0.0750
      16    H8      21.402328   21.886282   22.605651 H          1 MOL1         0.0750
      17    H9      20.452172   20.614399   23.398143 H          1 MOL1         0.0750
@<TRIPOS>BOND
    1     1     2    1
    2     1     3    2
    3     1     4    1
    4     4     5    1
    5     4     6    2
    6     6     7    1
    7     6     8    1
    8     8     9    1
    9     8    10    1
   10     8    11    1
   11    11    12    1
   12    11    13    1
   13    11    14    1
   14    14    15    1
   15    14    16    1
   16    14    17    1
@<TRIPOS>SUBSTRUCTURE
       1 MOL1            1 RESIDUE      1      MOL     
@<SCITEGIC>MOL_PROPERTY
VConf Rank
SciTegic.value.IntegerValue
335

@<SCITEGIC>MOL_PROPERTY
Conf_Id
SciTegic.value.IntegerValue
3

@<SCITEGIC>MOL_PROPERTY
Delta U+W
SciTegic.value.DoubleValue
0.531

@<SCITEGIC>MOL_PROPERTY
U+W
SciTegic.value.DoubleValue
-52.878

@<SCITEGIC>MOL_PROPERTY
Grad RMS
SciTegic.value.DoubleValue
0.000000

@<SCITEGIC>MOL_PROPERTY
U
SciTegic.value.DoubleValue
10.067

@<SCITEGIC>MOL_PROPERTY
W
SciTegic.value.DoubleValue
-62.945

@<SCITEGIC>MOL_PROPERTY
W(PB)
SciTegic.value.DoubleValue
-64.982

@<SCITEGIC>MOL_PROPERTY
W(SA)
SciTegic.value.DoubleValue
2.037

@<SCITEGIC>MOL_PROPERTY
Valence
SciTegic.value.DoubleValue
2.779

@<SCITEGIC>MOL_PROPERTY
Coulomb
SciTegic.value.DoubleValue
6.474

@<SCITEGIC>MOL_PROPERTY
VdW
SciTegic.value.DoubleValue
0.815

@<SCITEGIC>MOL_PROPERTY
VdW6
SciTegic.value.DoubleValue
-5.088

@<SCITEGIC>MOL_PROPERTY
VdW12
SciTegic.value.DoubleValue
5.902

@<SCITEGIC>MOL_PROPERTY
Bond
SciTegic.value.DoubleValue
0.078

@<SCITEGIC>MOL_PROPERTY
Angle
SciTegic.value.DoubleValue
2.651

@<SCITEGIC>MOL_PROPERTY
Pdih
SciTegic.value.DoubleValue
0.050

@<SCITEGIC>MOL_PROPERTY
Idih
SciTegic.value.DoubleValue
0.000

@<SCITEGIC>MOL_PROPERTY
Tether
SciTegic.value.DoubleValue
0.000

@<TRIPOS>MOLECULE
guest-s19_confgen4.mol2 : confsearch ligand conformer 336
          17          16           1
SMALL
USER_CHARGES
 
@<TRIPOS>ATOM
       1    C1      18.270789   21.308670   20.924732 C.2        1 MOL1         0.6173
       2    O1      17.393324   21.964462   21.451774 O.co2      1 MOL1        -0.6755
       3    O2      18.372360   21.190275   19.718037 O.co2      1 MOL1        -0.6755
       4    C2      19.253264   20.633481   21.815201 C.2        1 MOL1        -0.1504
       5    H1      19.104779   20.780629   22.882443 H          1 MOL1         0.0814
       6    C3      20.277337   19.871886   21.367058 C.2        1 MOL1        -0.1394
       7    H2      20.431172   19.716262   20.299522 H          1 MOL1         0.0817
       8    C4      21.274306   19.183525   22.276205 C.3        1 MOL1        -0.1849
       9    H3      21.246212   19.622177   23.282950 H          1 MOL1         0.0736
      10    H4      22.288772   19.360120   21.894523 H          1 MOL1         0.0736
      11    C5      21.031220   17.661058   22.366599 C.3        1 MOL1        -0.1866
      12    H5      21.056533   17.221856   21.359663 H          1 MOL1         0.0738
      13    H6      21.853334   17.199683   22.930922 H          1 MOL1         0.0738
      14    C6      19.692917   17.312973   23.052609 C.3        1 MOL1        -0.2879
      15    H7      18.841223   17.703600   22.480699 H          1 MOL1         0.0750
      16    H8      19.572464   16.224999   23.134282 H          1 MOL1         0.0750
      17    H9      19.648872   17.736066   24.064610 H          1 MOL1         0.0750
@<TRIPOS>BOND
    1     1     2    1
    2     1     3    2
    3     1     4    1
    4     4     5    1
    5     4     6    2
    6     6     7    1
    7     6     8    1
    8     8     9    1
    9     8    10    1
   10     8    11    1
   11    11    12    1
   12    11    13    1
   13    11    14    1
   14    14    15    1
   15    14    16    1
   16    14    17    1
@<TRIPOS>SUBSTRUCTURE
       1 MOL1            1 RESIDUE      1      MOL     
@<SCITEGIC>MOL_PROPERTY
VConf Rank
SciTegic.value.IntegerValue
336

@<SCITEGIC>MOL_PROPERTY
Conf_Id
SciTegic.value.IntegerValue
45

@<SCITEGIC>MOL_PROPERTY
Delta U+W
SciTegic.value.DoubleValue
0.562

@<SCITEGIC>MOL_PROPERTY
U+W
SciTegic.value.DoubleValue
-52.846

@<SCITEGIC>MOL_PROPERTY
Grad RMS
SciTegic.value.DoubleValue
0.000000

@<SCITEGIC>MOL_PROPERTY
U
SciTegic.value.DoubleValue
10.243

@<SCITEGIC>MOL_PROPERTY
W
SciTegic.value.DoubleValue
-63.089

@<SCITEGIC>MOL_PROPERTY
W(PB)
SciTegic.value.DoubleValue
-65.116

@<SCITEGIC>MOL_PROPERTY
W(SA)
SciTegic.value.DoubleValue
2.026

@<SCITEGIC>MOL_PROPERTY
Valence
SciTegic.value.DoubleValue
2.822

@<SCITEGIC>MOL_PROPERTY
Coulomb
SciTegic.value.DoubleValue
6.637

@<SCITEGIC>MOL_PROPERTY
VdW
SciTegic.value.DoubleValue
0.785

@<SCITEGIC>MOL_PROPERTY
VdW6
SciTegic.value.DoubleValue
-5.216

@<SCITEGIC>MOL_PROPERTY
VdW12
SciTegic.value.DoubleValue
6.001

@<SCITEGIC>MOL_PROPERTY
Bond
SciTegic.value.DoubleValue
0.080

@<SCITEGIC>MOL_PROPERTY
Angle
SciTegic.value.DoubleValue
2.678

@<SCITEGIC>MOL_PROPERTY
Pdih
SciTegic.value.DoubleValue
0.064

@<SCITEGIC>MOL_PROPERTY
Idih
SciTegic.value.DoubleValue
0.000

@<SCITEGIC>MOL_PROPERTY
Tether
SciTegic.value.DoubleValue
0.000

@<TRIPOS>MOLECULE
guest-s19_confgen4.mol2 : confsearch ligand conformer 337
          17          16           1
SMALL
USER_CHARGES
 
@<TRIPOS>ATOM
       1    C1      20.261856   20.419667   18.813396 C.2        1 MOL1         0.6173
       2    O1      21.167731   20.312803   18.009857 O.co2      1 MOL1        -0.6755
       3    O2      19.365956   21.234291   18.694465 O.co2      1 MOL1        -0.6755
       4    C2      20.269986   19.501985   19.984701 C.2        1 MOL1        -0.1504
       5    H1      21.098203   18.798533   20.030736 H          1 MOL1         0.0814
       6    C3      19.327997   19.510075   20.955101 C.2        1 MOL1        -0.1394
       7    H2      18.495230   20.212247   20.920083 H          1 MOL1         0.0817
       8    C4      19.344826   18.574756   22.144275 C.3        1 MOL1        -0.1849
       9    H3      19.687185   17.578251   21.833507 H          1 MOL1         0.0736
      10    H4      18.323260   18.448701   22.527550 H          1 MOL1         0.0736
      11    C5      20.255194   19.110907   23.268012 C.3        1 MOL1        -0.1866
      12    H5      21.278698   19.233625   22.887301 H          1 MOL1         0.0738
      13    H6      19.909558   20.106739   23.578532 H          1 MOL1         0.0738
      14    C6      20.270419   18.167773   24.487763 C.3        1 MOL1        -0.2879
      15    H7      19.262703   18.052619   24.908094 H          1 MOL1         0.0750
      16    H8      20.642073   17.172634   24.210259 H          1 MOL1         0.0750
      17    H9      20.922877   18.565431   25.275987 H          1 MOL1         0.0750
@<TRIPOS>BOND
    1     1     2    1
    2     1     3    2
    3     1     4    1
    4     4     5    1
    5     4     6    2
    6     6     7    1
    7     6     8    1
    8     8     9    1
    9     8    10    1
   10     8    11    1
   11    11    12    1
   12    11    13    1
   13    11    14    1
   14    14    15    1
   15    14    16    1
   16    14    17    1
@<TRIPOS>SUBSTRUCTURE
       1 MOL1            1 RESIDUE      1      MOL     
@<SCITEGIC>MOL_PROPERTY
VConf Rank
SciTegic.value.IntegerValue
337

@<SCITEGIC>MOL_PROPERTY
Conf_Id
SciTegic.value.IntegerValue
36

@<SCITEGIC>MOL_PROPERTY
Delta U+W
SciTegic.value.DoubleValue
0.000

@<SCITEGIC>MOL_PROPERTY
U+W
SciTegic.value.DoubleValue
-53.409

@<SCITEGIC>MOL_PROPERTY
Grad RMS
SciTegic.value.DoubleValue
0.000000

@<SCITEGIC>MOL_PROPERTY
U
SciTegic.value.DoubleValue
9.048

@<SCITEGIC>MOL_PROPERTY
W
SciTegic.value.DoubleValue
-62.457

@<SCITEGIC>MOL_PROPERTY
W(PB)
SciTegic.value.DoubleValue
-64.540

@<SCITEGIC>MOL_PROPERTY
W(SA)
SciTegic.value.DoubleValue
2.084

@<SCITEGIC>MOL_PROPERTY
Valence
SciTegic.value.DoubleValue
2.652

@<SCITEGIC>MOL_PROPERTY
Coulomb
SciTegic.value.DoubleValue
5.578

@<SCITEGIC>MOL_PROPERTY
VdW
SciTegic.value.DoubleValue
0.818

@<SCITEGIC>MOL_PROPERTY
VdW6
SciTegic.value.DoubleValue
-4.534

@<SCITEGIC>MOL_PROPERTY
VdW12
SciTegic.value.DoubleValue
5.352

@<SCITEGIC>MOL_PROPERTY
Bond
SciTegic.value.DoubleValue
0.063

@<SCITEGIC>MOL_PROPERTY
Angle
SciTegic.value.DoubleValue
2.579

@<SCITEGIC>MOL_PROPERTY
Pdih
SciTegic.value.DoubleValue
0.010

@<SCITEGIC>MOL_PROPERTY
Idih
SciTegic.value.DoubleValue
0.000

@<SCITEGIC>MOL_PROPERTY
Tether
SciTegic.value.DoubleValue
0.000

@<TRIPOS>MOLECULE
guest-s19_confgen4.mol2 : confsearch ligand conformer 338
          17          16           1
SMALL
USER_CHARGES
 
@<TRIPOS>ATOM
       1    C1      23.011869   17.548511   21.846361 C.2        1 MOL1         0.6173
       2    O1      23.254384   17.199625   22.986474 O.co2      1 MOL1        -0.6755
       3    O2      23.836514   17.507931   20.954161 O.co2      1 MOL1        -0.6755
       4    C2      21.652996   18.049162   21.504347 C.2        1 MOL1        -0.1504
       5    H1      21.502810   18.344405   20.468400 H          1 MOL1         0.0814
       6    C3      20.640303   18.149242   22.395146 C.2        1 MOL1        -0.1394
       7    H2      20.780472   17.858281   23.436044 H          1 MOL1         0.0817
       8    C4      19.261685   18.661257   22.039490 C.3        1 MOL1        -0.1849
       9    H3      18.524738   18.253652   22.744583 H          1 MOL1         0.0736
      10    H4      18.972909   18.301070   21.042655 H          1 MOL1         0.0736
      11    C5      19.209094   20.202435   22.071492 C.3        1 MOL1        -0.1866
      12    H5      19.496205   20.560175   23.070069 H          1 MOL1         0.0738
      13    H6      19.943046   20.611873   21.363513 H          1 MOL1         0.0738
      14    C6      17.804528   20.732075   21.719069 C.3        1 MOL1        -0.2879
      15    H7      17.055105   20.362756   22.431387 H          1 MOL1         0.0750
      16    H8      17.786714   21.829358   21.747041 H          1 MOL1         0.0750
      17    H9      17.506120   20.413923   20.711514 H          1 MOL1         0.0750
@<TRIPOS>BOND
    1     1     2    1
    2     1     3    2
    3     1     4    1
    4     4     5    1
    5     4     6    2
    6     6     7    1
    7     6     8    1
    8     8     9    1
    9     8    10    1
   10     8    11    1
   11    11    12    1
   12    11    13    1
   13    11    14    1
   14    14    15    1
   15    14    16    1
   16    14    17    1
@<TRIPOS>SUBSTRUCTURE
       1 MOL1            1 RESIDUE      1      MOL     
@<SCITEGIC>MOL_PROPERTY
VConf Rank
SciTegic.value.IntegerValue
338

@<SCITEGIC>MOL_PROPERTY
Conf_Id
SciTegic.value.IntegerValue
1

@<SCITEGIC>MOL_PROPERTY
Delta U+W
SciTegic.value.DoubleValue
0.030

@<SCITEGIC>MOL_PROPERTY
U+W
SciTegic.value.DoubleValue
-53.378

@<SCITEGIC>MOL_PROPERTY
Grad RMS
SciTegic.value.DoubleValue
0.000000

@<SCITEGIC>MOL_PROPERTY
U
SciTegic.value.DoubleValue
9.048

@<SCITEGIC>MOL_PROPERTY
W
SciTegic.value.DoubleValue
-62.426

@<SCITEGIC>MOL_PROPERTY
W(PB)
SciTegic.value.DoubleValue
-64.506

@<SCITEGIC>MOL_PROPERTY
W(SA)
SciTegic.value.DoubleValue
2.080

@<SCITEGIC>MOL_PROPERTY
Valence
SciTegic.value.DoubleValue
2.652

@<SCITEGIC>MOL_PROPERTY
Coulomb
SciTegic.value.DoubleValue
5.578

@<SCITEGIC>MOL_PROPERTY
VdW
SciTegic.value.DoubleValue
0.818

@<SCITEGIC>MOL_PROPERTY
VdW6
SciTegic.value.DoubleValue
-4.535

@<SCITEGIC>MOL_PROPERTY
VdW12
SciTegic.value.DoubleValue
5.352

@<SCITEGIC>MOL_PROPERTY
Bond
SciTegic.value.DoubleValue
0.063

@<SCITEGIC>MOL_PROPERTY
Angle
SciTegic.value.DoubleValue
2.579

@<SCITEGIC>MOL_PROPERTY
Pdih
SciTegic.value.DoubleValue
0.010

@<SCITEGIC>MOL_PROPERTY
Idih
SciTegic.value.DoubleValue
0.000

@<SCITEGIC>MOL_PROPERTY
Tether
SciTegic.value.DoubleValue
0.000

@<TRIPOS>MOLECULE
guest-s19_confgen4.mol2 : confsearch ligand conformer 339
          17          16           1
SMALL
USER_CHARGES
 
@<TRIPOS>ATOM
       1    C1      22.805730   17.838877   22.451235 C.2        1 MOL1         0.6173
       2    O1      22.877719   17.140275   21.457649 O.co2      1 MOL1        -0.6755
       3    O2      23.773506   18.122222   23.130158 O.co2      1 MOL1        -0.6755
       4    C2      21.486045   18.379126   22.876270 C.2        1 MOL1        -0.1504
       5    H1      21.491596   18.994967   23.772634 H          1 MOL1         0.0814
       6    C3      20.328592   18.146457   22.216609 C.2        1 MOL1        -0.1394
       7    H2      20.312126   17.533687   21.315587 H          1 MOL1         0.0817
       8    C4      18.989631   18.702974   22.653057 C.3        1 MOL1        -0.1849
       9    H3      18.904913   18.643684   23.746599 H          1 MOL1         0.0736
      10    H4      18.178363   18.082550   22.249060 H          1 MOL1         0.0736
      11    C5      18.789270   20.168510   22.208512 C.3        1 MOL1        -0.1866
      12    H5      17.853984   20.550232   22.640579 H          1 MOL1         0.0738
      13    H6      19.598935   20.792065   22.612306 H          1 MOL1         0.0738
      14    C6      18.733870   20.318545   20.673216 C.3        1 MOL1        -0.2879
      15    H7      17.922678   19.712971   20.248489 H          1 MOL1         0.0750
      16    H8      18.557342   21.365323   20.393928 H          1 MOL1         0.0750
      17    H9      19.677256   20.001332   20.209944 H          1 MOL1         0.0750
@<TRIPOS>BOND
    1     1     2    1
    2     1     3    2
    3     1     4    1
    4     4     5    1
    5     4     6    2
    6     6     7    1
    7     6     8    1
    8     8     9    1
    9     8    10    1
   10     8    11    1
   11    11    12    1
   12    11    13    1
   13    11    14    1
   14    14    15    1
   15    14    16    1
   16    14    17    1
@<TRIPOS>SUBSTRUCTURE
       1 MOL1            1 RESIDUE      1      MOL     
@<SCITEGIC>MOL_PROPERTY
VConf Rank
SciTegic.value.IntegerValue
339

@<SCITEGIC>MOL_PROPERTY
Conf_Id
SciTegic.value.IntegerValue
3

@<SCITEGIC>MOL_PROPERTY
Delta U+W
SciTegic.value.DoubleValue
0.531

@<SCITEGIC>MOL_PROPERTY
U+W
SciTegic.value.DoubleValue
-52.878

@<SCITEGIC>MOL_PROPERTY
Grad RMS
SciTegic.value.DoubleValue
0.000000

@<SCITEGIC>MOL_PROPERTY
U
SciTegic.value.DoubleValue
10.067

@<SCITEGIC>MOL_PROPERTY
W
SciTegic.value.DoubleValue
-62.945

@<SCITEGIC>MOL_PROPERTY
W(PB)
SciTegic.value.DoubleValue
-64.982

@<SCITEGIC>MOL_PROPERTY
W(SA)
SciTegic.value.DoubleValue
2.037

@<SCITEGIC>MOL_PROPERTY
Valence
SciTegic.value.DoubleValue
2.779

@<SCITEGIC>MOL_PROPERTY
Coulomb
SciTegic.value.DoubleValue
6.474

@<SCITEGIC>MOL_PROPERTY
VdW
SciTegic.value.DoubleValue
0.815

@<SCITEGIC>MOL_PROPERTY
VdW6
SciTegic.value.DoubleValue
-5.088

@<SCITEGIC>MOL_PROPERTY
VdW12
SciTegic.value.DoubleValue
5.902

@<SCITEGIC>MOL_PROPERTY
Bond
SciTegic.value.DoubleValue
0.078

@<SCITEGIC>MOL_PROPERTY
Angle
SciTegic.value.DoubleValue
2.651

@<SCITEGIC>MOL_PROPERTY
Pdih
SciTegic.value.DoubleValue
0.050

@<SCITEGIC>MOL_PROPERTY
Idih
SciTegic.value.DoubleValue
0.000

@<SCITEGIC>MOL_PROPERTY
Tether
SciTegic.value.DoubleValue
0.000

@<TRIPOS>MOLECULE
guest-s19_confgen4.mol2 : confsearch ligand conformer 340
          17          16           1
SMALL
USER_CHARGES
 
@<TRIPOS>ATOM
       1    C1      18.494540   17.191433   23.887606 C.2        1 MOL1         0.6173
       2    O1      17.298206   17.021971   24.021205 O.co2      1 MOL1        -0.6755
       3    O2      19.306611   16.860580   24.731125 O.co2      1 MOL1        -0.6755
       4    C2      18.961761   17.830329   22.627610 C.2        1 MOL1        -0.1504
       5    H1      18.184323   18.100928   21.916925 H          1 MOL1         0.0814
       6    C3      20.260860   18.081359   22.346703 C.2        1 MOL1        -0.1394
       7    H2      21.045845   17.816813   23.054751 H          1 MOL1         0.0817
       8    C4      20.733183   18.734450   21.064237 C.3        1 MOL1        -0.1849
       9    H3      19.949231   18.689168   20.296052 H          1 MOL1         0.0736
      10    H4      21.584474   18.166777   20.665411 H          1 MOL1         0.0736
      11    C5      21.165735   20.201497   21.278339 C.3        1 MOL1        -0.1866
      12    H5      21.948089   20.247974   22.048547 H          1 MOL1         0.0738
      13    H6      21.615600   20.581577   20.350784 H          1 MOL1         0.0738
      14    C6      19.987771   21.115838   21.677354 C.3        1 MOL1        -0.2879
      15    H7      19.551973   20.804965   22.635733 H          1 MOL1         0.0750
      16    H8      20.324324   22.155336   21.782435 H          1 MOL1         0.0750
      17    H9      19.196352   21.090726   20.917013 H          1 MOL1         0.0750
@<TRIPOS>BOND
    1     1     2    1
    2     1     3    2
    3     1     4    1
    4     4     5    1
    5     4     6    2
    6     6     7    1
    7     6     8    1
    8     8     9    1
    9     8    10    1
   10     8    11    1
   11    11    12    1
   12    11    13    1
   13    11    14    1
   14    14    15    1
   15    14    16    1
   16    14    17    1
@<TRIPOS>SUBSTRUCTURE
       1 MOL1            1 RESIDUE      1      MOL     
@<SCITEGIC>MOL_PROPERTY
VConf Rank
SciTegic.value.IntegerValue
340

@<SCITEGIC>MOL_PROPERTY
Conf_Id
SciTegic.value.IntegerValue
45

@<SCITEGIC>MOL_PROPERTY
Delta U+W
SciTegic.value.DoubleValue
0.562

@<SCITEGIC>MOL_PROPERTY
U+W
SciTegic.value.DoubleValue
-52.846

@<SCITEGIC>MOL_PROPERTY
Grad RMS
SciTegic.value.DoubleValue
0.000000

@<SCITEGIC>MOL_PROPERTY
U
SciTegic.value.DoubleValue
10.243

@<SCITEGIC>MOL_PROPERTY
W
SciTegic.value.DoubleValue
-63.089

@<SCITEGIC>MOL_PROPERTY
W(PB)
SciTegic.value.DoubleValue
-65.116

@<SCITEGIC>MOL_PROPERTY
W(SA)
SciTegic.value.DoubleValue
2.026

@<SCITEGIC>MOL_PROPERTY
Valence
SciTegic.value.DoubleValue
2.822

@<SCITEGIC>MOL_PROPERTY
Coulomb
SciTegic.value.DoubleValue
6.637

@<SCITEGIC>MOL_PROPERTY
VdW
SciTegic.value.DoubleValue
0.785

@<SCITEGIC>MOL_PROPERTY
VdW6
SciTegic.value.DoubleValue
-5.216

@<SCITEGIC>MOL_PROPERTY
VdW12
SciTegic.value.DoubleValue
6.001

@<SCITEGIC>MOL_PROPERTY
Bond
SciTegic.value.DoubleValue
0.080

@<SCITEGIC>MOL_PROPERTY
Angle
SciTegic.value.DoubleValue
2.678

@<SCITEGIC>MOL_PROPERTY
Pdih
SciTegic.value.DoubleValue
0.064

@<SCITEGIC>MOL_PROPERTY
Idih
SciTegic.value.DoubleValue
0.000

@<SCITEGIC>MOL_PROPERTY
Tether
SciTegic.value.DoubleValue
0.000

@<TRIPOS>MOLECULE
guest-s19_confgen4.mol2 : confsearch ligand conformer 341
          17          16           1
SMALL
USER_CHARGES
 
@<TRIPOS>ATOM
       1    C1      20.014971   22.456857   21.436445 C.2        1 MOL1         0.6173
       2    O1      19.472964   23.113708   20.568989 O.co2      1 MOL1        -0.6755
       3    O2      20.868795   22.912580   22.173802 O.co2      1 MOL1        -0.6755
       4    C2      19.598133   21.036128   21.584557 C.2        1 MOL1        -0.1504
       5    H1      18.831076   20.692170   20.894466 H          1 MOL1         0.0814
       6    C3      20.116305   20.190541   22.504103 C.2        1 MOL1        -0.1394
       7    H2      20.886955   20.524045   23.198831 H          1 MOL1         0.0817
       8    C4      19.688335   18.746328   22.646684 C.3        1 MOL1        -0.1849
       9    H3      18.604719   18.658406   22.489023 H          1 MOL1         0.0736
      10    H4      19.883655   18.404348   23.672006 H          1 MOL1         0.0736
      11    C5      20.434968   17.837863   21.648563 C.3        1 MOL1        -0.1866
      12    H5      20.237195   18.176143   20.621912 H          1 MOL1         0.0738
      13    H6      21.518427   17.925968   21.809570 H          1 MOL1         0.0738
      14    C6      20.011212   16.362456   21.793926 C.3        1 MOL1        -0.2879
      15    H7      20.227658   15.989043   22.803453 H          1 MOL1         0.0750
      16    H8      18.936012   16.242303   21.606992 H          1 MOL1         0.0750
      17    H9      20.552370   15.732148   21.076297 H          1 MOL1         0.0750
@<TRIPOS>BOND
    1     1     2    1
    2     1     3    2
    3     1     4    1
    4     4     5    1
    5     4     6    2
    6     6     7    1
    7     6     8    1
    8     8     9    1
    9     8    10    1
   10     8    11    1
   11    11    12    1
   12    11    13    1
   13    11    14    1
   14    14    15    1
   15    14    16    1
   16    14    17    1
@<TRIPOS>SUBSTRUCTURE
       1 MOL1            1 RESIDUE      1      MOL     
@<SCITEGIC>MOL_PROPERTY
VConf Rank
SciTegic.value.IntegerValue
341

@<SCITEGIC>MOL_PROPERTY
Conf_Id
SciTegic.value.IntegerValue
36

@<SCITEGIC>MOL_PROPERTY
Delta U+W
SciTegic.value.DoubleValue
0.000

@<SCITEGIC>MOL_PROPERTY
U+W
SciTegic.value.DoubleValue
-53.409

@<SCITEGIC>MOL_PROPERTY
Grad RMS
SciTegic.value.DoubleValue
0.000000

@<SCITEGIC>MOL_PROPERTY
U
SciTegic.value.DoubleValue
9.048

@<SCITEGIC>MOL_PROPERTY
W
SciTegic.value.DoubleValue
-62.457

@<SCITEGIC>MOL_PROPERTY
W(PB)
SciTegic.value.DoubleValue
-64.540

@<SCITEGIC>MOL_PROPERTY
W(SA)
SciTegic.value.DoubleValue
2.084

@<SCITEGIC>MOL_PROPERTY
Valence
SciTegic.value.DoubleValue
2.652

@<SCITEGIC>MOL_PROPERTY
Coulomb
SciTegic.value.DoubleValue
5.578

@<SCITEGIC>MOL_PROPERTY
VdW
SciTegic.value.DoubleValue
0.818

@<SCITEGIC>MOL_PROPERTY
VdW6
SciTegic.value.DoubleValue
-4.534

@<SCITEGIC>MOL_PROPERTY
VdW12
SciTegic.value.DoubleValue
5.352

@<SCITEGIC>MOL_PROPERTY
Bond
SciTegic.value.DoubleValue
0.063

@<SCITEGIC>MOL_PROPERTY
Angle
SciTegic.value.DoubleValue
2.579

@<SCITEGIC>MOL_PROPERTY
Pdih
SciTegic.value.DoubleValue
0.010

@<SCITEGIC>MOL_PROPERTY
Idih
SciTegic.value.DoubleValue
0.000

@<SCITEGIC>MOL_PROPERTY
Tether
SciTegic.value.DoubleValue
0.000

@<TRIPOS>MOLECULE
guest-s19_confgen4.mol2 : confsearch ligand conformer 342
          17          16           1
SMALL
USER_CHARGES
 
@<TRIPOS>ATOM
       1    C1      17.910320   18.444999   19.357968 C.2        1 MOL1         0.6173
       2    O1      17.693749   19.505337   18.801933 O.co2      1 MOL1        -0.6755
       3    O2      17.281927   17.432766   19.116697 O.co2      1 MOL1        -0.6755
       4    C2      18.987496   18.358137   20.380861 C.2        1 MOL1        -0.1504
       5    H1      19.129117   17.382051   20.839236 H          1 MOL1         0.0814
       6    C3      19.763415   19.402909   20.748944 C.2        1 MOL1        -0.1394
       7    H2      19.628614   20.385756   20.297707 H          1 MOL1         0.0817
       8    C4      20.855640   19.306526   21.791535 C.3        1 MOL1        -0.1849
       9    H3      21.604872   20.089525   21.612783 H          1 MOL1         0.0736
      10    H4      21.379700   18.345512   21.698693 H          1 MOL1         0.0736
      11    C5      20.285976   19.453156   23.217368 C.3        1 MOL1        -0.1866
      12    H5      19.764199   20.415980   23.308390 H          1 MOL1         0.0738
      13    H6      19.539079   18.667916   23.399311 H          1 MOL1         0.0738
      14    C6      21.394402   19.365289   24.285636 C.3        1 MOL1        -0.2879
      15    H7      22.138884   20.160034   24.145783 H          1 MOL1         0.0750
      16    H8      20.970346   19.471685   25.292605 H          1 MOL1         0.0750
      17    H9      21.911754   18.398155   24.236294 H          1 MOL1         0.0750
@<TRIPOS>BOND
    1     1     2    1
    2     1     3    2
    3     1     4    1
    4     4     5    1
    5     4     6    2
    6     6     7    1
    7     6     8    1
    8     8     9    1
    9     8    10    1
   10     8    11    1
   11    11    12    1
   12    11    13    1
   13    11    14    1
   14    14    15    1
   15    14    16    1
   16    14    17    1
@<TRIPOS>SUBSTRUCTURE
       1 MOL1            1 RESIDUE      1      MOL     
@<SCITEGIC>MOL_PROPERTY
VConf Rank
SciTegic.value.IntegerValue
342

@<SCITEGIC>MOL_PROPERTY
Conf_Id
SciTegic.value.IntegerValue
1

@<SCITEGIC>MOL_PROPERTY
Delta U+W
SciTegic.value.DoubleValue
0.030

@<SCITEGIC>MOL_PROPERTY
U+W
SciTegic.value.DoubleValue
-53.378

@<SCITEGIC>MOL_PROPERTY
Grad RMS
SciTegic.value.DoubleValue
0.000000

@<SCITEGIC>MOL_PROPERTY
U
SciTegic.value.DoubleValue
9.048

@<SCITEGIC>MOL_PROPERTY
W
SciTegic.value.DoubleValue
-62.426

@<SCITEGIC>MOL_PROPERTY
W(PB)
SciTegic.value.DoubleValue
-64.506

@<SCITEGIC>MOL_PROPERTY
W(SA)
SciTegic.value.DoubleValue
2.080

@<SCITEGIC>MOL_PROPERTY
Valence
SciTegic.value.DoubleValue
2.652

@<SCITEGIC>MOL_PROPERTY
Coulomb
SciTegic.value.DoubleValue
5.578

@<SCITEGIC>MOL_PROPERTY
VdW
SciTegic.value.DoubleValue
0.818

@<SCITEGIC>MOL_PROPERTY
VdW6
SciTegic.value.DoubleValue
-4.535

@<SCITEGIC>MOL_PROPERTY
VdW12
SciTegic.value.DoubleValue
5.352

@<SCITEGIC>MOL_PROPERTY
Bond
SciTegic.value.DoubleValue
0.063

@<SCITEGIC>MOL_PROPERTY
Angle
SciTegic.value.DoubleValue
2.579

@<SCITEGIC>MOL_PROPERTY
Pdih
SciTegic.value.DoubleValue
0.010

@<SCITEGIC>MOL_PROPERTY
Idih
SciTegic.value.DoubleValue
0.000

@<SCITEGIC>MOL_PROPERTY
Tether
SciTegic.value.DoubleValue
0.000

@<TRIPOS>MOLECULE
guest-s19_confgen4.mol2 : confsearch ligand conformer 343
          17          16           1
SMALL
USER_CHARGES
 
@<TRIPOS>ATOM
       1    C1      17.250407   20.139272   21.188310 C.2        1 MOL1         0.6173
       2    O1      16.698312   20.215544   22.269889 O.co2      1 MOL1        -0.6755
       3    O2      16.822397   20.683613   20.189155 O.co2      1 MOL1        -0.6755
       4    C2      18.503736   19.348122   21.056623 C.2        1 MOL1        -0.1504
       5    H1      18.945262   19.320111   20.063129 H          1 MOL1         0.0814
       6    C3      19.092461   18.692570   22.082606 C.2        1 MOL1        -0.1394
       7    H2      18.660460   18.716752   23.082800 H          1 MOL1         0.0817
       8    C4      20.370342   17.892438   21.941809 C.3        1 MOL1        -0.1849
       9    H3      20.350000   17.328785   20.999255 H          1 MOL1         0.0736
      10    H4      20.432639   17.145038   22.744184 H          1 MOL1         0.0736
      11    C5      21.629542   18.786408   21.969970 C.3        1 MOL1        -0.1866
      12    H5      22.513337   18.168731   21.758939 H          1 MOL1         0.0738
      13    H6      21.570675   19.534579   21.167348 H          1 MOL1         0.0738
      14    C6      21.821720   19.494776   23.327908 C.3        1 MOL1        -0.2879
      15    H7      21.895859   18.764882   24.144550 H          1 MOL1         0.0750
      16    H8      22.741675   20.093587   23.323967 H          1 MOL1         0.0750
      17    H9      20.982734   20.168589   23.545392 H          1 MOL1         0.0750
@<TRIPOS>BOND
    1     1     2    1
    2     1     3    2
    3     1     4    1
    4     4     5    1
    5     4     6    2
    6     6     7    1
    7     6     8    1
    8     8     9    1
    9     8    10    1
   10     8    11    1
   11    11    12    1
   12    11    13    1
   13    11    14    1
   14    14    15    1
   15    14    16    1
   16    14    17    1
@<TRIPOS>SUBSTRUCTURE
       1 MOL1            1 RESIDUE      1      MOL     
@<SCITEGIC>MOL_PROPERTY
VConf Rank
SciTegic.value.IntegerValue
343

@<SCITEGIC>MOL_PROPERTY
Conf_Id
SciTegic.value.IntegerValue
3

@<SCITEGIC>MOL_PROPERTY
Delta U+W
SciTegic.value.DoubleValue
0.531

@<SCITEGIC>MOL_PROPERTY
U+W
SciTegic.value.DoubleValue
-52.878

@<SCITEGIC>MOL_PROPERTY
Grad RMS
SciTegic.value.DoubleValue
0.000000

@<SCITEGIC>MOL_PROPERTY
U
SciTegic.value.DoubleValue
10.067

@<SCITEGIC>MOL_PROPERTY
W
SciTegic.value.DoubleValue
-62.945

@<SCITEGIC>MOL_PROPERTY
W(PB)
SciTegic.value.DoubleValue
-64.982

@<SCITEGIC>MOL_PROPERTY
W(SA)
SciTegic.value.DoubleValue
2.037

@<SCITEGIC>MOL_PROPERTY
Valence
SciTegic.value.DoubleValue
2.779

@<SCITEGIC>MOL_PROPERTY
Coulomb
SciTegic.value.DoubleValue
6.474

@<SCITEGIC>MOL_PROPERTY
VdW
SciTegic.value.DoubleValue
0.815

@<SCITEGIC>MOL_PROPERTY
VdW6
SciTegic.value.DoubleValue
-5.088

@<SCITEGIC>MOL_PROPERTY
VdW12
SciTegic.value.DoubleValue
5.902

@<SCITEGIC>MOL_PROPERTY
Bond
SciTegic.value.DoubleValue
0.078

@<SCITEGIC>MOL_PROPERTY
Angle
SciTegic.value.DoubleValue
2.651

@<SCITEGIC>MOL_PROPERTY
Pdih
SciTegic.value.DoubleValue
0.050

@<SCITEGIC>MOL_PROPERTY
Idih
SciTegic.value.DoubleValue
0.000

@<SCITEGIC>MOL_PROPERTY
Tether
SciTegic.value.DoubleValue
0.000

@<TRIPOS>MOLECULE
guest-s19_confgen4.mol2 : confsearch ligand conformer 344
          17          16           1
SMALL
USER_CHARGES
 
@<TRIPOS>ATOM
       1    C1      18.902462   16.283203   21.897596 C.2        1 MOL1         0.6173
       2    O1      17.893704   15.806931   22.380663 O.co2      1 MOL1        -0.6755
       3    O2      19.849126   15.605340   21.544357 O.co2      1 MOL1        -0.6755
       4    C2      18.956617   17.761675   21.738669 C.2        1 MOL1        -0.1504
       5    H1      18.077509   18.306871   22.074284 H          1 MOL1         0.0814
       6    C3      20.014628   18.425529   21.219540 C.2        1 MOL1        -0.1394
       7    H2      20.900889   17.887354   20.884239 H          1 MOL1         0.0817
       8    C4      20.067890   19.931034   21.061571 C.3        1 MOL1        -0.1849
       9    H3      19.059621   20.362268   21.126153 H          1 MOL1         0.0736
      10    H4      20.439585   20.173029   20.056936 H          1 MOL1         0.0736
      11    C5      20.985680   20.598226   22.109274 C.3        1 MOL1        -0.1866
      12    H5      21.993840   20.165547   22.047136 H          1 MOL1         0.0738
      13    H6      21.086979   21.665607   21.869202 H          1 MOL1         0.0738
      14    C6      20.445995   20.455507   23.548441 C.3        1 MOL1        -0.2879
      15    H7      20.391534   19.400925   23.848348 H          1 MOL1         0.0750
      16    H8      21.101726   20.973963   24.259839 H          1 MOL1         0.0750
      17    H9      19.441092   20.888713   23.635582 H          1 MOL1         0.0750
@<TRIPOS>BOND
    1     1     2    1
    2     1     3    2
    3     1     4    1
    4     4     5    1
    5     4     6    2
    6     6     7    1
    7     6     8    1
    8     8     9    1
    9     8    10    1
   10     8    11    1
   11    11    12    1
   12    11    13    1
   13    11    14    1
   14    14    15    1
   15    14    16    1
   16    14    17    1
@<TRIPOS>SUBSTRUCTURE
       1 MOL1            1 RESIDUE      1      MOL     
@<SCITEGIC>MOL_PROPERTY
VConf Rank
SciTegic.value.IntegerValue
344

@<SCITEGIC>MOL_PROPERTY
Conf_Id
SciTegic.value.IntegerValue
45

@<SCITEGIC>MOL_PROPERTY
Delta U+W
SciTegic.value.DoubleValue
0.562

@<SCITEGIC>MOL_PROPERTY
U+W
SciTegic.value.DoubleValue
-52.846

@<SCITEGIC>MOL_PROPERTY
Grad RMS
SciTegic.value.DoubleValue
0.000000

@<SCITEGIC>MOL_PROPERTY
U
SciTegic.value.DoubleValue
10.243

@<SCITEGIC>MOL_PROPERTY
W
SciTegic.value.DoubleValue
-63.089

@<SCITEGIC>MOL_PROPERTY
W(PB)
SciTegic.value.DoubleValue
-65.116

@<SCITEGIC>MOL_PROPERTY
W(SA)
SciTegic.value.DoubleValue
2.026

@<SCITEGIC>MOL_PROPERTY
Valence
SciTegic.value.DoubleValue
2.822

@<SCITEGIC>MOL_PROPERTY
Coulomb
SciTegic.value.DoubleValue
6.637

@<SCITEGIC>MOL_PROPERTY
VdW
SciTegic.value.DoubleValue
0.785

@<SCITEGIC>MOL_PROPERTY
VdW6
SciTegic.value.DoubleValue
-5.216

@<SCITEGIC>MOL_PROPERTY
VdW12
SciTegic.value.DoubleValue
6.001

@<SCITEGIC>MOL_PROPERTY
Bond
SciTegic.value.DoubleValue
0.080

@<SCITEGIC>MOL_PROPERTY
Angle
SciTegic.value.DoubleValue
2.678

@<SCITEGIC>MOL_PROPERTY
Pdih
SciTegic.value.DoubleValue
0.064

@<SCITEGIC>MOL_PROPERTY
Idih
SciTegic.value.DoubleValue
0.000

@<SCITEGIC>MOL_PROPERTY
Tether
SciTegic.value.DoubleValue
0.000

@<TRIPOS>MOLECULE
guest-s19_confgen4.mol2 : confsearch ligand conformer 345
          17          16           1
SMALL
USER_CHARGES
 
@<TRIPOS>ATOM
       1    C1      21.331528   22.044181   22.924700 C.2        1 MOL1         0.6173
       2    O1      20.786771   23.113775   23.116827 O.co2      1 MOL1        -0.6755
       3    O2      22.540090   21.921130   22.856654 O.co2      1 MOL1        -0.6755
       4    C2      20.461125   20.847187   22.770539 C.2        1 MOL1        -0.1504
       5    H1      19.390746   21.026346   22.841953 H          1 MOL1         0.0814
       6    C3      20.929824   19.597576   22.551730 C.2        1 MOL1        -0.1394
       7    H2      22.000248   19.407196   22.476097 H          1 MOL1         0.0817
       8    C4      20.037619   18.385841   22.393908 C.3        1 MOL1        -0.1849
       9    H3      19.188498   18.451719   23.087783 H          1 MOL1         0.0736
      10    H4      20.595429   17.480193   22.667837 H          1 MOL1         0.0736
      11    C5      19.518771   18.254670   20.947324 C.3        1 MOL1        -0.1866
      12    H5      18.956800   19.158301   20.673095 H          1 MOL1         0.0738
      13    H6      20.369810   18.186890   20.255437 H          1 MOL1         0.0738
      14    C6      18.616014   17.016467   20.775839 C.3        1 MOL1        -0.2879
      15    H7      19.163592   16.094954   21.013335 H          1 MOL1         0.0750
      16    H8      17.740093   17.074569   21.435250 H          1 MOL1         0.0750
      17    H9      18.256793   16.940040   19.741310 H          1 MOL1         0.0750
@<TRIPOS>BOND
    1     1     2    1
    2     1     3    2
    3     1     4    1
    4     4     5    1
    5     4     6    2
    6     6     7    1
    7     6     8    1
    8     8     9    1
    9     8    10    1
   10     8    11    1
   11    11    12    1
   12    11    13    1
   13    11    14    1
   14    14    15    1
   15    14    16    1
   16    14    17    1
@<TRIPOS>SUBSTRUCTURE
       1 MOL1            1 RESIDUE      1      MOL     
@<SCITEGIC>MOL_PROPERTY
VConf Rank
SciTegic.value.IntegerValue
345

@<SCITEGIC>MOL_PROPERTY
Conf_Id
SciTegic.value.IntegerValue
36

@<SCITEGIC>MOL_PROPERTY
Delta U+W
SciTegic.value.DoubleValue
0.000

@<SCITEGIC>MOL_PROPERTY
U+W
SciTegic.value.DoubleValue
-53.409

@<SCITEGIC>MOL_PROPERTY
Grad RMS
SciTegic.value.DoubleValue
0.000000

@<SCITEGIC>MOL_PROPERTY
U
SciTegic.value.DoubleValue
9.048

@<SCITEGIC>MOL_PROPERTY
W
SciTegic.value.DoubleValue
-62.457

@<SCITEGIC>MOL_PROPERTY
W(PB)
SciTegic.value.DoubleValue
-64.540

@<SCITEGIC>MOL_PROPERTY
W(SA)
SciTegic.value.DoubleValue
2.084

@<SCITEGIC>MOL_PROPERTY
Valence
SciTegic.value.DoubleValue
2.652

@<SCITEGIC>MOL_PROPERTY
Coulomb
SciTegic.value.DoubleValue
5.578

@<SCITEGIC>MOL_PROPERTY
VdW
SciTegic.value.DoubleValue
0.818

@<SCITEGIC>MOL_PROPERTY
VdW6
SciTegic.value.DoubleValue
-4.534

@<SCITEGIC>MOL_PROPERTY
VdW12
SciTegic.value.DoubleValue
5.352

@<SCITEGIC>MOL_PROPERTY
Bond
SciTegic.value.DoubleValue
0.063

@<SCITEGIC>MOL_PROPERTY
Angle
SciTegic.value.DoubleValue
2.579

@<SCITEGIC>MOL_PROPERTY
Pdih
SciTegic.value.DoubleValue
0.010

@<SCITEGIC>MOL_PROPERTY
Idih
SciTegic.value.DoubleValue
0.000

@<SCITEGIC>MOL_PROPERTY
Tether
SciTegic.value.DoubleValue
0.000

@<TRIPOS>MOLECULE
guest-s19_confgen4.mol2 : confsearch ligand conformer 346
          17          16           1
SMALL
USER_CHARGES
 
@<TRIPOS>ATOM
       1    C1      22.804809   19.495373   20.062221 C.2        1 MOL1         0.6173
       2    O1      23.656554   18.774438   20.547172 O.co2      1 MOL1        -0.6755
       3    O2      23.051792   20.330800   19.214420 O.co2      1 MOL1        -0.6755
       4    C2      21.391433   19.366603   20.509380 C.2        1 MOL1        -0.1504
       5    H1      20.680715   20.040380   20.036292 H          1 MOL1         0.0814
       6    C3      20.974120   18.482581   21.443960 C.2        1 MOL1        -0.1394
       7    H2      21.678088   17.804382   21.925883 H          1 MOL1         0.0817
       8    C4      19.534984   18.359328   21.894442 C.3        1 MOL1        -0.1849
       9    H3      19.357461   17.348659   22.286134 H          1 MOL1         0.0736
      10    H4      18.860770   18.484761   21.036241 H          1 MOL1         0.0736
      11    C5      19.194860   19.400737   22.980167 C.3        1 MOL1        -0.1866
      12    H5      19.869058   19.271870   23.838315 H          1 MOL1         0.0738
      13    H6      19.368039   20.412745   22.588493 H          1 MOL1         0.0738
      14    C6      17.732050   19.275616   23.451396 C.3        1 MOL1        -0.2879
      15    H7      17.539978   18.282057   23.877283 H          1 MOL1         0.0750
      16    H8      17.508966   20.023891   24.223048 H          1 MOL1         0.0750
      17    H9      17.035815   19.431511   22.616897 H          1 MOL1         0.0750
@<TRIPOS>BOND
    1     1     2    1
    2     1     3    2
    3     1     4    1
    4     4     5    1
    5     4     6    2
    6     6     7    1
    7     6     8    1
    8     8     9    1
    9     8    10    1
   10     8    11    1
   11    11    12    1
   12    11    13    1
   13    11    14    1
   14    14    15    1
   15    14    16    1
   16    14    17    1
@<TRIPOS>SUBSTRUCTURE
       1 MOL1            1 RESIDUE      1      MOL     
@<SCITEGIC>MOL_PROPERTY
VConf Rank
SciTegic.value.IntegerValue
346

@<SCITEGIC>MOL_PROPERTY
Conf_Id
SciTegic.value.IntegerValue
1

@<SCITEGIC>MOL_PROPERTY
Delta U+W
SciTegic.value.DoubleValue
0.030

@<SCITEGIC>MOL_PROPERTY
U+W
SciTegic.value.DoubleValue
-53.378

@<SCITEGIC>MOL_PROPERTY
Grad RMS
SciTegic.value.DoubleValue
0.000000

@<SCITEGIC>MOL_PROPERTY
U
SciTegic.value.DoubleValue
9.048

@<SCITEGIC>MOL_PROPERTY
W
SciTegic.value.DoubleValue
-62.426

@<SCITEGIC>MOL_PROPERTY
W(PB)
SciTegic.value.DoubleValue
-64.506

@<SCITEGIC>MOL_PROPERTY
W(SA)
SciTegic.value.DoubleValue
2.080

@<SCITEGIC>MOL_PROPERTY
Valence
SciTegic.value.DoubleValue
2.652

@<SCITEGIC>MOL_PROPERTY
Coulomb
SciTegic.value.DoubleValue
5.578

@<SCITEGIC>MOL_PROPERTY
VdW
SciTegic.value.DoubleValue
0.818

@<SCITEGIC>MOL_PROPERTY
VdW6
SciTegic.value.DoubleValue
-4.535

@<SCITEGIC>MOL_PROPERTY
VdW12
SciTegic.value.DoubleValue
5.352

@<SCITEGIC>MOL_PROPERTY
Bond
SciTegic.value.DoubleValue
0.063

@<SCITEGIC>MOL_PROPERTY
Angle
SciTegic.value.DoubleValue
2.579

@<SCITEGIC>MOL_PROPERTY
Pdih
SciTegic.value.DoubleValue
0.010

@<SCITEGIC>MOL_PROPERTY
Idih
SciTegic.value.DoubleValue
0.000

@<SCITEGIC>MOL_PROPERTY
Tether
SciTegic.value.DoubleValue
0.000

@<TRIPOS>MOLECULE
guest-s19_confgen4.mol2 : confsearch ligand conformer 347
          17          16           1
SMALL
USER_CHARGES
 
@<TRIPOS>ATOM
       1    C1      19.730879   21.514938   23.928610 C.2        1 MOL1         0.6173
       2    O1      20.412843   21.147283   24.866798 O.co2      1 MOL1        -0.6755
       3    O2      19.386244   22.670725   23.776310 O.co2      1 MOL1        -0.6755
       4    C2      19.283778   20.524747   22.911893 C.2        1 MOL1        -0.1504
       5    H1      18.676623   20.918912   22.100254 H          1 MOL1         0.0814
       6    C3      19.593147   19.208894   22.954411 C.2        1 MOL1        -0.1394
       7    H2      20.203622   18.803961   23.761224 H          1 MOL1         0.0817
       8    C4      19.137660   18.207601   21.913758 C.3        1 MOL1        -0.1849
       9    H3      18.096878   18.417005   21.631893 H          1 MOL1         0.0736
      10    H4      19.141195   17.196444   22.342526 H          1 MOL1         0.0736
      11    C5      20.020437   18.234242   20.646652 C.3        1 MOL1        -0.1866
      12    H5      19.582999   17.568351   19.890088 H          1 MOL1         0.0738
      13    H6      20.017883   19.244566   20.214603 H          1 MOL1         0.0738
      14    C6      21.472566   17.792873   20.928125 C.3        1 MOL1        -0.2879
      15    H7      21.500338   16.779468   21.349296 H          1 MOL1         0.0750
      16    H8      22.061770   17.791275   20.001981 H          1 MOL1         0.0750
      17    H9      21.962695   18.472513   21.637410 H          1 MOL1         0.0750
@<TRIPOS>BOND
    1     1     2    1
    2     1     3    2
    3     1     4    1
    4     4     5    1
    5     4     6    2
    6     6     7    1
    7     6     8    1
    8     8     9    1
    9     8    10    1
   10     8    11    1
   11    11    12    1
   12    11    13    1
   13    11    14    1
   14    14    15    1
   15    14    16    1
   16    14    17    1
@<TRIPOS>SUBSTRUCTURE
       1 MOL1            1 RESIDUE      1      MOL     
@<SCITEGIC>MOL_PROPERTY
VConf Rank
SciTegic.value.IntegerValue
347

@<SCITEGIC>MOL_PROPERTY
Conf_Id
SciTegic.value.IntegerValue
3

@<SCITEGIC>MOL_PROPERTY
Delta U+W
SciTegic.value.DoubleValue
0.531

@<SCITEGIC>MOL_PROPERTY
U+W
SciTegic.value.DoubleValue
-52.878

@<SCITEGIC>MOL_PROPERTY
Grad RMS
SciTegic.value.DoubleValue
0.000000

@<SCITEGIC>MOL_PROPERTY
U
SciTegic.value.DoubleValue
10.067

@<SCITEGIC>MOL_PROPERTY
W
SciTegic.value.DoubleValue
-62.945

@<SCITEGIC>MOL_PROPERTY
W(PB)
SciTegic.value.DoubleValue
-64.982

@<SCITEGIC>MOL_PROPERTY
W(SA)
SciTegic.value.DoubleValue
2.037

@<SCITEGIC>MOL_PROPERTY
Valence
SciTegic.value.DoubleValue
2.779

@<SCITEGIC>MOL_PROPERTY
Coulomb
SciTegic.value.DoubleValue
6.474

@<SCITEGIC>MOL_PROPERTY
VdW
SciTegic.value.DoubleValue
0.815

@<SCITEGIC>MOL_PROPERTY
VdW6
SciTegic.value.DoubleValue
-5.088

@<SCITEGIC>MOL_PROPERTY
VdW12
SciTegic.value.DoubleValue
5.902

@<SCITEGIC>MOL_PROPERTY
Bond
SciTegic.value.DoubleValue
0.078

@<SCITEGIC>MOL_PROPERTY
Angle
SciTegic.value.DoubleValue
2.651

@<SCITEGIC>MOL_PROPERTY
Pdih
SciTegic.value.DoubleValue
0.050

@<SCITEGIC>MOL_PROPERTY
Idih
SciTegic.value.DoubleValue
0.000

@<SCITEGIC>MOL_PROPERTY
Tether
SciTegic.value.DoubleValue
0.000

@<TRIPOS>MOLECULE
guest-s19_confgen4.mol2 : confsearch ligand conformer 348
          17          16           1
SMALL
USER_CHARGES
 
@<TRIPOS>ATOM
       1    C1      20.158576   20.952896   24.453605 C.2        1 MOL1         0.6173
       2    O1      19.270043   21.449710   25.118033 O.co2      1 MOL1        -0.6755
       3    O2      21.287178   21.405979   24.415912 O.co2      1 MOL1        -0.6755
       4    C2      19.827693   19.736442   23.663144 C.2        1 MOL1        -0.1504
       5    H1      18.801671   19.384638   23.742006 H          1 MOL1         0.0814
       6    C3      20.715297   19.082410   22.879572 C.2        1 MOL1        -0.1394
       7    H2      21.744301   19.430259   22.791992 H          1 MOL1         0.0817
       8    C4      20.374704   17.845819   22.073858 C.3        1 MOL1        -0.1849
       9    H3      19.445186   17.389522   22.440638 H          1 MOL1         0.0736
      10    H4      21.162100   17.094467   22.220446 H          1 MOL1         0.0736
      11    C5      20.244584   18.146988   20.564708 C.3        1 MOL1        -0.1866
      12    H5      21.173052   18.605898   20.197548 H          1 MOL1         0.0738
      13    H6      20.125289   17.200670   20.019319 H          1 MOL1         0.0738
      14    C6      19.047196   19.066794   20.243693 C.3        1 MOL1        -0.2879
      15    H7      19.162815   20.048652   20.720809 H          1 MOL1         0.0750
      16    H8      18.962734   19.226894   19.161057 H          1 MOL1         0.0750
      17    H9      18.106461   18.623683   20.595492 H          1 MOL1         0.0750
@<TRIPOS>BOND
    1     1     2    1
    2     1     3    2
    3     1     4    1
    4     4     5    1
    5     4     6    2
    6     6     7    1
    7     6     8    1
    8     8     9    1
    9     8    10    1
   10     8    11    1
   11    11    12    1
   12    11    13    1
   13    11    14    1
   14    14    15    1
   15    14    16    1
   16    14    17    1
@<TRIPOS>SUBSTRUCTURE
       1 MOL1            1 RESIDUE      1      MOL     
@<SCITEGIC>MOL_PROPERTY
VConf Rank
SciTegic.value.IntegerValue
348

@<SCITEGIC>MOL_PROPERTY
Conf_Id
SciTegic.value.IntegerValue
45

@<SCITEGIC>MOL_PROPERTY
Delta U+W
SciTegic.value.DoubleValue
0.562

@<SCITEGIC>MOL_PROPERTY
U+W
SciTegic.value.DoubleValue
-52.846

@<SCITEGIC>MOL_PROPERTY
Grad RMS
SciTegic.value.DoubleValue
0.000000

@<SCITEGIC>MOL_PROPERTY
U
SciTegic.value.DoubleValue
10.243

@<SCITEGIC>MOL_PROPERTY
W
SciTegic.value.DoubleValue
-63.089

@<SCITEGIC>MOL_PROPERTY
W(PB)
SciTegic.value.DoubleValue
-65.116

@<SCITEGIC>MOL_PROPERTY
W(SA)
SciTegic.value.DoubleValue
2.026

@<SCITEGIC>MOL_PROPERTY
Valence
SciTegic.value.DoubleValue
2.822

@<SCITEGIC>MOL_PROPERTY
Coulomb
SciTegic.value.DoubleValue
6.637

@<SCITEGIC>MOL_PROPERTY
VdW
SciTegic.value.DoubleValue
0.785

@<SCITEGIC>MOL_PROPERTY
VdW6
SciTegic.value.DoubleValue
-5.216

@<SCITEGIC>MOL_PROPERTY
VdW12
SciTegic.value.DoubleValue
6.001

@<SCITEGIC>MOL_PROPERTY
Bond
SciTegic.value.DoubleValue
0.080

@<SCITEGIC>MOL_PROPERTY
Angle
SciTegic.value.DoubleValue
2.678

@<SCITEGIC>MOL_PROPERTY
Pdih
SciTegic.value.DoubleValue
0.064

@<SCITEGIC>MOL_PROPERTY
Idih
SciTegic.value.DoubleValue
0.000

@<SCITEGIC>MOL_PROPERTY
Tether
SciTegic.value.DoubleValue
0.000

@<TRIPOS>MOLECULE
guest-s19_confgen4.mol2 : confsearch ligand conformer 349
          17          16           1
SMALL
USER_CHARGES
 
@<TRIPOS>ATOM
       1    C1      21.678602   18.827955   19.006049 C.2        1 MOL1         0.6173
       2    O1      22.759869   19.287770   18.694383 O.co2      1 MOL1        -0.6755
       3    O2      20.905612   18.350605   18.196717 O.co2      1 MOL1        -0.6755
       4    C2      21.307106   18.860335   20.446571 C.2        1 MOL1        -0.1504
       5    H1      22.042413   19.300057   21.116553 H          1 MOL1         0.0814
       6    C3      20.138215   18.386159   20.934358 C.2        1 MOL1        -0.1394
       7    H2      19.393441   17.945743   20.271697 H          1 MOL1         0.0817
       8    C4      19.767207   18.424887   22.400676 C.3        1 MOL1        -0.1849
       9    H3      20.651263   18.213231   23.017488 H          1 MOL1         0.0736
      10    H4      19.038401   17.632075   22.616730 H          1 MOL1         0.0736
      11    C5      19.173431   19.792973   22.794102 C.3        1 MOL1        -0.1866
      12    H5      19.903054   20.586960   22.582456 H          1 MOL1         0.0738
      13    H6      18.288213   20.001482   22.177271 H          1 MOL1         0.0738
      14    C6      18.783859   19.837464   24.285337 C.3        1 MOL1        -0.2879
      15    H7      18.030574   19.073264   24.517698 H          1 MOL1         0.0750
      16    H8      19.658668   19.662495   24.925282 H          1 MOL1         0.0750
      17    H9      18.363822   20.817579   24.546251 H          1 MOL1         0.0750
@<TRIPOS>BOND
    1     1     2    1
    2     1     3    2
    3     1     4    1
    4     4     5    1
    5     4     6    2
    6     6     7    1
    7     6     8    1
    8     8     9    1
    9     8    10    1
   10     8    11    1
   11    11    12    1
   12    11    13    1
   13    11    14    1
   14    14    15    1
   15    14    16    1
   16    14    17    1
@<TRIPOS>SUBSTRUCTURE
       1 MOL1            1 RESIDUE      1      MOL     
@<SCITEGIC>MOL_PROPERTY
VConf Rank
SciTegic.value.IntegerValue
349

@<SCITEGIC>MOL_PROPERTY
Conf_Id
SciTegic.value.IntegerValue
36

@<SCITEGIC>MOL_PROPERTY
Delta U+W
SciTegic.value.DoubleValue
0.000

@<SCITEGIC>MOL_PROPERTY
U+W
SciTegic.value.DoubleValue
-53.409

@<SCITEGIC>MOL_PROPERTY
Grad RMS
SciTegic.value.DoubleValue
0.000000

@<SCITEGIC>MOL_PROPERTY
U
SciTegic.value.DoubleValue
9.048

@<SCITEGIC>MOL_PROPERTY
W
SciTegic.value.DoubleValue
-62.457

@<SCITEGIC>MOL_PROPERTY
W(PB)
SciTegic.value.DoubleValue
-64.540

@<SCITEGIC>MOL_PROPERTY
W(SA)
SciTegic.value.DoubleValue
2.084

@<SCITEGIC>MOL_PROPERTY
Valence
SciTegic.value.DoubleValue
2.652

@<SCITEGIC>MOL_PROPERTY
Coulomb
SciTegic.value.DoubleValue
5.578

@<SCITEGIC>MOL_PROPERTY
VdW
SciTegic.value.DoubleValue
0.818

@<SCITEGIC>MOL_PROPERTY
VdW6
SciTegic.value.DoubleValue
-4.534

@<SCITEGIC>MOL_PROPERTY
VdW12
SciTegic.value.DoubleValue
5.352

@<SCITEGIC>MOL_PROPERTY
Bond
SciTegic.value.DoubleValue
0.063

@<SCITEGIC>MOL_PROPERTY
Angle
SciTegic.value.DoubleValue
2.579

@<SCITEGIC>MOL_PROPERTY
Pdih
SciTegic.value.DoubleValue
0.010

@<SCITEGIC>MOL_PROPERTY
Idih
SciTegic.value.DoubleValue
0.000

@<SCITEGIC>MOL_PROPERTY
Tether
SciTegic.value.DoubleValue
0.000

@<TRIPOS>MOLECULE
guest-s19_confgen4.mol2 : confsearch ligand conformer 350
          17          16           1
SMALL
USER_CHARGES
 
@<TRIPOS>ATOM
       1    C1      20.774248   20.974184   24.608419 C.2        1 MOL1         0.6173
       2    O1      20.183632   20.488927   25.555040 O.co2      1 MOL1        -0.6755
       3    O2      21.331638   22.053193   24.660961 O.co2      1 MOL1        -0.6755
       4    C2      20.831844   20.232626   23.319645 C.2        1 MOL1        -0.1504
       5    H1      21.375136   20.721892   22.514436 H          1 MOL1         0.0814
       6    C3      20.256842   19.025155   23.118470 C.2        1 MOL1        -0.1394
       7    H2      19.708289   18.526990   23.917654 H          1 MOL1         0.0817
       8    C4      20.318541   18.278494   21.803963 C.3        1 MOL1        -0.1849
       9    H3      20.195312   17.202374   21.986082 H          1 MOL1         0.0736
      10    H4      21.308594   18.406482   21.345465 H          1 MOL1         0.0736
      11    C5      19.226689   18.765359   20.829365 C.3        1 MOL1        -0.1866
      12    H5      18.237318   18.634328   21.289303 H          1 MOL1         0.0738
      13    H6      19.351040   19.841142   20.642855 H          1 MOL1         0.0738
      14    C6      19.276968   18.002629   19.490246 C.3        1 MOL1        -0.2879
      15    H7      19.123440   16.926548   19.644877 H          1 MOL1         0.0750
      16    H8      18.493541   18.362411   18.810593 H          1 MOL1         0.0750
      17    H9      20.246422   18.142999   18.994371 H          1 MOL1         0.0750
@<TRIPOS>BOND
    1     1     2    1
    2     1     3    2
    3     1     4    1
    4     4     5    1
    5     4     6    2
    6     6     7    1
    7     6     8    1
    8     8     9    1
    9     8    10    1
   10     8    11    1
   11    11    12    1
   12    11    13    1
   13    11    14    1
   14    14    15    1
   15    14    16    1
   16    14    17    1
@<TRIPOS>SUBSTRUCTURE
       1 MOL1            1 RESIDUE      1      MOL     
@<SCITEGIC>MOL_PROPERTY
VConf Rank
SciTegic.value.IntegerValue
350

@<SCITEGIC>MOL_PROPERTY
Conf_Id
SciTegic.value.IntegerValue
1

@<SCITEGIC>MOL_PROPERTY
Delta U+W
SciTegic.value.DoubleValue
0.030

@<SCITEGIC>MOL_PROPERTY
U+W
SciTegic.value.DoubleValue
-53.378

@<SCITEGIC>MOL_PROPERTY
Grad RMS
SciTegic.value.DoubleValue
0.000000

@<SCITEGIC>MOL_PROPERTY
U
SciTegic.value.DoubleValue
9.048

@<SCITEGIC>MOL_PROPERTY
W
SciTegic.value.DoubleValue
-62.426

@<SCITEGIC>MOL_PROPERTY
W(PB)
SciTegic.value.DoubleValue
-64.506

@<SCITEGIC>MOL_PROPERTY
W(SA)
SciTegic.value.DoubleValue
2.080

@<SCITEGIC>MOL_PROPERTY
Valence
SciTegic.value.DoubleValue
2.652

@<SCITEGIC>MOL_PROPERTY
Coulomb
SciTegic.value.DoubleValue
5.578

@<SCITEGIC>MOL_PROPERTY
VdW
SciTegic.value.DoubleValue
0.818

@<SCITEGIC>MOL_PROPERTY
VdW6
SciTegic.value.DoubleValue
-4.535

@<SCITEGIC>MOL_PROPERTY
VdW12
SciTegic.value.DoubleValue
5.352

@<SCITEGIC>MOL_PROPERTY
Bond
SciTegic.value.DoubleValue
0.063

@<SCITEGIC>MOL_PROPERTY
Angle
SciTegic.value.DoubleValue
2.579

@<SCITEGIC>MOL_PROPERTY
Pdih
SciTegic.value.DoubleValue
0.010

@<SCITEGIC>MOL_PROPERTY
Idih
SciTegic.value.DoubleValue
0.000

@<SCITEGIC>MOL_PROPERTY
Tether
SciTegic.value.DoubleValue
0.000

@<TRIPOS>MOLECULE
guest-s19_confgen4.mol2 : confsearch ligand conformer 351
          17          16           1
SMALL
USER_CHARGES
 
@<TRIPOS>ATOM
       1    C1      21.250700   16.265608   22.159402 C.2        1 MOL1         0.6173
       2    O1      20.325289   15.605021   21.726181 O.co2      1 MOL1        -0.6755
       3    O2      22.385557   15.837552   22.241124 O.co2      1 MOL1        -0.6755
       4    C2      21.007281   17.659835   22.618714 C.2        1 MOL1        -0.1504
       5    H1      21.876465   18.194196   22.995197 H          1 MOL1         0.0814
       6    C3      19.797977   18.264314   22.584423 C.2        1 MOL1        -0.1394
       7    H2      18.921145   17.739343   22.206048 H          1 MOL1         0.0817
       8    C4      19.558603   19.685183   23.050087 C.3        1 MOL1        -0.1849
       9    H3      20.130388   19.872877   23.968977 H          1 MOL1         0.0736
      10    H4      18.501011   19.817529   23.315189 H          1 MOL1         0.0736
      11    C5      19.957981   20.728336   21.983367 C.3        1 MOL1        -0.1866
      12    H5      19.863097   21.735304   22.412513 H          1 MOL1         0.0738
      13    H6      21.016172   20.599200   21.716940 H          1 MOL1         0.0738
      14    C6      19.087022   20.637587   20.712183 C.3        1 MOL1        -0.2879
      15    H7      18.025029   20.776513   20.953046 H          1 MOL1         0.0750
      16    H8      19.375224   21.413120   19.990799 H          1 MOL1         0.0750
      17    H9      19.202614   19.662279   20.221640 H          1 MOL1         0.0750
@<TRIPOS>BOND
    1     1     2    1
    2     1     3    2
    3     1     4    1
    4     4     5    1
    5     4     6    2
    6     6     7    1
    7     6     8    1
    8     8     9    1
    9     8    10    1
   10     8    11    1
   11    11    12    1
   12    11    13    1
   13    11    14    1
   14    14    15    1
   15    14    16    1
   16    14    17    1
@<TRIPOS>SUBSTRUCTURE
       1 MOL1            1 RESIDUE      1      MOL     
@<SCITEGIC>MOL_PROPERTY
VConf Rank
SciTegic.value.IntegerValue
351

@<SCITEGIC>MOL_PROPERTY
Conf_Id
SciTegic.value.IntegerValue
3

@<SCITEGIC>MOL_PROPERTY
Delta U+W
SciTegic.value.DoubleValue
0.531

@<SCITEGIC>MOL_PROPERTY
U+W
SciTegic.value.DoubleValue
-52.878

@<SCITEGIC>MOL_PROPERTY
Grad RMS
SciTegic.value.DoubleValue
0.000000

@<SCITEGIC>MOL_PROPERTY
U
SciTegic.value.DoubleValue
10.067

@<SCITEGIC>MOL_PROPERTY
W
SciTegic.value.DoubleValue
-62.945

@<SCITEGIC>MOL_PROPERTY
W(PB)
SciTegic.value.DoubleValue
-64.982

@<SCITEGIC>MOL_PROPERTY
W(SA)
SciTegic.value.DoubleValue
2.037

@<SCITEGIC>MOL_PROPERTY
Valence
SciTegic.value.DoubleValue
2.779

@<SCITEGIC>MOL_PROPERTY
Coulomb
SciTegic.value.DoubleValue
6.474

@<SCITEGIC>MOL_PROPERTY
VdW
SciTegic.value.DoubleValue
0.815

@<SCITEGIC>MOL_PROPERTY
VdW6
SciTegic.value.DoubleValue
-5.088

@<SCITEGIC>MOL_PROPERTY
VdW12
SciTegic.value.DoubleValue
5.902

@<SCITEGIC>MOL_PROPERTY
Bond
SciTegic.value.DoubleValue
0.078

@<SCITEGIC>MOL_PROPERTY
Angle
SciTegic.value.DoubleValue
2.651

@<SCITEGIC>MOL_PROPERTY
Pdih
SciTegic.value.DoubleValue
0.050

@<SCITEGIC>MOL_PROPERTY
Idih
SciTegic.value.DoubleValue
0.000

@<SCITEGIC>MOL_PROPERTY
Tether
SciTegic.value.DoubleValue
0.000

@<TRIPOS>MOLECULE
guest-s19_confgen4.mol2 : confsearch ligand conformer 352
          17          16           1
SMALL
USER_CHARGES
 
@<TRIPOS>ATOM
       1    C1      18.956478   16.370366   21.283761 C.2        1 MOL1         0.6173
       2    O1      18.552757   15.461329   21.982648 O.co2      1 MOL1        -0.6755
       3    O2      19.353918   16.202282   20.146116 O.co2      1 MOL1        -0.6755
       4    C2      18.951574   17.739567   21.866286 C.2        1 MOL1        -0.1504
       5    H1      18.583946   17.819099   22.886693 H          1 MOL1         0.0814
       6    C3      19.373796   18.841372   21.204970 C.2        1 MOL1        -0.1394
       7    H2      19.747068   18.770078   20.183646 H          1 MOL1         0.0817
       8    C4      19.370160   20.233584   21.801685 C.3        1 MOL1        -0.1849
       9    H3      18.715664   20.274564   22.682989 H          1 MOL1         0.0736
      10    H4      18.943971   20.935075   21.072108 H          1 MOL1         0.0736
      11    C5      20.788021   20.710409   22.185710 C.3        1 MOL1        -0.1866
      12    H5      21.444081   20.667219   21.305268 H          1 MOL1         0.0738
      13    H6      20.741224   21.764911   22.490723 H          1 MOL1         0.0738
      14    C6      21.402718   19.881649   23.333811 C.3        1 MOL1        -0.2879
      15    H7      21.525352   18.830519   23.042025 H          1 MOL1         0.0750
      16    H8      22.391665   20.272717   23.605683 H          1 MOL1         0.0750
      17    H9      20.766487   19.916981   24.227710 H          1 MOL1         0.0750
@<TRIPOS>BOND
    1     1     2    1
    2     1     3    2
    3     1     4    1
    4     4     5    1
    5     4     6    2
    6     6     7    1
    7     6     8    1
    8     8     9    1
    9     8    10    1
   10     8    11    1
   11    11    12    1
   12    11    13    1
   13    11    14    1
   14    14    15    1
   15    14    16    1
   16    14    17    1
@<TRIPOS>SUBSTRUCTURE
       1 MOL1            1 RESIDUE      1      MOL     
@<SCITEGIC>MOL_PROPERTY
VConf Rank
SciTegic.value.IntegerValue
352

@<SCITEGIC>MOL_PROPERTY
Conf_Id
SciTegic.value.IntegerValue
45

@<SCITEGIC>MOL_PROPERTY
Delta U+W
SciTegic.value.DoubleValue
0.562

@<SCITEGIC>MOL_PROPERTY
U+W
SciTegic.value.DoubleValue
-52.846

@<SCITEGIC>MOL_PROPERTY
Grad RMS
SciTegic.value.DoubleValue
0.000000

@<SCITEGIC>MOL_PROPERTY
U
SciTegic.value.DoubleValue
10.243

@<SCITEGIC>MOL_PROPERTY
W
SciTegic.value.DoubleValue
-63.089

@<SCITEGIC>MOL_PROPERTY
W(PB)
SciTegic.value.DoubleValue
-65.116

@<SCITEGIC>MOL_PROPERTY
W(SA)
SciTegic.value.DoubleValue
2.026

@<SCITEGIC>MOL_PROPERTY
Valence
SciTegic.value.DoubleValue
2.822

@<SCITEGIC>MOL_PROPERTY
Coulomb
SciTegic.value.DoubleValue
6.637

@<SCITEGIC>MOL_PROPERTY
VdW
SciTegic.value.DoubleValue
0.785

@<SCITEGIC>MOL_PROPERTY
VdW6
SciTegic.value.DoubleValue
-5.216

@<SCITEGIC>MOL_PROPERTY
VdW12
SciTegic.value.DoubleValue
6.001

@<SCITEGIC>MOL_PROPERTY
Bond
SciTegic.value.DoubleValue
0.080

@<SCITEGIC>MOL_PROPERTY
Angle
SciTegic.value.DoubleValue
2.678

@<SCITEGIC>MOL_PROPERTY
Pdih
SciTegic.value.DoubleValue
0.064

@<SCITEGIC>MOL_PROPERTY
Idih
SciTegic.value.DoubleValue
0.000

@<SCITEGIC>MOL_PROPERTY
Tether
SciTegic.value.DoubleValue
0.000

@<TRIPOS>MOLECULE
guest-s19_confgen4.mol2 : confsearch ligand conformer 353
          17          16           1
SMALL
USER_CHARGES
 
@<TRIPOS>ATOM
       1    C1      17.068169   18.530957   20.339302 C.2        1 MOL1         0.6173
       2    O1      15.969757   19.005004   20.554881 O.co2      1 MOL1        -0.6755
       3    O2      17.240447   17.560533   19.625865 O.co2      1 MOL1        -0.6755
       4    C2      18.238032   19.184367   20.986325 C.2        1 MOL1        -0.1504
       5    H1      18.014818   20.046355   21.610874 H          1 MOL1         0.0814
       6    C3      19.514649   18.763934   20.836099 C.2        1 MOL1        -0.1394
       7    H2      19.749293   17.899973   20.214579 H          1 MOL1         0.0817
       8    C4      20.698596   19.432858   21.499461 C.3        1 MOL1        -0.1849
       9    H3      20.562478   20.522941   21.499804 H          1 MOL1         0.0736
      10    H4      21.608235   19.231754   20.917653 H          1 MOL1         0.0736
      11    C5      20.889562   18.931678   22.945616 C.3        1 MOL1        -0.1866
      12    H5      19.981795   19.135943   23.530248 H          1 MOL1         0.0738
      13    H6      21.027541   17.841485   22.942484 H          1 MOL1         0.0738
      14    C6      22.100272   19.601863   23.625734 C.3        1 MOL1        -0.2879
      15    H7      23.027361   19.386747   23.078319 H          1 MOL1         0.0750
      16    H8      21.972797   20.691479   23.669570 H          1 MOL1         0.0750
      17    H9      22.219948   19.233166   24.652803 H          1 MOL1         0.0750
@<TRIPOS>BOND
    1     1     2    1
    2     1     3    2
    3     1     4    1
    4     4     5    1
    5     4     6    2
    6     6     7    1
    7     6     8    1
    8     8     9    1
    9     8    10    1
   10     8    11    1
   11    11    12    1
   12    11    13    1
   13    11    14    1
   14    14    15    1
   15    14    16    1
   16    14    17    1
@<TRIPOS>SUBSTRUCTURE
       1 MOL1            1 RESIDUE      1      MOL     
@<SCITEGIC>MOL_PROPERTY
VConf Rank
SciTegic.value.IntegerValue
353

@<SCITEGIC>MOL_PROPERTY
Conf_Id
SciTegic.value.IntegerValue
36

@<SCITEGIC>MOL_PROPERTY
Delta U+W
SciTegic.value.DoubleValue
0.000

@<SCITEGIC>MOL_PROPERTY
U+W
SciTegic.value.DoubleValue
-53.409

@<SCITEGIC>MOL_PROPERTY
Grad RMS
SciTegic.value.DoubleValue
0.000000

@<SCITEGIC>MOL_PROPERTY
U
SciTegic.value.DoubleValue
9.048

@<SCITEGIC>MOL_PROPERTY
W
SciTegic.value.DoubleValue
-62.457

@<SCITEGIC>MOL_PROPERTY
W(PB)
SciTegic.value.DoubleValue
-64.540

@<SCITEGIC>MOL_PROPERTY
W(SA)
SciTegic.value.DoubleValue
2.084

@<SCITEGIC>MOL_PROPERTY
Valence
SciTegic.value.DoubleValue
2.652

@<SCITEGIC>MOL_PROPERTY
Coulomb
SciTegic.value.DoubleValue
5.578

@<SCITEGIC>MOL_PROPERTY
VdW
SciTegic.value.DoubleValue
0.818

@<SCITEGIC>MOL_PROPERTY
VdW6
SciTegic.value.DoubleValue
-4.534

@<SCITEGIC>MOL_PROPERTY
VdW12
SciTegic.value.DoubleValue
5.352

@<SCITEGIC>MOL_PROPERTY
Bond
SciTegic.value.DoubleValue
0.063

@<SCITEGIC>MOL_PROPERTY
Angle
SciTegic.value.DoubleValue
2.579

@<SCITEGIC>MOL_PROPERTY
Pdih
SciTegic.value.DoubleValue
0.010

@<SCITEGIC>MOL_PROPERTY
Idih
SciTegic.value.DoubleValue
0.000

@<SCITEGIC>MOL_PROPERTY
Tether
SciTegic.value.DoubleValue
0.000

@<TRIPOS>MOLECULE
guest-s19_confgen4.mol2 : confsearch ligand conformer 354
          17          16           1
SMALL
USER_CHARGES
 
@<TRIPOS>ATOM
       1    C1      22.681708   20.064074   20.091853 C.2        1 MOL1         0.6173
       2    O1      23.412473   20.685549   20.840281 O.co2      1 MOL1        -0.6755
       3    O2      22.843718   20.031735   18.887522 O.co2      1 MOL1        -0.6755
       4    C2      21.533408   19.301187   20.651828 C.2        1 MOL1        -0.1504
       5    H1      20.920237   18.767858   19.928992 H          1 MOL1         0.0814
       6    C3      21.233813   19.249289   21.969642 C.2        1 MOL1        -0.1394
       7    H2      21.840159   19.781637   22.702256 H          1 MOL1         0.0817
       8    C4      20.062922   18.472491   22.530747 C.3        1 MOL1        -0.1849
       9    H3      20.263924   18.209632   23.578073 H          1 MOL1         0.0736
      10    H4      19.946074   17.524791   21.987593 H          1 MOL1         0.0736
      11    C5      18.755572   19.286398   22.444673 C.3        1 MOL1        -0.1866
      12    H5      18.874197   20.232772   22.990450 H          1 MOL1         0.0738
      13    H6      18.550818   19.546734   21.396885 H          1 MOL1         0.0738
      14    C6      17.558782   18.505017   23.023173 C.3        1 MOL1        -0.2879
      15    H7      17.723957   18.259246   24.080408 H          1 MOL1         0.0750
      16    H8      16.638573   19.099548   22.953315 H          1 MOL1         0.0750
      17    H9      17.399158   17.567775   22.474054 H          1 MOL1         0.0750
@<TRIPOS>BOND
    1     1     2    1
    2     1     3    2
    3     1     4    1
    4     4     5    1
    5     4     6    2
    6     6     7    1
    7     6     8    1
    8     8     9    1
    9     8    10    1
   10     8    11    1
   11    11    12    1
   12    11    13    1
   13    11    14    1
   14    14    15    1
   15    14    16    1
   16    14    17    1
@<TRIPOS>SUBSTRUCTURE
       1 MOL1            1 RESIDUE      1      MOL     
@<SCITEGIC>MOL_PROPERTY
VConf Rank
SciTegic.value.IntegerValue
354

@<SCITEGIC>MOL_PROPERTY
Conf_Id
SciTegic.value.IntegerValue
1

@<SCITEGIC>MOL_PROPERTY
Delta U+W
SciTegic.value.DoubleValue
0.030

@<SCITEGIC>MOL_PROPERTY
U+W
SciTegic.value.DoubleValue
-53.378

@<SCITEGIC>MOL_PROPERTY
Grad RMS
SciTegic.value.DoubleValue
0.000000

@<SCITEGIC>MOL_PROPERTY
U
SciTegic.value.DoubleValue
9.048

@<SCITEGIC>MOL_PROPERTY
W
SciTegic.value.DoubleValue
-62.426

@<SCITEGIC>MOL_PROPERTY
W(PB)
SciTegic.value.DoubleValue
-64.506

@<SCITEGIC>MOL_PROPERTY
W(SA)
SciTegic.value.DoubleValue
2.080

@<SCITEGIC>MOL_PROPERTY
Valence
SciTegic.value.DoubleValue
2.652

@<SCITEGIC>MOL_PROPERTY
Coulomb
SciTegic.value.DoubleValue
5.578

@<SCITEGIC>MOL_PROPERTY
VdW
SciTegic.value.DoubleValue
0.818

@<SCITEGIC>MOL_PROPERTY
VdW6
SciTegic.value.DoubleValue
-4.535

@<SCITEGIC>MOL_PROPERTY
VdW12
SciTegic.value.DoubleValue
5.352

@<SCITEGIC>MOL_PROPERTY
Bond
SciTegic.value.DoubleValue
0.063

@<SCITEGIC>MOL_PROPERTY
Angle
SciTegic.value.DoubleValue
2.579

@<SCITEGIC>MOL_PROPERTY
Pdih
SciTegic.value.DoubleValue
0.010

@<SCITEGIC>MOL_PROPERTY
Idih
SciTegic.value.DoubleValue
0.000

@<SCITEGIC>MOL_PROPERTY
Tether
SciTegic.value.DoubleValue
0.000

@<TRIPOS>MOLECULE
guest-s19_confgen4.mol2 : confsearch ligand conformer 355
          17          16           1
SMALL
USER_CHARGES
 
@<TRIPOS>ATOM
       1    C1      18.119650   18.041078   24.242627 C.2        1 MOL1         0.6173
       2    O1      17.099147   18.636419   23.951794 O.co2      1 MOL1        -0.6755
       3    O2      18.134606   17.084683   24.992891 O.co2      1 MOL1        -0.6755
       4    C2      19.419125   18.486192   23.670500 C.2        1 MOL1        -0.1504
       5    H1      20.292071   17.911696   23.971631 H          1 MOL1         0.0814
       6    C3      19.550796   19.531924   22.823095 C.2        1 MOL1        -0.1394
       7    H2      18.682384   20.112263   22.512186 H          1 MOL1         0.0817
       8    C4      20.876359   19.976762   22.241703 C.3        1 MOL1        -0.1849
       9    H3      21.654467   19.922649   23.015103 H          1 MOL1         0.0736
      10    H4      20.816494   21.031390   21.940922 H          1 MOL1         0.0736
      11    C5      21.304966   19.118189   21.031451 C.3        1 MOL1        -0.1866
      12    H5      22.315532   19.416025   20.719676 H          1 MOL1         0.0738
      13    H6      21.366956   18.062417   21.329664 H          1 MOL1         0.0738
      14    C6      20.343610   19.264191   19.832622 C.3        1 MOL1        -0.2879
      15    H7      20.275672   20.310981   19.508957 H          1 MOL1         0.0750
      16    H8      20.695817   18.668208   18.980764 H          1 MOL1         0.0750
      17    H9      19.333902   18.918733   20.090247 H          1 MOL1         0.0750
@<TRIPOS>BOND
    1     1     2    1
    2     1     3    2
    3     1     4    1
    4     4     5    1
    5     4     6    2
    6     6     7    1
    7     6     8    1
    8     8     9    1
    9     8    10    1
   10     8    11    1
   11    11    12    1
   12    11    13    1
   13    11    14    1
   14    14    15    1
   15    14    16    1
   16    14    17    1
@<TRIPOS>SUBSTRUCTURE
       1 MOL1            1 RESIDUE      1      MOL     
@<SCITEGIC>MOL_PROPERTY
VConf Rank
SciTegic.value.IntegerValue
355

@<SCITEGIC>MOL_PROPERTY
Conf_Id
SciTegic.value.IntegerValue
3

@<SCITEGIC>MOL_PROPERTY
Delta U+W
SciTegic.value.DoubleValue
0.531

@<SCITEGIC>MOL_PROPERTY
U+W
SciTegic.value.DoubleValue
-52.878

@<SCITEGIC>MOL_PROPERTY
Grad RMS
SciTegic.value.DoubleValue
0.000000

@<SCITEGIC>MOL_PROPERTY
U
SciTegic.value.DoubleValue
10.067

@<SCITEGIC>MOL_PROPERTY
W
SciTegic.value.DoubleValue
-62.945

@<SCITEGIC>MOL_PROPERTY
W(PB)
SciTegic.value.DoubleValue
-64.982

@<SCITEGIC>MOL_PROPERTY
W(SA)
SciTegic.value.DoubleValue
2.037

@<SCITEGIC>MOL_PROPERTY
Valence
SciTegic.value.DoubleValue
2.779

@<SCITEGIC>MOL_PROPERTY
Coulomb
SciTegic.value.DoubleValue
6.474

@<SCITEGIC>MOL_PROPERTY
VdW
SciTegic.value.DoubleValue
0.815

@<SCITEGIC>MOL_PROPERTY
VdW6
SciTegic.value.DoubleValue
-5.088

@<SCITEGIC>MOL_PROPERTY
VdW12
SciTegic.value.DoubleValue
5.902

@<SCITEGIC>MOL_PROPERTY
Bond
SciTegic.value.DoubleValue
0.078

@<SCITEGIC>MOL_PROPERTY
Angle
SciTegic.value.DoubleValue
2.651

@<SCITEGIC>MOL_PROPERTY
Pdih
SciTegic.value.DoubleValue
0.050

@<SCITEGIC>MOL_PROPERTY
Idih
SciTegic.value.DoubleValue
0.000

@<SCITEGIC>MOL_PROPERTY
Tether
SciTegic.value.DoubleValue
0.000

@<TRIPOS>MOLECULE
guest-s19_confgen4.mol2 : confsearch ligand conformer 356
          17          16           1
SMALL
USER_CHARGES
 
@<TRIPOS>ATOM
       1    C1      20.480437   22.005176   21.427025 C.2        1 MOL1         0.6173
       2    O1      21.367096   22.742470   21.811752 O.co2      1 MOL1        -0.6755
       3    O2      19.425601   22.417151   20.982001 O.co2      1 MOL1        -0.6755
       4    C2      20.720632   20.539129   21.511188 C.2        1 MOL1        -0.1504
       5    H1      21.683498   20.239292   21.918243 H          1 MOL1         0.0814
       6    C3      19.823185   19.604915   21.122064 C.2        1 MOL1        -0.1394
       7    H2      18.854680   19.896607   20.716563 H          1 MOL1         0.0817
       8    C4      20.069548   18.113059   21.211551 C.3        1 MOL1        -0.1849
       9    H3      21.141547   17.904899   21.330831 H          1 MOL1         0.0736
      10    H4      19.770837   17.643096   20.265023 H          1 MOL1         0.0736
      11    C5      19.281926   17.457164   22.366808 C.3        1 MOL1        -0.1866
      12    H5      18.209706   17.667140   22.249703 H          1 MOL1         0.0738
      13    H6      19.396619   16.366202   22.304807 H          1 MOL1         0.0738
      14    C6      19.756980   17.934613   23.755764 C.3        1 MOL1        -0.2879
      15    H7      19.597803   19.013683   23.879551 H          1 MOL1         0.0750
      16    H8      19.203124   17.419586   24.551288 H          1 MOL1         0.0750
      17    H9      20.825659   17.727539   23.897670 H          1 MOL1         0.0750
@<TRIPOS>BOND
    1     1     2    1
    2     1     3    2
    3     1     4    1
    4     4     5    1
    5     4     6    2
    6     6     7    1
    7     6     8    1
    8     8     9    1
    9     8    10    1
   10     8    11    1
   11    11    12    1
   12    11    13    1
   13    11    14    1
   14    14    15    1
   15    14    16    1
   16    14    17    1
@<TRIPOS>SUBSTRUCTURE
       1 MOL1            1 RESIDUE      1      MOL     
@<SCITEGIC>MOL_PROPERTY
VConf Rank
SciTegic.value.IntegerValue
356

@<SCITEGIC>MOL_PROPERTY
Conf_Id
SciTegic.value.IntegerValue
45

@<SCITEGIC>MOL_PROPERTY
Delta U+W
SciTegic.value.DoubleValue
0.562

@<SCITEGIC>MOL_PROPERTY
U+W
SciTegic.value.DoubleValue
-52.846

@<SCITEGIC>MOL_PROPERTY
Grad RMS
SciTegic.value.DoubleValue
0.000000

@<SCITEGIC>MOL_PROPERTY
U
SciTegic.value.DoubleValue
10.243

@<SCITEGIC>MOL_PROPERTY
W
SciTegic.value.DoubleValue
-63.089

@<SCITEGIC>MOL_PROPERTY
W(PB)
SciTegic.value.DoubleValue
-65.116

@<SCITEGIC>MOL_PROPERTY
W(SA)
SciTegic.value.DoubleValue
2.026

@<SCITEGIC>MOL_PROPERTY
Valence
SciTegic.value.DoubleValue
2.822

@<SCITEGIC>MOL_PROPERTY
Coulomb
SciTegic.value.DoubleValue
6.637

@<SCITEGIC>MOL_PROPERTY
VdW
SciTegic.value.DoubleValue
0.785

@<SCITEGIC>MOL_PROPERTY
VdW6
SciTegic.value.DoubleValue
-5.216

@<SCITEGIC>MOL_PROPERTY
VdW12
SciTegic.value.DoubleValue
6.001

@<SCITEGIC>MOL_PROPERTY
Bond
SciTegic.value.DoubleValue
0.080

@<SCITEGIC>MOL_PROPERTY
Angle
SciTegic.value.DoubleValue
2.678

@<SCITEGIC>MOL_PROPERTY
Pdih
SciTegic.value.DoubleValue
0.064

@<SCITEGIC>MOL_PROPERTY
Idih
SciTegic.value.DoubleValue
0.000

@<SCITEGIC>MOL_PROPERTY
Tether
SciTegic.value.DoubleValue
0.000

@<TRIPOS>MOLECULE
guest-s19_confgen4.mol2 : confsearch ligand conformer 357
          17          16           1
SMALL
USER_CHARGES
 
@<TRIPOS>ATOM
       1    C1      22.278336   16.690573   21.398750 C.2        1 MOL1         0.6173
       2    O1      23.387810   16.563980   21.879109 O.co2      1 MOL1        -0.6755
       3    O2      21.893333   16.040676   20.444915 O.co2      1 MOL1        -0.6755
       4    C2      21.368833   17.689358   22.022765 C.2        1 MOL1        -0.1504
       5    H1      21.774586   18.235934   22.871015 H          1 MOL1         0.0814
       6    C3      20.110509   17.935313   21.592402 C.2        1 MOL1        -0.1394
       7    H2      19.694857   17.395139   20.741979 H          1 MOL1         0.0817
       8    C4      19.192719   18.954448   22.231357 C.3        1 MOL1        -0.1849
       9    H3      19.319478   18.942086   23.322498 H          1 MOL1         0.0736
      10    H4      18.146996   18.681750   22.035182 H          1 MOL1         0.0736
      11    C5      19.466090   20.373235   21.691612 C.3        1 MOL1        -0.1866
      12    H5      20.510915   20.649287   21.890855 H          1 MOL1         0.0738
      13    H6      19.336691   20.383530   20.600412 H          1 MOL1         0.0738
      14    C6      18.528139   21.416698   22.331110 C.3        1 MOL1        -0.2879
      15    H7      17.476665   21.181732   22.119867 H          1 MOL1         0.0750
      16    H8      18.660331   21.448317   23.420588 H          1 MOL1         0.0750
      17    H9      18.737464   22.418981   21.935203 H          1 MOL1         0.0750
@<TRIPOS>BOND
    1     1     2    1
    2     1     3    2
    3     1     4    1
    4     4     5    1
    5     4     6    2
    6     6     7    1
    7     6     8    1
    8     8     9    1
    9     8    10    1
   10     8    11    1
   11    11    12    1
   12    11    13    1
   13    11    14    1
   14    14    15    1
   15    14    16    1
   16    14    17    1
@<TRIPOS>SUBSTRUCTURE
       1 MOL1            1 RESIDUE      1      MOL     
@<SCITEGIC>MOL_PROPERTY
VConf Rank
SciTegic.value.IntegerValue
357

@<SCITEGIC>MOL_PROPERTY
Conf_Id
SciTegic.value.IntegerValue
36

@<SCITEGIC>MOL_PROPERTY
Delta U+W
SciTegic.value.DoubleValue
0.000

@<SCITEGIC>MOL_PROPERTY
U+W
SciTegic.value.DoubleValue
-53.409

@<SCITEGIC>MOL_PROPERTY
Grad RMS
SciTegic.value.DoubleValue
0.000000

@<SCITEGIC>MOL_PROPERTY
U
SciTegic.value.DoubleValue
9.048

@<SCITEGIC>MOL_PROPERTY
W
SciTegic.value.DoubleValue
-62.457

@<SCITEGIC>MOL_PROPERTY
W(PB)
SciTegic.value.DoubleValue
-64.540

@<SCITEGIC>MOL_PROPERTY
W(SA)
SciTegic.value.DoubleValue
2.084

@<SCITEGIC>MOL_PROPERTY
Valence
SciTegic.value.DoubleValue
2.652

@<SCITEGIC>MOL_PROPERTY
Coulomb
SciTegic.value.DoubleValue
5.578

@<SCITEGIC>MOL_PROPERTY
VdW
SciTegic.value.DoubleValue
0.818

@<SCITEGIC>MOL_PROPERTY
VdW6
SciTegic.value.DoubleValue
-4.534

@<SCITEGIC>MOL_PROPERTY
VdW12
SciTegic.value.DoubleValue
5.352

@<SCITEGIC>MOL_PROPERTY
Bond
SciTegic.value.DoubleValue
0.063

@<SCITEGIC>MOL_PROPERTY
Angle
SciTegic.value.DoubleValue
2.579

@<SCITEGIC>MOL_PROPERTY
Pdih
SciTegic.value.DoubleValue
0.010

@<SCITEGIC>MOL_PROPERTY
Idih
SciTegic.value.DoubleValue
0.000

@<SCITEGIC>MOL_PROPERTY
Tether
SciTegic.value.DoubleValue
0.000

@<TRIPOS>MOLECULE
guest-s19_confgen4.mol2 : confsearch ligand conformer 358
          17          16           1
SMALL
USER_CHARGES
 
@<TRIPOS>ATOM
       1    C1      16.943953   19.940087   20.802455 C.2        1 MOL1         0.6173
       2    O1      17.006960   19.979325   19.588007 O.co2      1 MOL1        -0.6755
       3    O2      15.986441   20.352829   21.427372 O.co2      1 MOL1        -0.6755
       4    C2      18.075573   19.364914   21.578842 C.2        1 MOL1        -0.1504
       5    H1      17.955455   19.359882   22.659793 H          1 MOL1         0.0814
       6    C3      19.201699   18.870810   21.016004 C.2        1 MOL1        -0.1394
       7    H2      19.333384   18.872925   19.934140 H          1 MOL1         0.0817
       8    C4      20.348799   18.289266   21.813003 C.3        1 MOL1        -0.1849
       9    H3      20.910138   17.582216   21.187411 H          1 MOL1         0.0736
      10    H4      19.960768   17.713447   22.664279 H          1 MOL1         0.0736
      11    C5      21.297225   19.394400   22.321122 C.3        1 MOL1        -0.1866
      12    H5      21.685690   19.967515   21.467775 H          1 MOL1         0.0738
      13    H6      20.737981   20.100469   22.950625 H          1 MOL1         0.0738
      14    C6      22.474401   18.808979   23.126766 C.3        1 MOL1        -0.2879
      15    H7      23.069771   18.122716   22.510318 H          1 MOL1         0.0750
      16    H8      23.137624   19.609479   23.479562 H          1 MOL1         0.0750
      17    H9      22.113629   18.256475   24.004272 H          1 MOL1         0.0750
@<TRIPOS>BOND
    1     1     2    1
    2     1     3    2
    3     1     4    1
    4     4     5    1
    5     4     6    2
    6     6     7    1
    7     6     8    1
    8     8     9    1
    9     8    10    1
   10     8    11    1
   11    11    12    1
   12    11    13    1
   13    11    14    1
   14    14    15    1
   15    14    16    1
   16    14    17    1
@<TRIPOS>SUBSTRUCTURE
       1 MOL1            1 RESIDUE      1      MOL     
@<SCITEGIC>MOL_PROPERTY
VConf Rank
SciTegic.value.IntegerValue
358

@<SCITEGIC>MOL_PROPERTY
Conf_Id
SciTegic.value.IntegerValue
1

@<SCITEGIC>MOL_PROPERTY
Delta U+W
SciTegic.value.DoubleValue
0.030

@<SCITEGIC>MOL_PROPERTY
U+W
SciTegic.value.DoubleValue
-53.378

@<SCITEGIC>MOL_PROPERTY
Grad RMS
SciTegic.value.DoubleValue
0.000000

@<SCITEGIC>MOL_PROPERTY
U
SciTegic.value.DoubleValue
9.048

@<SCITEGIC>MOL_PROPERTY
W
SciTegic.value.DoubleValue
-62.426

@<SCITEGIC>MOL_PROPERTY
W(PB)
SciTegic.value.DoubleValue
-64.506

@<SCITEGIC>MOL_PROPERTY
W(SA)
SciTegic.value.DoubleValue
2.080

@<SCITEGIC>MOL_PROPERTY
Valence
SciTegic.value.DoubleValue
2.652

@<SCITEGIC>MOL_PROPERTY
Coulomb
SciTegic.value.DoubleValue
5.578

@<SCITEGIC>MOL_PROPERTY
VdW
SciTegic.value.DoubleValue
0.818

@<SCITEGIC>MOL_PROPERTY
VdW6
SciTegic.value.DoubleValue
-4.535

@<SCITEGIC>MOL_PROPERTY
VdW12
SciTegic.value.DoubleValue
5.352

@<SCITEGIC>MOL_PROPERTY
Bond
SciTegic.value.DoubleValue
0.063

@<SCITEGIC>MOL_PROPERTY
Angle
SciTegic.value.DoubleValue
2.579

@<SCITEGIC>MOL_PROPERTY
Pdih
SciTegic.value.DoubleValue
0.010

@<SCITEGIC>MOL_PROPERTY
Idih
SciTegic.value.DoubleValue
0.000

@<SCITEGIC>MOL_PROPERTY
Tether
SciTegic.value.DoubleValue
0.000

@<TRIPOS>MOLECULE
guest-s19_confgen4.mol2 : confsearch ligand conformer 359
          17          16           1
SMALL
USER_CHARGES
 
@<TRIPOS>ATOM
       1    C1      21.019091   21.434936   23.778457 C.2        1 MOL1         0.6173
       2    O1      22.163773   21.529256   23.376901 O.co2      1 MOL1        -0.6755
       3    O2      20.472797   22.307197   24.425399 O.co2      1 MOL1        -0.6755
       4    C2      20.234142   20.206461   23.480472 C.2        1 MOL1        -0.1504
       5    H1      19.218595   20.186100   23.869074 H          1 MOL1         0.0814
       6    C3      20.713584   19.159205   22.771688 C.2        1 MOL1        -0.1394
       7    H2      21.728458   19.170534   22.374825 H          1 MOL1         0.0817
       8    C4      19.907350   17.913655   22.469019 C.3        1 MOL1        -0.1849
       9    H3      19.323106   17.628893   23.354511 H          1 MOL1         0.0736
      10    H4      20.583292   17.072432   22.264716 H          1 MOL1         0.0736
      11    C5      18.950362   18.109413   21.272602 C.3        1 MOL1        -0.1866
      12    H5      18.320082   17.215703   21.166847 H          1 MOL1         0.0738
      13    H6      18.271858   18.949795   21.474637 H          1 MOL1         0.0738
      14    C6      19.702811   18.355740   19.947516 C.3        1 MOL1        -0.2879
      15    H7      20.378507   17.521354   19.718648 H          1 MOL1         0.0750
      16    H8      18.994829   18.456760   19.114771 H          1 MOL1         0.0750
      17    H9      20.298920   19.276365   19.995750 H          1 MOL1         0.0750
@<TRIPOS>BOND
    1     1     2    1
    2     1     3    2
    3     1     4    1
    4     4     5    1
    5     4     6    2
    6     6     7    1
    7     6     8    1
    8     8     9    1
    9     8    10    1
   10     8    11    1
   11    11    12    1
   12    11    13    1
   13    11    14    1
   14    14    15    1
   15    14    16    1
   16    14    17    1
@<TRIPOS>SUBSTRUCTURE
       1 MOL1            1 RESIDUE      1      MOL     
@<SCITEGIC>MOL_PROPERTY
VConf Rank
SciTegic.value.IntegerValue
359

@<SCITEGIC>MOL_PROPERTY
Conf_Id
SciTegic.value.IntegerValue
3

@<SCITEGIC>MOL_PROPERTY
Delta U+W
SciTegic.value.DoubleValue
0.531

@<SCITEGIC>MOL_PROPERTY
U+W
SciTegic.value.DoubleValue
-52.878

@<SCITEGIC>MOL_PROPERTY
Grad RMS
SciTegic.value.DoubleValue
0.000000

@<SCITEGIC>MOL_PROPERTY
U
SciTegic.value.DoubleValue
10.067

@<SCITEGIC>MOL_PROPERTY
W
SciTegic.value.DoubleValue
-62.945

@<SCITEGIC>MOL_PROPERTY
W(PB)
SciTegic.value.DoubleValue
-64.982

@<SCITEGIC>MOL_PROPERTY
W(SA)
SciTegic.value.DoubleValue
2.037

@<SCITEGIC>MOL_PROPERTY
Valence
SciTegic.value.DoubleValue
2.779

@<SCITEGIC>MOL_PROPERTY
Coulomb
SciTegic.value.DoubleValue
6.474

@<SCITEGIC>MOL_PROPERTY
VdW
SciTegic.value.DoubleValue
0.815

@<SCITEGIC>MOL_PROPERTY
VdW6
SciTegic.value.DoubleValue
-5.088

@<SCITEGIC>MOL_PROPERTY
VdW12
SciTegic.value.DoubleValue
5.902

@<SCITEGIC>MOL_PROPERTY
Bond
SciTegic.value.DoubleValue
0.078

@<SCITEGIC>MOL_PROPERTY
Angle
SciTegic.value.DoubleValue
2.651

@<SCITEGIC>MOL_PROPERTY
Pdih
SciTegic.value.DoubleValue
0.050

@<SCITEGIC>MOL_PROPERTY
Idih
SciTegic.value.DoubleValue
0.000

@<SCITEGIC>MOL_PROPERTY
Tether
SciTegic.value.DoubleValue
0.000

@<TRIPOS>MOLECULE
guest-s19_confgen4.mol2 : confsearch ligand conformer 360
          17          16           1
SMALL
USER_CHARGES
 
@<TRIPOS>ATOM
       1    C1      19.294813   16.302955   21.164354 C.2        1 MOL1         0.6173
       2    O1      18.378598   15.579527   21.503442 O.co2      1 MOL1        -0.6755
       3    O2      20.312942   15.881351   20.648495 O.co2      1 MOL1        -0.6755
       4    C2      19.139385   17.764252   21.397867 C.2        1 MOL1        -0.1504
       5    H1      18.205779   18.073277   21.862182 H          1 MOL1         0.0814
       6    C3      20.077282   18.683221   21.073170 C.2        1 MOL1        -0.1394
       7    H2      21.017014   18.381836   20.611013 H          1 MOL1         0.0817
       8    C4      19.917282   20.169966   21.314676 C.3        1 MOL1        -0.1849
       9    H3      18.862105   20.422069   21.487257 H          1 MOL1         0.0736
      10    H4      20.217036   20.714406   20.409280 H          1 MOL1         0.0736
      11    C5      20.770293   20.665943   22.502761 C.3        1 MOL1        -0.1866
      12    H5      21.825647   20.411810   22.332161 H          1 MOL1         0.0738
      13    H6      20.715304   21.762252   22.550533 H          1 MOL1         0.0738
      14    C6      20.305664   20.079824   23.853100 C.3        1 MOL1        -0.2879
      15    H7      20.407331   18.986875   23.866545 H          1 MOL1         0.0750
      16    H8      20.908074   20.483719   24.677016 H          1 MOL1         0.0750
      17    H9      19.254329   20.328439   24.047978 H          1 MOL1         0.0750
@<TRIPOS>BOND
    1     1     2    1
    2     1     3    2
    3     1     4    1
    4     4     5    1
    5     4     6    2
    6     6     7    1
    7     6     8    1
    8     8     9    1
    9     8    10    1
   10     8    11    1
   11    11    12    1
   12    11    13    1
   13    11    14    1
   14    14    15    1
   15    14    16    1
   16    14    17    1
@<TRIPOS>SUBSTRUCTURE
       1 MOL1            1 RESIDUE      1      MOL     
@<SCITEGIC>MOL_PROPERTY
VConf Rank
SciTegic.value.IntegerValue
360

@<SCITEGIC>MOL_PROPERTY
Conf_Id
SciTegic.value.IntegerValue
45

@<SCITEGIC>MOL_PROPERTY
Delta U+W
SciTegic.value.DoubleValue
0.562

@<SCITEGIC>MOL_PROPERTY
U+W
SciTegic.value.DoubleValue
-52.846

@<SCITEGIC>MOL_PROPERTY
Grad RMS
SciTegic.value.DoubleValue
0.000000

@<SCITEGIC>MOL_PROPERTY
U
SciTegic.value.DoubleValue
10.243

@<SCITEGIC>MOL_PROPERTY
W
SciTegic.value.DoubleValue
-63.089

@<SCITEGIC>MOL_PROPERTY
W(PB)
SciTegic.value.DoubleValue
-65.116

@<SCITEGIC>MOL_PROPERTY
W(SA)
SciTegic.value.DoubleValue
2.026

@<SCITEGIC>MOL_PROPERTY
Valence
SciTegic.value.DoubleValue
2.822

@<SCITEGIC>MOL_PROPERTY
Coulomb
SciTegic.value.DoubleValue
6.637

@<SCITEGIC>MOL_PROPERTY
VdW
SciTegic.value.DoubleValue
0.785

@<SCITEGIC>MOL_PROPERTY
VdW6
SciTegic.value.DoubleValue
-5.216

@<SCITEGIC>MOL_PROPERTY
VdW12
SciTegic.value.DoubleValue
6.001

@<SCITEGIC>MOL_PROPERTY
Bond
SciTegic.value.DoubleValue
0.080

@<SCITEGIC>MOL_PROPERTY
Angle
SciTegic.value.DoubleValue
2.678

@<SCITEGIC>MOL_PROPERTY
Pdih
SciTegic.value.DoubleValue
0.064

@<SCITEGIC>MOL_PROPERTY
Idih
SciTegic.value.DoubleValue
0.000

@<SCITEGIC>MOL_PROPERTY
Tether
SciTegic.value.DoubleValue
0.000

@<TRIPOS>MOLECULE
guest-s19_confgen4.mol2 : confsearch ligand conformer 361
          17          16           1
SMALL
USER_CHARGES
 
@<TRIPOS>ATOM
       1    C1      19.433018   15.808146   22.246702 C.2        1 MOL1         0.6173
       2    O1      20.020828   14.993364   22.931036 O.co2      1 MOL1        -0.6755
       3    O2      18.651856   15.492835   21.368773 O.co2      1 MOL1        -0.6755
       4    C2      19.695780   17.248132   22.514207 C.2        1 MOL1        -0.1504
       5    H1      20.403953   17.461177   23.311710 H          1 MOL1         0.0814
       6    C3      19.114219   18.260051   21.830913 C.2        1 MOL1        -0.1394
       7    H2      18.405061   18.057863   21.028425 H          1 MOL1         0.0817
       8    C4      19.388619   19.721986   22.107843 C.3        1 MOL1        -0.1849
       9    H3      19.491504   19.886553   23.189111 H          1 MOL1         0.0736
      10    H4      18.531522   20.325599   21.780090 H          1 MOL1         0.0736
      11    C5      20.663976   20.201121   21.384719 C.3        1 MOL1        -0.1866
      12    H5      21.523293   19.600913   21.714695 H          1 MOL1         0.0738
      13    H6      20.557844   20.037385   20.303287 H          1 MOL1         0.0738
      14    C6      20.945500   21.692959   21.654326 C.3        1 MOL1        -0.2879
      15    H7      20.114403   22.319231   21.304338 H          1 MOL1         0.0750
      16    H8      21.086572   21.878465   22.727230 H          1 MOL1         0.0750
      17    H9      21.855803   22.015258   21.132213 H          1 MOL1         0.0750
@<TRIPOS>BOND
    1     1     2    1
    2     1     3    2
    3     1     4    1
    4     4     5    1
    5     4     6    2
    6     6     7    1
    7     6     8    1
    8     8     9    1
    9     8    10    1
   10     8    11    1
   11    11    12    1
   12    11    13    1
   13    11    14    1
   14    14    15    1
   15    14    16    1
   16    14    17    1
@<TRIPOS>SUBSTRUCTURE
       1 MOL1            1 RESIDUE      1      MOL     
@<SCITEGIC>MOL_PROPERTY
VConf Rank
SciTegic.value.IntegerValue
361

@<SCITEGIC>MOL_PROPERTY
Conf_Id
SciTegic.value.IntegerValue
36

@<SCITEGIC>MOL_PROPERTY
Delta U+W
SciTegic.value.DoubleValue
0.000

@<SCITEGIC>MOL_PROPERTY
U+W
SciTegic.value.DoubleValue
-53.409

@<SCITEGIC>MOL_PROPERTY
Grad RMS
SciTegic.value.DoubleValue
0.000000

@<SCITEGIC>MOL_PROPERTY
U
SciTegic.value.DoubleValue
9.048

@<SCITEGIC>MOL_PROPERTY
W
SciTegic.value.DoubleValue
-62.457

@<SCITEGIC>MOL_PROPERTY
W(PB)
SciTegic.value.DoubleValue
-64.540

@<SCITEGIC>MOL_PROPERTY
W(SA)
SciTegic.value.DoubleValue
2.084

@<SCITEGIC>MOL_PROPERTY
Valence
SciTegic.value.DoubleValue
2.652

@<SCITEGIC>MOL_PROPERTY
Coulomb
SciTegic.value.DoubleValue
5.578

@<SCITEGIC>MOL_PROPERTY
VdW
SciTegic.value.DoubleValue
0.818

@<SCITEGIC>MOL_PROPERTY
VdW6
SciTegic.value.DoubleValue
-4.534

@<SCITEGIC>MOL_PROPERTY
VdW12
SciTegic.value.DoubleValue
5.352

@<SCITEGIC>MOL_PROPERTY
Bond
SciTegic.value.DoubleValue
0.063

@<SCITEGIC>MOL_PROPERTY
Angle
SciTegic.value.DoubleValue
2.579

@<SCITEGIC>MOL_PROPERTY
Pdih
SciTegic.value.DoubleValue
0.010

@<SCITEGIC>MOL_PROPERTY
Idih
SciTegic.value.DoubleValue
0.000

@<SCITEGIC>MOL_PROPERTY
Tether
SciTegic.value.DoubleValue
0.000

@<TRIPOS>MOLECULE
guest-s19_confgen4.mol2 : confsearch ligand conformer 362
          17          16           1
SMALL
USER_CHARGES
 
@<TRIPOS>ATOM
       1    C1      21.243669   16.454089   23.616669 C.2        1 MOL1         0.6173
       2    O1      21.213568   15.501439   22.860398 O.co2      1 MOL1        -0.6755
       3    O2      21.477743   16.346562   24.804672 O.co2      1 MOL1        -0.6755
       4    C2      20.987320   17.820952   23.087394 C.2        1 MOL1        -0.1504
       5    H1      21.029304   18.627537   23.815794 H          1 MOL1         0.0814
       6    C3      20.713342   18.087792   21.790159 C.2        1 MOL1        -0.1394
       7    H2      20.666674   17.286987   21.052387 H          1 MOL1         0.0817
       8    C4      20.451974   19.480726   21.260384 C.3        1 MOL1        -0.1849
       9    H3      20.692203   19.517938   20.189267 H          1 MOL1         0.0736
      10    H4      21.117136   20.201605   21.755056 H          1 MOL1         0.0736
      11    C5      18.982237   19.896744   21.474439 C.3        1 MOL1        -0.1866
      12    H5      18.319025   19.175469   20.976968 H          1 MOL1         0.0738
      13    H6      18.741387   19.864000   22.546110 H          1 MOL1         0.0738
      14    C6      18.705392   21.312035   20.928697 C.3        1 MOL1        -0.2879
      15    H7      18.908151   21.364263   19.850926 H          1 MOL1         0.0750
      16    H8      17.655728   21.590192   21.089835 H          1 MOL1         0.0750
      17    H9      19.334639   22.057404   21.432590 H          1 MOL1         0.0750
@<TRIPOS>BOND
    1     1     2    1
    2     1     3    2
    3     1     4    1
    4     4     5    1
    5     4     6    2
    6     6     7    1
    7     6     8    1
    8     8     9    1
    9     8    10    1
   10     8    11    1
   11    11    12    1
   12    11    13    1
   13    11    14    1
   14    14    15    1
   15    14    16    1
   16    14    17    1
@<TRIPOS>SUBSTRUCTURE
       1 MOL1            1 RESIDUE      1      MOL     
@<SCITEGIC>MOL_PROPERTY
VConf Rank
SciTegic.value.IntegerValue
362

@<SCITEGIC>MOL_PROPERTY
Conf_Id
SciTegic.value.IntegerValue
1

@<SCITEGIC>MOL_PROPERTY
Delta U+W
SciTegic.value.DoubleValue
0.030

@<SCITEGIC>MOL_PROPERTY
U+W
SciTegic.value.DoubleValue
-53.378

@<SCITEGIC>MOL_PROPERTY
Grad RMS
SciTegic.value.DoubleValue
0.000000

@<SCITEGIC>MOL_PROPERTY
U
SciTegic.value.DoubleValue
9.048

@<SCITEGIC>MOL_PROPERTY
W
SciTegic.value.DoubleValue
-62.426

@<SCITEGIC>MOL_PROPERTY
W(PB)
SciTegic.value.DoubleValue
-64.506

@<SCITEGIC>MOL_PROPERTY
W(SA)
SciTegic.value.DoubleValue
2.080

@<SCITEGIC>MOL_PROPERTY
Valence
SciTegic.value.DoubleValue
2.652

@<SCITEGIC>MOL_PROPERTY
Coulomb
SciTegic.value.DoubleValue
5.578

@<SCITEGIC>MOL_PROPERTY
VdW
SciTegic.value.DoubleValue
0.818

@<SCITEGIC>MOL_PROPERTY
VdW6
SciTegic.value.DoubleValue
-4.535

@<SCITEGIC>MOL_PROPERTY
VdW12
SciTegic.value.DoubleValue
5.352

@<SCITEGIC>MOL_PROPERTY
Bond
SciTegic.value.DoubleValue
0.063

@<SCITEGIC>MOL_PROPERTY
Angle
SciTegic.value.DoubleValue
2.579

@<SCITEGIC>MOL_PROPERTY
Pdih
SciTegic.value.DoubleValue
0.010

@<SCITEGIC>MOL_PROPERTY
Idih
SciTegic.value.DoubleValue
0.000

@<SCITEGIC>MOL_PROPERTY
Tether
SciTegic.value.DoubleValue
0.000

@<TRIPOS>MOLECULE
guest-s19_confgen4.mol2 : confsearch ligand conformer 363
          17          16           1
SMALL
USER_CHARGES
 
@<TRIPOS>ATOM
       1    C1      21.673792   21.686619   22.066212 C.2        1 MOL1         0.6173
       2    O1      22.673159   21.305525   22.646276 O.co2      1 MOL1        -0.6755
       3    O2      21.633447   22.723457   21.432848 O.co2      1 MOL1        -0.6755
       4    C2      20.433220   20.866926   22.122546 C.2        1 MOL1        -0.1504
       5    H1      19.576448   21.264834   21.583683 H          1 MOL1         0.0814
       6    C3      20.334891   19.693368   22.787436 C.2        1 MOL1        -0.1394
       7    H2      21.188054   19.283842   23.327806 H          1 MOL1         0.0817
       8    C4      19.069851   18.862572   22.837094 C.3        1 MOL1        -0.1849
       9    H3      18.200152   19.522714   22.956938 H          1 MOL1         0.0736
      10    H4      19.085115   18.212582   23.722291 H          1 MOL1         0.0736
      11    C5      18.881482   18.002469   21.568117 C.3        1 MOL1        -0.1866
      12    H5      17.902397   17.505936   21.612839 H          1 MOL1         0.0738
      13    H6      18.864564   18.650270   20.680708 H          1 MOL1         0.0738
      14    C6      19.982911   16.932643   21.409876 C.3        1 MOL1        -0.2879
      15    H7      20.009908   16.265003   22.280894 H          1 MOL1         0.0750
      16    H8      19.799768   16.319236   20.518193 H          1 MOL1         0.0750
      17    H9      20.972396   17.395805   21.302075 H          1 MOL1         0.0750
@<TRIPOS>BOND
    1     1     2    1
    2     1     3    2
    3     1     4    1
    4     4     5    1
    5     4     6    2
    6     6     7    1
    7     6     8    1
    8     8     9    1
    9     8    10    1
   10     8    11    1
   11    11    12    1
   12    11    13    1
   13    11    14    1
   14    14    15    1
   15    14    16    1
   16    14    17    1
@<TRIPOS>SUBSTRUCTURE
       1 MOL1            1 RESIDUE      1      MOL     
@<SCITEGIC>MOL_PROPERTY
VConf Rank
SciTegic.value.IntegerValue
363

@<SCITEGIC>MOL_PROPERTY
Conf_Id
SciTegic.value.IntegerValue
3

@<SCITEGIC>MOL_PROPERTY
Delta U+W
SciTegic.value.DoubleValue
0.531

@<SCITEGIC>MOL_PROPERTY
U+W
SciTegic.value.DoubleValue
-52.878

@<SCITEGIC>MOL_PROPERTY
Grad RMS
SciTegic.value.DoubleValue
0.000000

@<SCITEGIC>MOL_PROPERTY
U
SciTegic.value.DoubleValue
10.067

@<SCITEGIC>MOL_PROPERTY
W
SciTegic.value.DoubleValue
-62.945

@<SCITEGIC>MOL_PROPERTY
W(PB)
SciTegic.value.DoubleValue
-64.982

@<SCITEGIC>MOL_PROPERTY
W(SA)
SciTegic.value.DoubleValue
2.037

@<SCITEGIC>MOL_PROPERTY
Valence
SciTegic.value.DoubleValue
2.779

@<SCITEGIC>MOL_PROPERTY
Coulomb
SciTegic.value.DoubleValue
6.474

@<SCITEGIC>MOL_PROPERTY
VdW
SciTegic.value.DoubleValue
0.815

@<SCITEGIC>MOL_PROPERTY
VdW6
SciTegic.value.DoubleValue
-5.088

@<SCITEGIC>MOL_PROPERTY
VdW12
SciTegic.value.DoubleValue
5.902

@<SCITEGIC>MOL_PROPERTY
Bond
SciTegic.value.DoubleValue
0.078

@<SCITEGIC>MOL_PROPERTY
Angle
SciTegic.value.DoubleValue
2.651

@<SCITEGIC>MOL_PROPERTY
Pdih
SciTegic.value.DoubleValue
0.050

@<SCITEGIC>MOL_PROPERTY
Idih
SciTegic.value.DoubleValue
0.000

@<SCITEGIC>MOL_PROPERTY
Tether
SciTegic.value.DoubleValue
0.000

@<TRIPOS>MOLECULE
guest-s19_confgen4.mol2 : confsearch ligand conformer 364
          17          16           1
SMALL
USER_CHARGES
 
@<TRIPOS>ATOM
       1    C1      20.300024   17.617899   19.465309 C.2        1 MOL1         0.6173
       2    O1      19.726051   16.625107   19.061948 O.co2      1 MOL1        -0.6755
       3    O2      21.371971   17.986415   19.023072 O.co2      1 MOL1        -0.6755
       4    C2      19.641318   18.401642   20.545089 C.2        1 MOL1        -0.1504
       5    H1      18.685848   18.017153   20.894306 H          1 MOL1         0.0814
       6    C3      20.165787   19.523433   21.089242 C.2        1 MOL1        -0.1394
       7    H2      21.124324   19.913477   20.747789 H          1 MOL1         0.0817
       8    C4      19.494087   20.317622   22.190340 C.3        1 MOL1        -0.1849
       9    H3      18.430041   20.054355   22.262708 H          1 MOL1         0.0736
      10    H4      19.527687   21.384941   21.933997 H          1 MOL1         0.0736
      11    C5      20.174339   20.110188   23.561250 C.3        1 MOL1        -0.1866
      12    H5      21.239388   20.370803   23.489075 H          1 MOL1         0.0738
      13    H6      19.730598   20.802444   24.289998 H          1 MOL1         0.0738
      14    C6      20.026457   18.665727   24.085171 C.3        1 MOL1        -0.2879
      15    H7      20.515787   17.948601   23.413352 H          1 MOL1         0.0750
      16    H8      20.486710   18.565657   25.076645 H          1 MOL1         0.0750
      17    H9      18.968461   18.386258   24.172539 H          1 MOL1         0.0750
@<TRIPOS>BOND
    1     1     2    1
    2     1     3    2
    3     1     4    1
    4     4     5    1
    5     4     6    2
    6     6     7    1
    7     6     8    1
    8     8     9    1
    9     8    10    1
   10     8    11    1
   11    11    12    1
   12    11    13    1
   13    11    14    1
   14    14    15    1
   15    14    16    1
   16    14    17    1
@<TRIPOS>SUBSTRUCTURE
       1 MOL1            1 RESIDUE      1      MOL     
@<SCITEGIC>MOL_PROPERTY
VConf Rank
SciTegic.value.IntegerValue
364

@<SCITEGIC>MOL_PROPERTY
Conf_Id
SciTegic.value.IntegerValue
45

@<SCITEGIC>MOL_PROPERTY
Delta U+W
SciTegic.value.DoubleValue
0.562

@<SCITEGIC>MOL_PROPERTY
U+W
SciTegic.value.DoubleValue
-52.846

@<SCITEGIC>MOL_PROPERTY
Grad RMS
SciTegic.value.DoubleValue
0.000000

@<SCITEGIC>MOL_PROPERTY
U
SciTegic.value.DoubleValue
10.243

@<SCITEGIC>MOL_PROPERTY
W
SciTegic.value.DoubleValue
-63.089

@<SCITEGIC>MOL_PROPERTY
W(PB)
SciTegic.value.DoubleValue
-65.116

@<SCITEGIC>MOL_PROPERTY
W(SA)
SciTegic.value.DoubleValue
2.026

@<SCITEGIC>MOL_PROPERTY
Valence
SciTegic.value.DoubleValue
2.822

@<SCITEGIC>MOL_PROPERTY
Coulomb
SciTegic.value.DoubleValue
6.637

@<SCITEGIC>MOL_PROPERTY
VdW
SciTegic.value.DoubleValue
0.785

@<SCITEGIC>MOL_PROPERTY
VdW6
SciTegic.value.DoubleValue
-5.216

@<SCITEGIC>MOL_PROPERTY
VdW12
SciTegic.value.DoubleValue
6.001

@<SCITEGIC>MOL_PROPERTY
Bond
SciTegic.value.DoubleValue
0.080

@<SCITEGIC>MOL_PROPERTY
Angle
SciTegic.value.DoubleValue
2.678

@<SCITEGIC>MOL_PROPERTY
Pdih
SciTegic.value.DoubleValue
0.064

@<SCITEGIC>MOL_PROPERTY
Idih
SciTegic.value.DoubleValue
0.000

@<SCITEGIC>MOL_PROPERTY
Tether
SciTegic.value.DoubleValue
0.000

@<TRIPOS>MOLECULE
guest-s19_confgen4.mol2 : confsearch ligand conformer 365
          17          16           1
SMALL
USER_CHARGES
 
@<TRIPOS>ATOM
       1    C1      20.535317   20.709911   18.989651 C.2        1 MOL1         0.6173
       2    O1      21.453748   20.583380   18.203407 O.co2      1 MOL1        -0.6755
       3    O2      19.746206   21.634722   18.940429 O.co2      1 MOL1        -0.6755
       4    C2      20.389529   19.675040   20.048871 C.2        1 MOL1        -0.1504
       5    H1      21.127368   18.876072   20.036540 H          1 MOL1         0.0814
       6    C3      19.417077   19.690170   20.988655 C.2        1 MOL1        -0.1394
       7    H2      18.674135   20.487215   21.011662 H          1 MOL1         0.0817
       8    C4      19.277149   18.634889   22.063848 C.3        1 MOL1        -0.1849
       9    H3      19.512797   17.644518   21.650999 H          1 MOL1         0.0736
      10    H4      18.233415   18.591669   22.403168 H          1 MOL1         0.0736
      11    C5      20.198496   18.930819   23.264914 C.3        1 MOL1        -0.1866
      12    H5      21.243661   18.970231   22.927813 H          1 MOL1         0.0738
      13    H6      19.959527   19.920948   23.677353 H          1 MOL1         0.0738
      14    C6      20.054846   17.864666   24.369544 C.3        1 MOL1        -0.2879
      15    H7      19.024655   17.826466   24.747272 H          1 MOL1         0.0750
      16    H8      20.318401   16.868461   23.990663 H          1 MOL1         0.0750
      17    H9      20.717421   18.091860   25.214830 H          1 MOL1         0.0750
@<TRIPOS>BOND
    1     1     2    1
    2     1     3    2
    3     1     4    1
    4     4     5    1
    5     4     6    2
    6     6     7    1
    7     6     8    1
    8     8     9    1
    9     8    10    1
   10     8    11    1
   11    11    12    1
   12    11    13    1
   13    11    14    1
   14    14    15    1
   15    14    16    1
   16    14    17    1
@<TRIPOS>SUBSTRUCTURE
       1 MOL1            1 RESIDUE      1      MOL     
@<SCITEGIC>MOL_PROPERTY
VConf Rank
SciTegic.value.IntegerValue
365

@<SCITEGIC>MOL_PROPERTY
Conf_Id
SciTegic.value.IntegerValue
36

@<SCITEGIC>MOL_PROPERTY
Delta U+W
SciTegic.value.DoubleValue
0.000

@<SCITEGIC>MOL_PROPERTY
U+W
SciTegic.value.DoubleValue
-53.409

@<SCITEGIC>MOL_PROPERTY
Grad RMS
SciTegic.value.DoubleValue
0.000000

@<SCITEGIC>MOL_PROPERTY
U
SciTegic.value.DoubleValue
9.048

@<SCITEGIC>MOL_PROPERTY
W
SciTegic.value.DoubleValue
-62.457

@<SCITEGIC>MOL_PROPERTY
W(PB)
SciTegic.value.DoubleValue
-64.540

@<SCITEGIC>MOL_PROPERTY
W(SA)
SciTegic.value.DoubleValue
2.084

@<SCITEGIC>MOL_PROPERTY
Valence
SciTegic.value.DoubleValue
2.652

@<SCITEGIC>MOL_PROPERTY
Coulomb
SciTegic.value.DoubleValue
5.578

@<SCITEGIC>MOL_PROPERTY
VdW
SciTegic.value.DoubleValue
0.818

@<SCITEGIC>MOL_PROPERTY
VdW6
SciTegic.value.DoubleValue
-4.534

@<SCITEGIC>MOL_PROPERTY
VdW12
SciTegic.value.DoubleValue
5.352

@<SCITEGIC>MOL_PROPERTY
Bond
SciTegic.value.DoubleValue
0.063

@<SCITEGIC>MOL_PROPERTY
Angle
SciTegic.value.DoubleValue
2.579

@<SCITEGIC>MOL_PROPERTY
Pdih
SciTegic.value.DoubleValue
0.010

@<SCITEGIC>MOL_PROPERTY
Idih
SciTegic.value.DoubleValue
0.000

@<SCITEGIC>MOL_PROPERTY
Tether
SciTegic.value.DoubleValue
0.000

@<TRIPOS>MOLECULE
guest-s19_confgen4.mol2 : confsearch ligand conformer 366
          17          16           1
SMALL
USER_CHARGES
 
@<TRIPOS>ATOM
       1    C1      17.365964   20.125646   23.729997 C.2        1 MOL1         0.6173
       2    O1      16.744217   20.906641   23.034388 O.co2      1 MOL1        -0.6755
       3    O2      17.136864   19.969131   24.913518 O.co2      1 MOL1        -0.6755
       4    C2      18.458386   19.314247   23.127995 C.2        1 MOL1        -0.1504
       5    H1      18.973757   18.636026   23.804249 H          1 MOL1         0.0814
       6    C3      18.821612   19.386095   21.827230 C.2        1 MOL1        -0.1394
       7    H2      18.313447   20.063762   21.141439 H          1 MOL1         0.0817
       8    C4      19.935107   18.558650   21.223323 C.3        1 MOL1        -0.1849
       9    H3      19.764889   18.444598   20.144246 H          1 MOL1         0.0736
      10    H4      19.924648   17.546420   21.650041 H          1 MOL1         0.0736
      11    C5      21.312543   19.210168   21.462508 C.3        1 MOL1        -0.1866
      12    H5      21.321241   20.221590   21.032953 H          1 MOL1         0.0738
      13    H6      21.486204   19.321268   22.541887 H          1 MOL1         0.0738
      14    C6      22.452229   18.377445   20.841852 C.3        1 MOL1        -0.2879
      15    H7      22.319883   18.277546   19.756525 H          1 MOL1         0.0750
      16    H8      23.423491   18.856300   21.022067 H          1 MOL1         0.0750
      17    H9      22.485010   17.370197   21.277527 H          1 MOL1         0.0750
@<TRIPOS>BOND
    1     1     2    1
    2     1     3    2
    3     1     4    1
    4     4     5    1
    5     4     6    2
    6     6     7    1
    7     6     8    1
    8     8     9    1
    9     8    10    1
   10     8    11    1
   11    11    12    1
   12    11    13    1
   13    11    14    1
   14    14    15    1
   15    14    16    1
   16    14    17    1
@<TRIPOS>SUBSTRUCTURE
       1 MOL1            1 RESIDUE      1      MOL     
@<SCITEGIC>MOL_PROPERTY
VConf Rank
SciTegic.value.IntegerValue
366

@<SCITEGIC>MOL_PROPERTY
Conf_Id
SciTegic.value.IntegerValue
1

@<SCITEGIC>MOL_PROPERTY
Delta U+W
SciTegic.value.DoubleValue
0.030

@<SCITEGIC>MOL_PROPERTY
U+W
SciTegic.value.DoubleValue
-53.378

@<SCITEGIC>MOL_PROPERTY
Grad RMS
SciTegic.value.DoubleValue
0.000000

@<SCITEGIC>MOL_PROPERTY
U
SciTegic.value.DoubleValue
9.048

@<SCITEGIC>MOL_PROPERTY
W
SciTegic.value.DoubleValue
-62.426

@<SCITEGIC>MOL_PROPERTY
W(PB)
SciTegic.value.DoubleValue
-64.506

@<SCITEGIC>MOL_PROPERTY
W(SA)
SciTegic.value.DoubleValue
2.080

@<SCITEGIC>MOL_PROPERTY
Valence
SciTegic.value.DoubleValue
2.652

@<SCITEGIC>MOL_PROPERTY
Coulomb
SciTegic.value.DoubleValue
5.578

@<SCITEGIC>MOL_PROPERTY
VdW
SciTegic.value.DoubleValue
0.818

@<SCITEGIC>MOL_PROPERTY
VdW6
SciTegic.value.DoubleValue
-4.535

@<SCITEGIC>MOL_PROPERTY
VdW12
SciTegic.value.DoubleValue
5.352

@<SCITEGIC>MOL_PROPERTY
Bond
SciTegic.value.DoubleValue
0.063

@<SCITEGIC>MOL_PROPERTY
Angle
SciTegic.value.DoubleValue
2.579

@<SCITEGIC>MOL_PROPERTY
Pdih
SciTegic.value.DoubleValue
0.010

@<SCITEGIC>MOL_PROPERTY
Idih
SciTegic.value.DoubleValue
0.000

@<SCITEGIC>MOL_PROPERTY
Tether
SciTegic.value.DoubleValue
0.000

@<TRIPOS>MOLECULE
guest-s19_confgen4.mol2 : confsearch ligand conformer 367
          17          16           1
SMALL
USER_CHARGES
 
@<TRIPOS>ATOM
       1    C1      16.971530   19.463230   21.755317 C.2        1 MOL1         0.6173
       2    O1      16.759225   18.770807   20.777607 O.co2      1 MOL1        -0.6755
       3    O2      16.087607   19.848105   22.495833 O.co2      1 MOL1        -0.6755
       4    C2      18.365218   19.872834   22.077727 C.2        1 MOL1        -0.1504
       5    H1      18.485152   20.491712   22.963936 H          1 MOL1         0.0814
       6    C3      19.444106   19.517308   21.343842 C.2        1 MOL1        -0.1394
       7    H2      19.335743   18.894721   20.456013 H          1 MOL1         0.0817
       8    C4      20.860228   19.934847   21.680403 C.3        1 MOL1        -0.1849
       9    H3      20.866381   20.981742   22.012820 H          1 MOL1         0.0736
      10    H4      21.484772   19.896580   20.777755 H          1 MOL1         0.0736
      11    C5      21.487844   19.050739   22.780409 C.3        1 MOL1        -0.1866
      12    H5      22.468268   19.462713   23.056450 H          1 MOL1         0.0738
      13    H6      20.865727   19.087989   23.685401 H          1 MOL1         0.0738
      14    C6      21.665032   17.584567   22.331346 C.3        1 MOL1        -0.2879
      15    H7      22.294784   17.521980   21.434329 H          1 MOL1         0.0750
      16    H8      22.143296   16.993610   23.123142 H          1 MOL1         0.0750
      17    H9      20.696643   17.120315   22.103501 H          1 MOL1         0.0750
@<TRIPOS>BOND
    1     1     2    1
    2     1     3    2
    3     1     4    1
    4     4     5    1
    5     4     6    2
    6     6     7    1
    7     6     8    1
    8     8     9    1
    9     8    10    1
   10     8    11    1
   11    11    12    1
   12    11    13    1
   13    11    14    1
   14    14    15    1
   15    14    16    1
   16    14    17    1
@<TRIPOS>SUBSTRUCTURE
       1 MOL1            1 RESIDUE      1      MOL     
@<SCITEGIC>MOL_PROPERTY
VConf Rank
SciTegic.value.IntegerValue
367

@<SCITEGIC>MOL_PROPERTY
Conf_Id
SciTegic.value.IntegerValue
3

@<SCITEGIC>MOL_PROPERTY
Delta U+W
SciTegic.value.DoubleValue
0.531

@<SCITEGIC>MOL_PROPERTY
U+W
SciTegic.value.DoubleValue
-52.878

@<SCITEGIC>MOL_PROPERTY
Grad RMS
SciTegic.value.DoubleValue
0.000000

@<SCITEGIC>MOL_PROPERTY
U
SciTegic.value.DoubleValue
10.067

@<SCITEGIC>MOL_PROPERTY
W
SciTegic.value.DoubleValue
-62.945

@<SCITEGIC>MOL_PROPERTY
W(PB)
SciTegic.value.DoubleValue
-64.982

@<SCITEGIC>MOL_PROPERTY
W(SA)
SciTegic.value.DoubleValue
2.037

@<SCITEGIC>MOL_PROPERTY
Valence
SciTegic.value.DoubleValue
2.779

@<SCITEGIC>MOL_PROPERTY
Coulomb
SciTegic.value.DoubleValue
6.474

@<SCITEGIC>MOL_PROPERTY
VdW
SciTegic.value.DoubleValue
0.815

@<SCITEGIC>MOL_PROPERTY
VdW6
SciTegic.value.DoubleValue
-5.088

@<SCITEGIC>MOL_PROPERTY
VdW12
SciTegic.value.DoubleValue
5.902

@<SCITEGIC>MOL_PROPERTY
Bond
SciTegic.value.DoubleValue
0.078

@<SCITEGIC>MOL_PROPERTY
Angle
SciTegic.value.DoubleValue
2.651

@<SCITEGIC>MOL_PROPERTY
Pdih
SciTegic.value.DoubleValue
0.050

@<SCITEGIC>MOL_PROPERTY
Idih
SciTegic.value.DoubleValue
0.000

@<SCITEGIC>MOL_PROPERTY
Tether
SciTegic.value.DoubleValue
0.000

@<TRIPOS>MOLECULE
guest-s19_confgen4.mol2 : confsearch ligand conformer 368
          17          16           1
SMALL
USER_CHARGES
 
@<TRIPOS>ATOM
       1    C1      22.248565   21.061132   22.408643 C.2        1 MOL1         0.6173
       2    O1      22.700448   21.558661   23.421582 O.co2      1 MOL1        -0.6755
       3    O2      22.410406   21.547407   21.305107 O.co2      1 MOL1        -0.6755
       4    C2      21.469921   19.801055   22.550038 C.2        1 MOL1        -0.1504
       5    H1      21.363482   19.420962   23.563402 H          1 MOL1         0.0814
       6    C3      20.908973   19.141235   21.511020 C.2        1 MOL1        -0.1394
       7    H2      21.007654   19.517087   20.492925 H          1 MOL1         0.0817
       8    C4      20.114486   17.860071   21.658476 C.3        1 MOL1        -0.1849
       9    H3      20.314119   17.391426   22.631748 H          1 MOL1         0.0736
      10    H4      20.449670   17.141109   20.899033 H          1 MOL1         0.0736
      11    C5      18.596062   18.089872   21.494929 C.3        1 MOL1        -0.1866
      12    H5      18.395722   18.561077   20.522669 H          1 MOL1         0.0738
      13    H6      18.085502   17.117046   21.483283 H          1 MOL1         0.0738
      14    C6      18.001329   18.956409   22.625520 C.3        1 MOL1        -0.2879
      15    H7      18.442544   19.961584   22.628086 H          1 MOL1         0.0750
      16    H8      16.916558   19.065674   22.498248 H          1 MOL1         0.0750
      17    H9      18.183438   18.499914   23.607122 H          1 MOL1         0.0750
@<TRIPOS>BOND
    1     1     2    1
    2     1     3    2
    3     1     4    1
    4     4     5    1
    5     4     6    2
    6     6     7    1
    7     6     8    1
    8     8     9    1
    9     8    10    1
   10     8    11    1
   11    11    12    1
   12    11    13    1
   13    11    14    1
   14    14    15    1
   15    14    16    1
   16    14    17    1
@<TRIPOS>SUBSTRUCTURE
       1 MOL1            1 RESIDUE      1      MOL     
@<SCITEGIC>MOL_PROPERTY
VConf Rank
SciTegic.value.IntegerValue
368

@<SCITEGIC>MOL_PROPERTY
Conf_Id
SciTegic.value.IntegerValue
45

@<SCITEGIC>MOL_PROPERTY
Delta U+W
SciTegic.value.DoubleValue
0.562

@<SCITEGIC>MOL_PROPERTY
U+W
SciTegic.value.DoubleValue
-52.846

@<SCITEGIC>MOL_PROPERTY
Grad RMS
SciTegic.value.DoubleValue
0.000000

@<SCITEGIC>MOL_PROPERTY
U
SciTegic.value.DoubleValue
10.243

@<SCITEGIC>MOL_PROPERTY
W
SciTegic.value.DoubleValue
-63.089

@<SCITEGIC>MOL_PROPERTY
W(PB)
SciTegic.value.DoubleValue
-65.116

@<SCITEGIC>MOL_PROPERTY
W(SA)
SciTegic.value.DoubleValue
2.026

@<SCITEGIC>MOL_PROPERTY
Valence
SciTegic.value.DoubleValue
2.822

@<SCITEGIC>MOL_PROPERTY
Coulomb
SciTegic.value.DoubleValue
6.637

@<SCITEGIC>MOL_PROPERTY
VdW
SciTegic.value.DoubleValue
0.785

@<SCITEGIC>MOL_PROPERTY
VdW6
SciTegic.value.DoubleValue
-5.216

@<SCITEGIC>MOL_PROPERTY
VdW12
SciTegic.value.DoubleValue
6.001

@<SCITEGIC>MOL_PROPERTY
Bond
SciTegic.value.DoubleValue
0.080

@<SCITEGIC>MOL_PROPERTY
Angle
SciTegic.value.DoubleValue
2.678

@<SCITEGIC>MOL_PROPERTY
Pdih
SciTegic.value.DoubleValue
0.064

@<SCITEGIC>MOL_PROPERTY
Idih
SciTegic.value.DoubleValue
0.000

@<SCITEGIC>MOL_PROPERTY
Tether
SciTegic.value.DoubleValue
0.000

@<TRIPOS>MOLECULE
guest-s19_confgen4.mol2 : confsearch ligand conformer 369
          17          16           1
SMALL
USER_CHARGES
 
@<TRIPOS>ATOM
       1    C1      19.275745   21.146250   19.315756 C.2        1 MOL1         0.6173
       2    O1      18.669009   22.199575   19.306773 O.co2      1 MOL1        -0.6755
       3    O2      19.540190   20.527525   18.302029 O.co2      1 MOL1        -0.6755
       4    C2      19.704514   20.611044   20.636314 C.2        1 MOL1        -0.1504
       5    H1      19.436549   21.212601   21.501896 H          1 MOL1         0.0814
       6    C3      20.384049   19.452603   20.795477 C.2        1 MOL1        -0.1394
       7    H2      20.655540   18.840936   19.935286 H          1 MOL1         0.0817
       8    C4      20.814511   18.914236   22.142363 C.3        1 MOL1        -0.1849
       9    H3      21.139638   19.739647   22.790282 H          1 MOL1         0.0736
      10    H4      21.684520   18.256130   22.014425 H          1 MOL1         0.0736
      11    C5      19.673323   18.134004   22.826426 C.3        1 MOL1        -0.1866
      12    H5      18.803465   18.792286   22.958991 H          1 MOL1         0.0738
      13    H6      19.351264   17.307791   22.177413 H          1 MOL1         0.0738
      14    C6      20.107102   17.573828   24.195938 C.3        1 MOL1        -0.2879
      15    H7      20.956520   16.886570   24.088249 H          1 MOL1         0.0750
      16    H8      20.404947   18.383469   24.875060 H          1 MOL1         0.0750
      17    H9      19.282863   17.022541   24.666942 H          1 MOL1         0.0750
@<TRIPOS>BOND
    1     1     2    1
    2     1     3    2
    3     1     4    1
    4     4     5    1
    5     4     6    2
    6     6     7    1
    7     6     8    1
    8     8     9    1
    9     8    10    1
   10     8    11    1
   11    11    12    1
   12    11    13    1
   13    11    14    1
   14    14    15    1
   15    14    16    1
   16    14    17    1
@<TRIPOS>SUBSTRUCTURE
       1 MOL1            1 RESIDUE      1      MOL     
@<SCITEGIC>MOL_PROPERTY
VConf Rank
SciTegic.value.IntegerValue
369

@<SCITEGIC>MOL_PROPERTY
Conf_Id
SciTegic.value.IntegerValue
36

@<SCITEGIC>MOL_PROPERTY
Delta U+W
SciTegic.value.DoubleValue
0.000

@<SCITEGIC>MOL_PROPERTY
U+W
SciTegic.value.DoubleValue
-53.409

@<SCITEGIC>MOL_PROPERTY
Grad RMS
SciTegic.value.DoubleValue
0.000000

@<SCITEGIC>MOL_PROPERTY
U
SciTegic.value.DoubleValue
9.048

@<SCITEGIC>MOL_PROPERTY
W
SciTegic.value.DoubleValue
-62.457

@<SCITEGIC>MOL_PROPERTY
W(PB)
SciTegic.value.DoubleValue
-64.540

@<SCITEGIC>MOL_PROPERTY
W(SA)
SciTegic.value.DoubleValue
2.084

@<SCITEGIC>MOL_PROPERTY
Valence
SciTegic.value.DoubleValue
2.652

@<SCITEGIC>MOL_PROPERTY
Coulomb
SciTegic.value.DoubleValue
5.578

@<SCITEGIC>MOL_PROPERTY
VdW
SciTegic.value.DoubleValue
0.818

@<SCITEGIC>MOL_PROPERTY
VdW6
SciTegic.value.DoubleValue
-4.534

@<SCITEGIC>MOL_PROPERTY
VdW12
SciTegic.value.DoubleValue
5.352

@<SCITEGIC>MOL_PROPERTY
Bond
SciTegic.value.DoubleValue
0.063

@<SCITEGIC>MOL_PROPERTY
Angle
SciTegic.value.DoubleValue
2.579

@<SCITEGIC>MOL_PROPERTY
Pdih
SciTegic.value.DoubleValue
0.010

@<SCITEGIC>MOL_PROPERTY
Idih
SciTegic.value.DoubleValue
0.000

@<SCITEGIC>MOL_PROPERTY
Tether
SciTegic.value.DoubleValue
0.000

@<TRIPOS>MOLECULE
guest-s19_confgen4.mol2 : confsearch ligand conformer 370
          17          16           1
SMALL
USER_CHARGES
 
@<TRIPOS>ATOM
       1    C1      17.466046   21.291733   21.686015 C.2        1 MOL1         0.6173
       2    O1      17.703189   22.188998   22.472827 O.co2      1 MOL1        -0.6755
       3    O2      16.394130   21.171613   21.125414 O.co2      1 MOL1        -0.6755
       4    C2      18.518888   20.285965   21.379228 C.2        1 MOL1        -0.1504
       5    H1      18.242112   19.511002   20.668076 H          1 MOL1         0.0814
       6    C3      19.754398   20.296409   21.929219 C.2        1 MOL1        -0.1394
       7    H2      20.041509   21.066959   22.644478 H          1 MOL1         0.0817
       8    C4      20.818812   19.268605   21.613180 C.3        1 MOL1        -0.1849
       9    H3      21.812222   19.699077   21.798163 H          1 MOL1         0.0736
      10    H4      20.784683   19.008425   20.546433 H          1 MOL1         0.0736
      11    C5      20.641204   17.995379   22.465451 C.3        1 MOL1        -0.1866
      12    H5      20.677865   18.257861   23.531906 H          1 MOL1         0.0738
      13    H6      19.649240   17.561093   22.278464 H          1 MOL1         0.0738
      14    C6      21.727963   16.946274   22.155840 C.3        1 MOL1        -0.2879
      15    H7      22.729548   17.344557   22.364714 H          1 MOL1         0.0750
      16    H8      21.585275   16.048443   22.771202 H          1 MOL1         0.0750
      17    H9      21.692406   16.643342   21.101135 H          1 MOL1         0.0750
@<TRIPOS>BOND
    1     1     2    1
    2     1     3    2
    3     1     4    1
    4     4     5    1
    5     4     6    2
    6     6     7    1
    7     6     8    1
    8     8     9    1
    9     8    10    1
   10     8    11    1
   11    11    12    1
   12    11    13    1
   13    11    14    1
   14    14    15    1
   15    14    16    1
   16    14    17    1
@<TRIPOS>SUBSTRUCTURE
       1 MOL1            1 RESIDUE      1      MOL     
@<SCITEGIC>MOL_PROPERTY
VConf Rank
SciTegic.value.IntegerValue
370

@<SCITEGIC>MOL_PROPERTY
Conf_Id
SciTegic.value.IntegerValue
1

@<SCITEGIC>MOL_PROPERTY
Delta U+W
SciTegic.value.DoubleValue
0.030

@<SCITEGIC>MOL_PROPERTY
U+W
SciTegic.value.DoubleValue
-53.378

@<SCITEGIC>MOL_PROPERTY
Grad RMS
SciTegic.value.DoubleValue
0.000000

@<SCITEGIC>MOL_PROPERTY
U
SciTegic.value.DoubleValue
9.048

@<SCITEGIC>MOL_PROPERTY
W
SciTegic.value.DoubleValue
-62.426

@<SCITEGIC>MOL_PROPERTY
W(PB)
SciTegic.value.DoubleValue
-64.506

@<SCITEGIC>MOL_PROPERTY
W(SA)
SciTegic.value.DoubleValue
2.080

@<SCITEGIC>MOL_PROPERTY
Valence
SciTegic.value.DoubleValue
2.652

@<SCITEGIC>MOL_PROPERTY
Coulomb
SciTegic.value.DoubleValue
5.578

@<SCITEGIC>MOL_PROPERTY
VdW
SciTegic.value.DoubleValue
0.818

@<SCITEGIC>MOL_PROPERTY
VdW6
SciTegic.value.DoubleValue
-4.535

@<SCITEGIC>MOL_PROPERTY
VdW12
SciTegic.value.DoubleValue
5.352

@<SCITEGIC>MOL_PROPERTY
Bond
SciTegic.value.DoubleValue
0.063

@<SCITEGIC>MOL_PROPERTY
Angle
SciTegic.value.DoubleValue
2.579

@<SCITEGIC>MOL_PROPERTY
Pdih
SciTegic.value.DoubleValue
0.010

@<SCITEGIC>MOL_PROPERTY
Idih
SciTegic.value.DoubleValue
0.000

@<SCITEGIC>MOL_PROPERTY
Tether
SciTegic.value.DoubleValue
0.000

@<TRIPOS>MOLECULE
guest-s19_confgen4.mol2 : confsearch ligand conformer 371
          17          16           1
SMALL
USER_CHARGES
 
@<TRIPOS>ATOM
       1    C1      22.068214   19.717852   24.262583 C.2        1 MOL1         0.6173
       2    O1      21.356051   19.652022   25.246925 O.co2      1 MOL1        -0.6755
       3    O2      23.282206   19.702656   24.324264 O.co2      1 MOL1        -0.6755
       4    C2      21.449872   19.825763   22.913472 C.2        1 MOL1        -0.1504
       5    H1      22.142530   19.881720   22.076899 H          1 MOL1         0.0814
       6    C3      20.115328   19.852437   22.696060 C.2        1 MOL1        -0.1394
       7    H2      19.412347   19.793581   23.526692 H          1 MOL1         0.0817
       8    C4      19.493167   19.958533   21.319588 C.3        1 MOL1        -0.1849
       9    H3      20.063190   20.674327   20.711937 H          1 MOL1         0.0736
      10    H4      18.476706   20.366688   21.400266 H          1 MOL1         0.0736
      11    C5      19.446974   18.598421   20.589161 C.3        1 MOL1        -0.1866
      12    H5      19.086183   18.753843   19.563087 H          1 MOL1         0.0738
      13    H6      20.462883   18.188048   20.505800 H          1 MOL1         0.0738
      14    C6      18.530475   17.577783   21.297004 C.3        1 MOL1        -0.2879
      15    H7      17.505513   17.962043   21.380325 H          1 MOL1         0.0750
      16    H8      18.494682   16.636034   20.734213 H          1 MOL1         0.0750
      17    H9      18.895236   17.352048   22.307556 H          1 MOL1         0.0750
@<TRIPOS>BOND
    1     1     2    1
    2     1     3    2
    3     1     4    1
    4     4     5    1
    5     4     6    2
    6     6     7    1
    7     6     8    1
    8     8     9    1
    9     8    10    1
   10     8    11    1
   11    11    12    1
   12    11    13    1
   13    11    14    1
   14    14    15    1
   15    14    16    1
   16    14    17    1
@<TRIPOS>SUBSTRUCTURE
       1 MOL1            1 RESIDUE      1      MOL     
@<SCITEGIC>MOL_PROPERTY
VConf Rank
SciTegic.value.IntegerValue
371

@<SCITEGIC>MOL_PROPERTY
Conf_Id
SciTegic.value.IntegerValue
3

@<SCITEGIC>MOL_PROPERTY
Delta U+W
SciTegic.value.DoubleValue
0.531

@<SCITEGIC>MOL_PROPERTY
U+W
SciTegic.value.DoubleValue
-52.878

@<SCITEGIC>MOL_PROPERTY
Grad RMS
SciTegic.value.DoubleValue
0.000000

@<SCITEGIC>MOL_PROPERTY
U
SciTegic.value.DoubleValue
10.067

@<SCITEGIC>MOL_PROPERTY
W
SciTegic.value.DoubleValue
-62.945

@<SCITEGIC>MOL_PROPERTY
W(PB)
SciTegic.value.DoubleValue
-64.982

@<SCITEGIC>MOL_PROPERTY
W(SA)
SciTegic.value.DoubleValue
2.037

@<SCITEGIC>MOL_PROPERTY
Valence
SciTegic.value.DoubleValue
2.779

@<SCITEGIC>MOL_PROPERTY
Coulomb
SciTegic.value.DoubleValue
6.474

@<SCITEGIC>MOL_PROPERTY
VdW
SciTegic.value.DoubleValue
0.815

@<SCITEGIC>MOL_PROPERTY
VdW6
SciTegic.value.DoubleValue
-5.088

@<SCITEGIC>MOL_PROPERTY
VdW12
SciTegic.value.DoubleValue
5.902

@<SCITEGIC>MOL_PROPERTY
Bond
SciTegic.value.DoubleValue
0.078

@<SCITEGIC>MOL_PROPERTY
Angle
SciTegic.value.DoubleValue
2.651

@<SCITEGIC>MOL_PROPERTY
Pdih
SciTegic.value.DoubleValue
0.050

@<SCITEGIC>MOL_PROPERTY
Idih
SciTegic.value.DoubleValue
0.000

@<SCITEGIC>MOL_PROPERTY
Tether
SciTegic.value.DoubleValue
0.000

@<TRIPOS>MOLECULE
guest-s19_confgen4.mol2 : confsearch ligand conformer 372
          17          16           1
SMALL
USER_CHARGES
 
@<TRIPOS>ATOM
       1    C1      21.431174   18.360484   19.535427 C.2        1 MOL1         0.6173
       2    O1      22.565319   18.625309   19.187054 O.co2      1 MOL1        -0.6755
       3    O2      20.556516   18.043498   18.751246 O.co2      1 MOL1        -0.6755
       4    C2      21.124699   18.431070   20.989787 C.2        1 MOL1        -0.1504
       5    H1      21.951166   18.720387   21.634731 H          1 MOL1         0.0814
       6    C3      19.907810   18.165420   21.517231 C.2        1 MOL1        -0.1394
       7    H2      19.073333   17.878428   20.877855 H          1 MOL1         0.0817
       8    C4      19.598182   18.240823   22.998036 C.3        1 MOL1        -0.1849
       9    H3      20.524999   18.230145   23.587643 H          1 MOL1         0.0736
      10    H4      19.038280   17.343395   23.293234 H          1 MOL1         0.0736
      11    C5      18.767198   19.491217   23.360177 C.3        1 MOL1        -0.1866
      12    H5      17.841101   19.504060   22.768875 H          1 MOL1         0.0738
      13    H6      18.465315   19.427910   24.414718 H          1 MOL1         0.0738
      14    C6      19.544818   20.806010   23.137784 C.3        1 MOL1        -0.2879
      15    H7      19.808591   20.936219   22.080181 H          1 MOL1         0.0750
      16    H8      18.938735   21.669168   23.441902 H          1 MOL1         0.0750
      17    H9      20.471643   20.818180   23.725950 H          1 MOL1         0.0750
@<TRIPOS>BOND
    1     1     2    1
    2     1     3    2
    3     1     4    1
    4     4     5    1
    5     4     6    2
    6     6     7    1
    7     6     8    1
    8     8     9    1
    9     8    10    1
   10     8    11    1
   11    11    12    1
   12    11    13    1
   13    11    14    1
   14    14    15    1
   15    14    16    1
   16    14    17    1
@<TRIPOS>SUBSTRUCTURE
       1 MOL1            1 RESIDUE      1      MOL     
@<SCITEGIC>MOL_PROPERTY
VConf Rank
SciTegic.value.IntegerValue
372

@<SCITEGIC>MOL_PROPERTY
Conf_Id
SciTegic.value.IntegerValue
45

@<SCITEGIC>MOL_PROPERTY
Delta U+W
SciTegic.value.DoubleValue
0.562

@<SCITEGIC>MOL_PROPERTY
U+W
SciTegic.value.DoubleValue
-52.846

@<SCITEGIC>MOL_PROPERTY
Grad RMS
SciTegic.value.DoubleValue
0.000000

@<SCITEGIC>MOL_PROPERTY
U
SciTegic.value.DoubleValue
10.243

@<SCITEGIC>MOL_PROPERTY
W
SciTegic.value.DoubleValue
-63.089

@<SCITEGIC>MOL_PROPERTY
W(PB)
SciTegic.value.DoubleValue
-65.116

@<SCITEGIC>MOL_PROPERTY
W(SA)
SciTegic.value.DoubleValue
2.026

@<SCITEGIC>MOL_PROPERTY
Valence
SciTegic.value.DoubleValue
2.822

@<SCITEGIC>MOL_PROPERTY
Coulomb
SciTegic.value.DoubleValue
6.637

@<SCITEGIC>MOL_PROPERTY
VdW
SciTegic.value.DoubleValue
0.785

@<SCITEGIC>MOL_PROPERTY
VdW6
SciTegic.value.DoubleValue
-5.216

@<SCITEGIC>MOL_PROPERTY
VdW12
SciTegic.value.DoubleValue
6.001

@<SCITEGIC>MOL_PROPERTY
Bond
SciTegic.value.DoubleValue
0.080

@<SCITEGIC>MOL_PROPERTY
Angle
SciTegic.value.DoubleValue
2.678

@<SCITEGIC>MOL_PROPERTY
Pdih
SciTegic.value.DoubleValue
0.064

@<SCITEGIC>MOL_PROPERTY
Idih
SciTegic.value.DoubleValue
0.000

@<SCITEGIC>MOL_PROPERTY
Tether
SciTegic.value.DoubleValue
0.000

@<TRIPOS>MOLECULE
guest-s19_confgen4.mol2 : confsearch ligand conformer 373
          17          16           1
SMALL
USER_CHARGES
 
@<TRIPOS>ATOM
       1    C1      22.196616   20.777221   19.972170 C.2        1 MOL1         0.6173
       2    O1      23.409852   20.810195   20.040525 O.co2      1 MOL1        -0.6755
       3    O2      21.552026   21.552215   19.290787 O.co2      1 MOL1        -0.6755
       4    C2      21.491479   19.733535   20.764422 C.2        1 MOL1        -0.1504
       5    H1      22.126212   19.073620   21.351393 H          1 MOL1         0.0814
       6    C3      20.147742   19.581638   20.783989 C.2        1 MOL1        -0.1394
       7    H2      19.502249   20.238788   20.201522 H          1 MOL1         0.0817
       8    C4      19.438324   18.518870   21.594229 C.3        1 MOL1        -0.1849
       9    H3      20.014166   17.583583   21.572967 H          1 MOL1         0.0736
      10    H4      18.464608   18.296745   21.137145 H          1 MOL1         0.0736
      11    C5      19.232026   18.970045   23.054672 C.3        1 MOL1        -0.1866
      12    H5      20.205708   19.188668   23.514789 H          1 MOL1         0.0738
      13    H6      18.654124   19.904522   23.073413 H          1 MOL1         0.0738
      14    C6      18.501023   17.895950   23.885021 C.3        1 MOL1        -0.2879
      15    H7      17.509894   17.681134   23.464368 H          1 MOL1         0.0750
      16    H8      19.074118   16.959750   23.908010 H          1 MOL1         0.0750
      17    H9      18.363585   18.234558   24.920196 H          1 MOL1         0.0750
@<TRIPOS>BOND
    1     1     2    1
    2     1     3    2
    3     1     4    1
    4     4     5    1
    5     4     6    2
    6     6     7    1
    7     6     8    1
    8     8     9    1
    9     8    10    1
   10     8    11    1
   11    11    12    1
   12    11    13    1
   13    11    14    1
   14    14    15    1
   15    14    16    1
   16    14    17    1
@<TRIPOS>SUBSTRUCTURE
       1 MOL1            1 RESIDUE      1      MOL     
@<SCITEGIC>MOL_PROPERTY
VConf Rank
SciTegic.value.IntegerValue
373

@<SCITEGIC>MOL_PROPERTY
Conf_Id
SciTegic.value.IntegerValue
36

@<SCITEGIC>MOL_PROPERTY
Delta U+W
SciTegic.value.DoubleValue
0.000

@<SCITEGIC>MOL_PROPERTY
U+W
SciTegic.value.DoubleValue
-53.409

@<SCITEGIC>MOL_PROPERTY
Grad RMS
SciTegic.value.DoubleValue
0.000000

@<SCITEGIC>MOL_PROPERTY
U
SciTegic.value.DoubleValue
9.048

@<SCITEGIC>MOL_PROPERTY
W
SciTegic.value.DoubleValue
-62.457

@<SCITEGIC>MOL_PROPERTY
W(PB)
SciTegic.value.DoubleValue
-64.540

@<SCITEGIC>MOL_PROPERTY
W(SA)
SciTegic.value.DoubleValue
2.084

@<SCITEGIC>MOL_PROPERTY
Valence
SciTegic.value.DoubleValue
2.652

@<SCITEGIC>MOL_PROPERTY
Coulomb
SciTegic.value.DoubleValue
5.578

@<SCITEGIC>MOL_PROPERTY
VdW
SciTegic.value.DoubleValue
0.818

@<SCITEGIC>MOL_PROPERTY
VdW6
SciTegic.value.DoubleValue
-4.534

@<SCITEGIC>MOL_PROPERTY
VdW12
SciTegic.value.DoubleValue
5.352

@<SCITEGIC>MOL_PROPERTY
Bond
SciTegic.value.DoubleValue
0.063

@<SCITEGIC>MOL_PROPERTY
Angle
SciTegic.value.DoubleValue
2.579

@<SCITEGIC>MOL_PROPERTY
Pdih
SciTegic.value.DoubleValue
0.010

@<SCITEGIC>MOL_PROPERTY
Idih
SciTegic.value.DoubleValue
0.000

@<SCITEGIC>MOL_PROPERTY
Tether
SciTegic.value.DoubleValue
0.000

@<TRIPOS>MOLECULE
guest-s19_confgen4.mol2 : confsearch ligand conformer 374
          17          16           1
SMALL
USER_CHARGES
 
@<TRIPOS>ATOM
       1    C1      23.233098   19.494969   20.989433 C.2        1 MOL1         0.6173
       2    O1      23.366590   20.662793   20.675171 O.co2      1 MOL1        -0.6755
       3    O2      24.082734   18.652466   20.774924 O.co2      1 MOL1        -0.6755
       4    C2      21.984407   19.054796   21.668537 C.2        1 MOL1        -0.1504
       5    H1      21.929157   17.998638   21.922285 H          1 MOL1         0.0814
       6    C3      20.957383   19.882232   21.967962 C.2        1 MOL1        -0.1394
       7    H2      21.001327   20.941714   21.716283 H          1 MOL1         0.0817
       8    C4      19.690022   19.426091   22.657144 C.3        1 MOL1        -0.1849
       9    H3      19.227860   20.275973   23.177234 H          1 MOL1         0.0736
      10    H4      19.929064   18.680608   23.427806 H          1 MOL1         0.0736
      11    C5      18.685947   18.829639   21.649625 C.3        1 MOL1        -0.1866
      12    H5      18.446776   19.577800   20.881108 H          1 MOL1         0.0738
      13    H6      19.145399   17.976545   21.131266 H          1 MOL1         0.0738
      14    C6      17.387467   18.370701   22.343058 C.3        1 MOL1        -0.2879
      15    H7      16.890507   19.212250   22.843316 H          1 MOL1         0.0750
      16    H8      16.686076   17.949675   21.610994 H          1 MOL1         0.0750
      17    H9      17.595678   17.598841   23.095598 H          1 MOL1         0.0750
@<TRIPOS>BOND
    1     1     2    1
    2     1     3    2
    3     1     4    1
    4     4     5    1
    5     4     6    2
    6     6     7    1
    7     6     8    1
    8     8     9    1
    9     8    10    1
   10     8    11    1
   11    11    12    1
   12    11    13    1
   13    11    14    1
   14    14    15    1
   15    14    16    1
   16    14    17    1
@<TRIPOS>SUBSTRUCTURE
       1 MOL1            1 RESIDUE      1      MOL     
@<SCITEGIC>MOL_PROPERTY
VConf Rank
SciTegic.value.IntegerValue
374

@<SCITEGIC>MOL_PROPERTY
Conf_Id
SciTegic.value.IntegerValue
1

@<SCITEGIC>MOL_PROPERTY
Delta U+W
SciTegic.value.DoubleValue
0.030

@<SCITEGIC>MOL_PROPERTY
U+W
SciTegic.value.DoubleValue
-53.378

@<SCITEGIC>MOL_PROPERTY
Grad RMS
SciTegic.value.DoubleValue
0.000000

@<SCITEGIC>MOL_PROPERTY
U
SciTegic.value.DoubleValue
9.048

@<SCITEGIC>MOL_PROPERTY
W
SciTegic.value.DoubleValue
-62.426

@<SCITEGIC>MOL_PROPERTY
W(PB)
SciTegic.value.DoubleValue
-64.506

@<SCITEGIC>MOL_PROPERTY
W(SA)
SciTegic.value.DoubleValue
2.080

@<SCITEGIC>MOL_PROPERTY
Valence
SciTegic.value.DoubleValue
2.652

@<SCITEGIC>MOL_PROPERTY
Coulomb
SciTegic.value.DoubleValue
5.578

@<SCITEGIC>MOL_PROPERTY
VdW
SciTegic.value.DoubleValue
0.818

@<SCITEGIC>MOL_PROPERTY
VdW6
SciTegic.value.DoubleValue
-4.535

@<SCITEGIC>MOL_PROPERTY
VdW12
SciTegic.value.DoubleValue
5.352

@<SCITEGIC>MOL_PROPERTY
Bond
SciTegic.value.DoubleValue
0.063

@<SCITEGIC>MOL_PROPERTY
Angle
SciTegic.value.DoubleValue
2.579

@<SCITEGIC>MOL_PROPERTY
Pdih
SciTegic.value.DoubleValue
0.010

@<SCITEGIC>MOL_PROPERTY
Idih
SciTegic.value.DoubleValue
0.000

@<SCITEGIC>MOL_PROPERTY
Tether
SciTegic.value.DoubleValue
0.000

@<TRIPOS>MOLECULE
guest-s19_confgen4.mol2 : confsearch ligand conformer 375
          17          16           1
SMALL
USER_CHARGES
 
@<TRIPOS>ATOM
       1    C1      21.180471   19.983143   24.760318 C.2        1 MOL1         0.6173
       2    O1      20.834868   19.053393   25.464991 O.co2      1 MOL1        -0.6755
       3    O2      22.029150   20.785976   25.096494 O.co2      1 MOL1        -0.6755
       4    C2      20.548963   20.168797   23.425844 C.2        1 MOL1        -0.1504
       5    H1      20.902562   21.019238   22.847503 H          1 MOL1         0.0814
       6    C3      19.594402   19.352905   22.923729 C.2        1 MOL1        -0.1394
       7    H2      19.235250   18.496016   23.493246 H          1 MOL1         0.0817
       8    C4      18.958953   19.545935   21.562863 C.3        1 MOL1        -0.1849
       9    H3      18.774170   20.614968   21.390960 H          1 MOL1         0.0736
      10    H4      17.975604   19.057374   21.537810 H          1 MOL1         0.0736
      11    C5      19.838962   18.994096   20.419788 C.3        1 MOL1        -0.1866
      12    H5      19.380725   19.254805   19.455836 H          1 MOL1         0.0738
      13    H6      20.823275   19.482033   20.441510 H          1 MOL1         0.0738
      14    C6      20.016105   17.462604   20.496366 C.3        1 MOL1        -0.2879
      15    H7      19.044439   16.952771   20.463490 H          1 MOL1         0.0750
      16    H8      20.617325   17.101017   19.652153 H          1 MOL1         0.0750
      17    H9      20.526334   17.168730   21.422933 H          1 MOL1         0.0750
@<TRIPOS>BOND
    1     1     2    1
    2     1     3    2
    3     1     4    1
    4     4     5    1
    5     4     6    2
    6     6     7    1
    7     6     8    1
    8     8     9    1
    9     8    10    1
   10     8    11    1
   11    11    12    1
   12    11    13    1
   13    11    14    1
   14    14    15    1
   15    14    16    1
   16    14    17    1
@<TRIPOS>SUBSTRUCTURE
       1 MOL1            1 RESIDUE      1      MOL     
@<SCITEGIC>MOL_PROPERTY
VConf Rank
SciTegic.value.IntegerValue
375

@<SCITEGIC>MOL_PROPERTY
Conf_Id
SciTegic.value.IntegerValue
3

@<SCITEGIC>MOL_PROPERTY
Delta U+W
SciTegic.value.DoubleValue
0.531

@<SCITEGIC>MOL_PROPERTY
U+W
SciTegic.value.DoubleValue
-52.878

@<SCITEGIC>MOL_PROPERTY
Grad RMS
SciTegic.value.DoubleValue
0.000000

@<SCITEGIC>MOL_PROPERTY
U
SciTegic.value.DoubleValue
10.067

@<SCITEGIC>MOL_PROPERTY
W
SciTegic.value.DoubleValue
-62.945

@<SCITEGIC>MOL_PROPERTY
W(PB)
SciTegic.value.DoubleValue
-64.982

@<SCITEGIC>MOL_PROPERTY
W(SA)
SciTegic.value.DoubleValue
2.037

@<SCITEGIC>MOL_PROPERTY
Valence
SciTegic.value.DoubleValue
2.779

@<SCITEGIC>MOL_PROPERTY
Coulomb
SciTegic.value.DoubleValue
6.474

@<SCITEGIC>MOL_PROPERTY
VdW
SciTegic.value.DoubleValue
0.815

@<SCITEGIC>MOL_PROPERTY
VdW6
SciTegic.value.DoubleValue
-5.088

@<SCITEGIC>MOL_PROPERTY
VdW12
SciTegic.value.DoubleValue
5.902

@<SCITEGIC>MOL_PROPERTY
Bond
SciTegic.value.DoubleValue
0.078

@<SCITEGIC>MOL_PROPERTY
Angle
SciTegic.value.DoubleValue
2.651

@<SCITEGIC>MOL_PROPERTY
Pdih
SciTegic.value.DoubleValue
0.050

@<SCITEGIC>MOL_PROPERTY
Idih
SciTegic.value.DoubleValue
0.000

@<SCITEGIC>MOL_PROPERTY
Tether
SciTegic.value.DoubleValue
0.000

@<TRIPOS>MOLECULE
guest-s19_confgen4.mol2 : confsearch ligand conformer 376
          17          16           1
SMALL
USER_CHARGES
 
@<TRIPOS>ATOM
       1    C1      21.209102   21.218891   20.313512 C.2        1 MOL1         0.6173
       2    O1      22.158784   21.947323   20.526282 O.co2      1 MOL1        -0.6755
       3    O2      20.360793   21.467087   19.477320 O.co2      1 MOL1        -0.6755
       4    C2      21.103230   19.973864   21.121456 C.2        1 MOL1        -0.1504
       5    H1      21.894206   19.813261   21.850339 H          1 MOL1         0.0814
       6    C3      20.100592   19.075098   20.992921 C.2        1 MOL1        -0.1394
       7    H2      19.302145   19.230092   20.267679 H          1 MOL1         0.0817
       8    C4      19.994076   17.809857   21.818848 C.3        1 MOL1        -0.1849
       9    H3      20.958393   17.572627   22.288481 H          1 MOL1         0.0736
      10    H4      19.762489   16.966645   21.154490 H          1 MOL1         0.0736
      11    C5      18.899007   17.908320   22.903420 C.3        1 MOL1        -0.1866
      12    H5      17.934513   18.148219   22.434743 H          1 MOL1         0.0738
      13    H6      18.779592   16.926727   23.382391 H          1 MOL1         0.0738
      14    C6      19.227442   18.959183   23.985385 C.3        1 MOL1        -0.2879
      15    H7      19.291123   19.966238   23.553139 H          1 MOL1         0.0750
      16    H8      18.448381   18.973758   24.758508 H          1 MOL1         0.0750
      17    H9      20.185010   18.734532   24.472917 H          1 MOL1         0.0750
@<TRIPOS>BOND
    1     1     2    1
    2     1     3    2
    3     1     4    1
    4     4     5    1
    5     4     6    2
    6     6     7    1
    7     6     8    1
    8     8     9    1
    9     8    10    1
   10     8    11    1
   11    11    12    1
   12    11    13    1
   13    11    14    1
   14    14    15    1
   15    14    16    1
   16    14    17    1
@<TRIPOS>SUBSTRUCTURE
       1 MOL1            1 RESIDUE      1      MOL     
@<SCITEGIC>MOL_PROPERTY
VConf Rank
SciTegic.value.IntegerValue
376

@<SCITEGIC>MOL_PROPERTY
Conf_Id
SciTegic.value.IntegerValue
45

@<SCITEGIC>MOL_PROPERTY
Delta U+W
SciTegic.value.DoubleValue
0.562

@<SCITEGIC>MOL_PROPERTY
U+W
SciTegic.value.DoubleValue
-52.846

@<SCITEGIC>MOL_PROPERTY
Grad RMS
SciTegic.value.DoubleValue
0.000000

@<SCITEGIC>MOL_PROPERTY
U
SciTegic.value.DoubleValue
10.243

@<SCITEGIC>MOL_PROPERTY
W
SciTegic.value.DoubleValue
-63.089

@<SCITEGIC>MOL_PROPERTY
W(PB)
SciTegic.value.DoubleValue
-65.116

@<SCITEGIC>MOL_PROPERTY
W(SA)
SciTegic.value.DoubleValue
2.026

@<SCITEGIC>MOL_PROPERTY
Valence
SciTegic.value.DoubleValue
2.822

@<SCITEGIC>MOL_PROPERTY
Coulomb
SciTegic.value.DoubleValue
6.637

@<SCITEGIC>MOL_PROPERTY
VdW
SciTegic.value.DoubleValue
0.785

@<SCITEGIC>MOL_PROPERTY
VdW6
SciTegic.value.DoubleValue
-5.216

@<SCITEGIC>MOL_PROPERTY
VdW12
SciTegic.value.DoubleValue
6.001

@<SCITEGIC>MOL_PROPERTY
Bond
SciTegic.value.DoubleValue
0.080

@<SCITEGIC>MOL_PROPERTY
Angle
SciTegic.value.DoubleValue
2.678

@<SCITEGIC>MOL_PROPERTY
Pdih
SciTegic.value.DoubleValue
0.064

@<SCITEGIC>MOL_PROPERTY
Idih
SciTegic.value.DoubleValue
0.000

@<SCITEGIC>MOL_PROPERTY
Tether
SciTegic.value.DoubleValue
0.000

@<TRIPOS>MOLECULE
guest-s19_confgen4.mol2 : confsearch ligand conformer 377
          17          16           1
SMALL
USER_CHARGES
 
@<TRIPOS>ATOM
       1    C1      23.128761   19.460847   23.108604 C.2        1 MOL1         0.6173
       2    O1      23.969934   18.608611   23.317948 O.co2      1 MOL1        -0.6755
       3    O2      23.224155   20.599794   23.525850 O.co2      1 MOL1        -0.6755
       4    C2      21.940098   19.070419   22.303117 C.2        1 MOL1        -0.1504
       5    H1      21.916780   18.038243   21.961098 H          1 MOL1         0.0814
       6    C3      20.928578   19.913529   21.994769 C.2        1 MOL1        -0.1394
       7    H2      20.940661   20.949069   22.334305 H          1 MOL1         0.0817
       8    C4      19.722092   19.507837   21.176818 C.3        1 MOL1        -0.1849
       9    H3      20.027099   18.828602   20.369093 H          1 MOL1         0.0736
      10    H4      19.290579   20.394549   20.693160 H          1 MOL1         0.0736
      11    C5      18.652008   18.826184   22.053905 C.3        1 MOL1        -0.1866
      12    H5      19.080978   17.936341   22.535284 H          1 MOL1         0.0738
      13    H6      18.347088   19.508213   22.859776 H          1 MOL1         0.0738
      14    C6      17.414748   18.418016   21.229217 C.3        1 MOL1        -0.2879
      15    H7      16.947077   19.294705   20.762170 H          1 MOL1         0.0750
      16    H8      17.687881   17.711007   20.434879 H          1 MOL1         0.0750
      17    H9      16.665236   17.935070   21.869627 H          1 MOL1         0.0750
@<TRIPOS>BOND
    1     1     2    1
    2     1     3    2
    3     1     4    1
    4     4     5    1
    5     4     6    2
    6     6     7    1
    7     6     8    1
    8     8     9    1
    9     8    10    1
   10     8    11    1
   11    11    12    1
   12    11    13    1
   13    11    14    1
   14    14    15    1
   15    14    16    1
   16    14    17    1
@<TRIPOS>SUBSTRUCTURE
       1 MOL1            1 RESIDUE      1      MOL     
@<SCITEGIC>MOL_PROPERTY
VConf Rank
SciTegic.value.IntegerValue
377

@<SCITEGIC>MOL_PROPERTY
Conf_Id
SciTegic.value.IntegerValue
36

@<SCITEGIC>MOL_PROPERTY
Delta U+W
SciTegic.value.DoubleValue
0.000

@<SCITEGIC>MOL_PROPERTY
U+W
SciTegic.value.DoubleValue
-53.409

@<SCITEGIC>MOL_PROPERTY
Grad RMS
SciTegic.value.DoubleValue
0.000000

@<SCITEGIC>MOL_PROPERTY
U
SciTegic.value.DoubleValue
9.048

@<SCITEGIC>MOL_PROPERTY
W
SciTegic.value.DoubleValue
-62.457

@<SCITEGIC>MOL_PROPERTY
W(PB)
SciTegic.value.DoubleValue
-64.540

@<SCITEGIC>MOL_PROPERTY
W(SA)
SciTegic.value.DoubleValue
2.084

@<SCITEGIC>MOL_PROPERTY
Valence
SciTegic.value.DoubleValue
2.652

@<SCITEGIC>MOL_PROPERTY
Coulomb
SciTegic.value.DoubleValue
5.578

@<SCITEGIC>MOL_PROPERTY
VdW
SciTegic.value.DoubleValue
0.818

@<SCITEGIC>MOL_PROPERTY
VdW6
SciTegic.value.DoubleValue
-4.534

@<SCITEGIC>MOL_PROPERTY
VdW12
SciTegic.value.DoubleValue
5.352

@<SCITEGIC>MOL_PROPERTY
Bond
SciTegic.value.DoubleValue
0.063

@<SCITEGIC>MOL_PROPERTY
Angle
SciTegic.value.DoubleValue
2.579

@<SCITEGIC>MOL_PROPERTY
Pdih
SciTegic.value.DoubleValue
0.010

@<SCITEGIC>MOL_PROPERTY
Idih
SciTegic.value.DoubleValue
0.000

@<SCITEGIC>MOL_PROPERTY
Tether
SciTegic.value.DoubleValue
0.000

@<TRIPOS>MOLECULE
guest-s19_confgen4.mol2 : confsearch ligand conformer 378
          17          16           1
SMALL
USER_CHARGES
 
@<TRIPOS>ATOM
       1    C1      18.435556   17.124502   24.151864 C.2        1 MOL1         0.6173
       2    O1      19.269969   16.360588   24.599730 O.co2      1 MOL1        -0.6755
       3    O2      17.244449   16.995248   24.357445 O.co2      1 MOL1        -0.6755
       4    C2      18.867686   18.275820   23.314074 C.2        1 MOL1        -0.1504
       5    H1      18.072293   18.919663   22.945664 H          1 MOL1         0.0814
       6    C3      20.157255   18.540343   23.004031 C.2        1 MOL1        -0.1394
       7    H2      20.961887   17.900573   23.366021 H          1 MOL1         0.0817
       8    C4      20.588120   19.712420   22.149731 C.3        1 MOL1        -0.1849
       9    H3      21.625037   19.982197   22.391419 H          1 MOL1         0.0736
      10    H4      19.973760   20.592828   22.382646 H          1 MOL1         0.0736
      11    C5      20.477361   19.383193   20.646947 C.3        1 MOL1        -0.1866
      12    H5      21.094351   18.503658   20.416063 H          1 MOL1         0.0738
      13    H6      19.439572   19.117008   20.402614 H          1 MOL1         0.0738
      14    C6      20.923599   20.569821   19.769274 C.3        1 MOL1        -0.2879
      15    H7      21.969329   20.836534   19.971129 H          1 MOL1         0.0750
      16    H8      20.837920   20.316994   18.704442 H          1 MOL1         0.0750
      17    H9      20.301349   21.454342   19.958651 H          1 MOL1         0.0750
@<TRIPOS>BOND
    1     1     2    1
    2     1     3    2
    3     1     4    1
    4     4     5    1
    5     4     6    2
    6     6     7    1
    7     6     8    1
    8     8     9    1
    9     8    10    1
   10     8    11    1
   11    11    12    1
   12    11    13    1
   13    11    14    1
   14    14    15    1
   15    14    16    1
   16    14    17    1
@<TRIPOS>SUBSTRUCTURE
       1 MOL1            1 RESIDUE      1      MOL     
@<SCITEGIC>MOL_PROPERTY
VConf Rank
SciTegic.value.IntegerValue
378

@<SCITEGIC>MOL_PROPERTY
Conf_Id
SciTegic.value.IntegerValue
1

@<SCITEGIC>MOL_PROPERTY
Delta U+W
SciTegic.value.DoubleValue
0.030

@<SCITEGIC>MOL_PROPERTY
U+W
SciTegic.value.DoubleValue
-53.378

@<SCITEGIC>MOL_PROPERTY
Grad RMS
SciTegic.value.DoubleValue
0.000000

@<SCITEGIC>MOL_PROPERTY
U
SciTegic.value.DoubleValue
9.048

@<SCITEGIC>MOL_PROPERTY
W
SciTegic.value.DoubleValue
-62.426

@<SCITEGIC>MOL_PROPERTY
W(PB)
SciTegic.value.DoubleValue
-64.506

@<SCITEGIC>MOL_PROPERTY
W(SA)
SciTegic.value.DoubleValue
2.080

@<SCITEGIC>MOL_PROPERTY
Valence
SciTegic.value.DoubleValue
2.652

@<SCITEGIC>MOL_PROPERTY
Coulomb
SciTegic.value.DoubleValue
5.578

@<SCITEGIC>MOL_PROPERTY
VdW
SciTegic.value.DoubleValue
0.818

@<SCITEGIC>MOL_PROPERTY
VdW6
SciTegic.value.DoubleValue
-4.535

@<SCITEGIC>MOL_PROPERTY
VdW12
SciTegic.value.DoubleValue
5.352

@<SCITEGIC>MOL_PROPERTY
Bond
SciTegic.value.DoubleValue
0.063

@<SCITEGIC>MOL_PROPERTY
Angle
SciTegic.value.DoubleValue
2.579

@<SCITEGIC>MOL_PROPERTY
Pdih
SciTegic.value.DoubleValue
0.010

@<SCITEGIC>MOL_PROPERTY
Idih
SciTegic.value.DoubleValue
0.000

@<SCITEGIC>MOL_PROPERTY
Tether
SciTegic.value.DoubleValue
0.000

@<TRIPOS>MOLECULE
guest-s19_confgen4.mol2 : confsearch ligand conformer 379
          17          16           1
SMALL
USER_CHARGES
 
@<TRIPOS>ATOM
       1    C1      21.336126   17.591245   19.701083 C.2        1 MOL1         0.6173
       2    O1      22.437707   17.374934   20.170305 O.co2      1 MOL1        -0.6755
       3    O2      20.914747   17.018287   18.715198 O.co2      1 MOL1        -0.6755
       4    C2      20.448783   18.599136   20.342076 C.2        1 MOL1        -0.1504
       5    H1      19.478772   18.744715   19.872347 H          1 MOL1         0.0814
       6    C3      20.786429   19.309226   21.442418 C.2        1 MOL1        -0.1394
       7    H2      21.754361   19.168860   21.923045 H          1 MOL1         0.0817
       8    C4      19.876398   20.330710   22.091593 C.3        1 MOL1        -0.1849
       9    H3      19.368377   20.917879   21.314629 H          1 MOL1         0.0736
      10    H4      20.473464   21.045269   22.674013 H          1 MOL1         0.0736
      11    C5      18.817033   19.676999   23.005906 C.3        1 MOL1        -0.1866
      12    H5      18.123979   20.451104   23.363104 H          1 MOL1         0.0738
      13    H6      18.217139   18.962308   22.425585 H          1 MOL1         0.0738
      14    C6      19.444918   18.962236   24.221466 C.3        1 MOL1        -0.2879
      15    H7      20.039674   19.661157   24.823895 H          1 MOL1         0.0750
      16    H8      18.663750   18.538987   24.866093 H          1 MOL1         0.0750
      17    H9      20.099902   18.140747   23.903077 H          1 MOL1         0.0750
@<TRIPOS>BOND
    1     1     2    1
    2     1     3    2
    3     1     4    1
    4     4     5    1
    5     4     6    2
    6     6     7    1
    7     6     8    1
    8     8     9    1
    9     8    10    1
   10     8    11    1
   11    11    12    1
   12    11    13    1
   13    11    14    1
   14    14    15    1
   15    14    16    1
   16    14    17    1
@<TRIPOS>SUBSTRUCTURE
       1 MOL1            1 RESIDUE      1      MOL     
@<SCITEGIC>MOL_PROPERTY
VConf Rank
SciTegic.value.IntegerValue
379

@<SCITEGIC>MOL_PROPERTY
Conf_Id
SciTegic.value.IntegerValue
3

@<SCITEGIC>MOL_PROPERTY
Delta U+W
SciTegic.value.DoubleValue
0.531

@<SCITEGIC>MOL_PROPERTY
U+W
SciTegic.value.DoubleValue
-52.878

@<SCITEGIC>MOL_PROPERTY
Grad RMS
SciTegic.value.DoubleValue
0.000000

@<SCITEGIC>MOL_PROPERTY
U
SciTegic.value.DoubleValue
10.067

@<SCITEGIC>MOL_PROPERTY
W
SciTegic.value.DoubleValue
-62.945

@<SCITEGIC>MOL_PROPERTY
W(PB)
SciTegic.value.DoubleValue
-64.982

@<SCITEGIC>MOL_PROPERTY
W(SA)
SciTegic.value.DoubleValue
2.037

@<SCITEGIC>MOL_PROPERTY
Valence
SciTegic.value.DoubleValue
2.779

@<SCITEGIC>MOL_PROPERTY
Coulomb
SciTegic.value.DoubleValue
6.474

@<SCITEGIC>MOL_PROPERTY
VdW
SciTegic.value.DoubleValue
0.815

@<SCITEGIC>MOL_PROPERTY
VdW6
SciTegic.value.DoubleValue
-5.088

@<SCITEGIC>MOL_PROPERTY
VdW12
SciTegic.value.DoubleValue
5.902

@<SCITEGIC>MOL_PROPERTY
Bond
SciTegic.value.DoubleValue
0.078

@<SCITEGIC>MOL_PROPERTY
Angle
SciTegic.value.DoubleValue
2.651

@<SCITEGIC>MOL_PROPERTY
Pdih
SciTegic.value.DoubleValue
0.050

@<SCITEGIC>MOL_PROPERTY
Idih
SciTegic.value.DoubleValue
0.000

@<SCITEGIC>MOL_PROPERTY
Tether
SciTegic.value.DoubleValue
0.000

@<TRIPOS>MOLECULE
guest-s19_confgen4.mol2 : confsearch ligand conformer 380
          17          16           1
SMALL
USER_CHARGES
 
@<TRIPOS>ATOM
       1    C1      21.215192   17.356923   24.209299 C.2        1 MOL1         0.6173
       2    O1      21.234379   17.504951   25.415740 O.co2      1 MOL1        -0.6755
       3    O2      22.009164   16.649439   23.618095 O.co2      1 MOL1        -0.6755
       4    C2      20.163494   18.080362   23.444682 C.2        1 MOL1        -0.1504
       5    H1      19.487072   18.694818   24.034262 H          1 MOL1         0.0814
       6    C3      20.025818   18.009922   22.100931 C.2        1 MOL1        -0.1394
       7    H2      20.701503   17.399572   21.502232 H          1 MOL1         0.0817
       8    C4      18.955803   18.749794   21.325047 C.3        1 MOL1        -0.1849
       9    H3      18.151459   19.081115   21.995864 H          1 MOL1         0.0736
      10    H4      18.490790   18.059580   20.608545 H          1 MOL1         0.0736
      11    C5      19.522749   19.963100   20.555874 C.3        1 MOL1        -0.1866
      12    H5      20.329235   19.632939   19.886521 H          1 MOL1         0.0738
      13    H6      18.734464   20.381364   19.914891 H          1 MOL1         0.0738
      14    C6      20.046837   21.069951   21.495579 C.3        1 MOL1        -0.2879
      15    H7      20.881630   20.706514   22.108838 H          1 MOL1         0.0750
      16    H8      20.405049   21.930665   20.916165 H          1 MOL1         0.0750
      17    H9      19.254240   21.420711   22.169264 H          1 MOL1         0.0750
@<TRIPOS>BOND
    1     1     2    1
    2     1     3    2
    3     1     4    1
    4     4     5    1
    5     4     6    2
    6     6     7    1
    7     6     8    1
    8     8     9    1
    9     8    10    1
   10     8    11    1
   11    11    12    1
   12    11    13    1
   13    11    14    1
   14    14    15    1
   15    14    16    1
   16    14    17    1
@<TRIPOS>SUBSTRUCTURE
       1 MOL1            1 RESIDUE      1      MOL     
@<SCITEGIC>MOL_PROPERTY
VConf Rank
SciTegic.value.IntegerValue
380

@<SCITEGIC>MOL_PROPERTY
Conf_Id
SciTegic.value.IntegerValue
45

@<SCITEGIC>MOL_PROPERTY
Delta U+W
SciTegic.value.DoubleValue
0.562

@<SCITEGIC>MOL_PROPERTY
U+W
SciTegic.value.DoubleValue
-52.846

@<SCITEGIC>MOL_PROPERTY
Grad RMS
SciTegic.value.DoubleValue
0.000000

@<SCITEGIC>MOL_PROPERTY
U
SciTegic.value.DoubleValue
10.243

@<SCITEGIC>MOL_PROPERTY
W
SciTegic.value.DoubleValue
-63.089

@<SCITEGIC>MOL_PROPERTY
W(PB)
SciTegic.value.DoubleValue
-65.116

@<SCITEGIC>MOL_PROPERTY
W(SA)
SciTegic.value.DoubleValue
2.026

@<SCITEGIC>MOL_PROPERTY
Valence
SciTegic.value.DoubleValue
2.822

@<SCITEGIC>MOL_PROPERTY
Coulomb
SciTegic.value.DoubleValue
6.637

@<SCITEGIC>MOL_PROPERTY
VdW
SciTegic.value.DoubleValue
0.785

@<SCITEGIC>MOL_PROPERTY
VdW6
SciTegic.value.DoubleValue
-5.216

@<SCITEGIC>MOL_PROPERTY
VdW12
SciTegic.value.DoubleValue
6.001

@<SCITEGIC>MOL_PROPERTY
Bond
SciTegic.value.DoubleValue
0.080

@<SCITEGIC>MOL_PROPERTY
Angle
SciTegic.value.DoubleValue
2.678

@<SCITEGIC>MOL_PROPERTY
Pdih
SciTegic.value.DoubleValue
0.064

@<SCITEGIC>MOL_PROPERTY
Idih
SciTegic.value.DoubleValue
0.000

@<SCITEGIC>MOL_PROPERTY
Tether
SciTegic.value.DoubleValue
0.000

@<TRIPOS>MOLECULE
guest-s19_confgen4.mol2 : confsearch ligand conformer 381
          17          16           1
SMALL
USER_CHARGES
 
@<TRIPOS>ATOM
       1    C1      18.329161   19.049551   18.980175 C.2        1 MOL1         0.6173
       2    O1      17.645798   18.164329   18.503624 O.co2      1 MOL1        -0.6755
       3    O2      18.710567   20.008915   18.336324 O.co2      1 MOL1        -0.6755
       4    C2      18.701469   18.933223   20.416147 C.2        1 MOL1        -0.1504
       5    H1      18.328302   18.052207   20.933319 H          1 MOL1         0.0814
       6    C3      19.456490   19.841478   21.075010 C.2        1 MOL1        -0.1394
       7    H2      19.837526   20.726576   20.565907 H          1 MOL1         0.0817
       8    C4      19.832451   19.714550   22.535071 C.3        1 MOL1        -0.1849
       9    H3      18.987496   19.306537   23.106373 H          1 MOL1         0.0736
      10    H4      20.038149   20.710565   22.949835 H          1 MOL1         0.0736
      11    C5      21.069934   18.812696   22.720304 C.3        1 MOL1        -0.1866
      12    H5      20.864285   17.814410   22.309579 H          1 MOL1         0.0738
      13    H6      21.914212   19.223931   22.149648 H          1 MOL1         0.0738
      14    C6      21.465384   18.685785   24.205241 C.3        1 MOL1        -0.2879
      15    H7      21.707422   19.667653   24.632774 H          1 MOL1         0.0750
      16    H8      20.648296   18.247620   24.793301 H          1 MOL1         0.0750
      17    H9      22.346809   18.041011   24.316987 H          1 MOL1         0.0750
@<TRIPOS>BOND
    1     1     2    1
    2     1     3    2
    3     1     4    1
    4     4     5    1
    5     4     6    2
    6     6     7    1
    7     6     8    1
    8     8     9    1
    9     8    10    1
   10     8    11    1
   11    11    12    1
   12    11    13    1
   13    11    14    1
   14    14    15    1
   15    14    16    1
   16    14    17    1
@<TRIPOS>SUBSTRUCTURE
       1 MOL1            1 RESIDUE      1      MOL     
@<SCITEGIC>MOL_PROPERTY
VConf Rank
SciTegic.value.IntegerValue
381

@<SCITEGIC>MOL_PROPERTY
Conf_Id
SciTegic.value.IntegerValue
36

@<SCITEGIC>MOL_PROPERTY
Delta U+W
SciTegic.value.DoubleValue
0.000

@<SCITEGIC>MOL_PROPERTY
U+W
SciTegic.value.DoubleValue
-53.409

@<SCITEGIC>MOL_PROPERTY
Grad RMS
SciTegic.value.DoubleValue
0.000000

@<SCITEGIC>MOL_PROPERTY
U
SciTegic.value.DoubleValue
9.048

@<SCITEGIC>MOL_PROPERTY
W
SciTegic.value.DoubleValue
-62.457

@<SCITEGIC>MOL_PROPERTY
W(PB)
SciTegic.value.DoubleValue
-64.540

@<SCITEGIC>MOL_PROPERTY
W(SA)
SciTegic.value.DoubleValue
2.084

@<SCITEGIC>MOL_PROPERTY
Valence
SciTegic.value.DoubleValue
2.652

@<SCITEGIC>MOL_PROPERTY
Coulomb
SciTegic.value.DoubleValue
5.578

@<SCITEGIC>MOL_PROPERTY
VdW
SciTegic.value.DoubleValue
0.818

@<SCITEGIC>MOL_PROPERTY
VdW6
SciTegic.value.DoubleValue
-4.534

@<SCITEGIC>MOL_PROPERTY
VdW12
SciTegic.value.DoubleValue
5.352

@<SCITEGIC>MOL_PROPERTY
Bond
SciTegic.value.DoubleValue
0.063

@<SCITEGIC>MOL_PROPERTY
Angle
SciTegic.value.DoubleValue
2.579

@<SCITEGIC>MOL_PROPERTY
Pdih
SciTegic.value.DoubleValue
0.010

@<SCITEGIC>MOL_PROPERTY
Idih
SciTegic.value.DoubleValue
0.000

@<SCITEGIC>MOL_PROPERTY
Tether
SciTegic.value.DoubleValue
0.000

@<TRIPOS>MOLECULE
guest-s19_confgen4.mol2 : confsearch ligand conformer 382
          17          16           1
SMALL
USER_CHARGES
 
@<TRIPOS>ATOM
       1    C1      20.696407   17.344632   24.716167 C.2        1 MOL1         0.6173
       2    O1      20.105836   16.284935   24.623101 O.co2      1 MOL1        -0.6755
       3    O2      21.227452   17.716184   25.744586 O.co2      1 MOL1        -0.6755
       4    C2      20.787347   18.241689   23.532452 C.2        1 MOL1        -0.1504
       5    H1      21.328778   19.172851   23.683112 H          1 MOL1         0.0814
       6    C3      20.243559   17.956887   22.327351 C.2        1 MOL1        -0.1394
       7    H2      19.697153   17.027810   22.166010 H          1 MOL1         0.0817
       8    C4      20.339037   18.875637   21.129009 C.3        1 MOL1        -0.1849
       9    H3      20.239048   18.288251   20.206314 H          1 MOL1         0.0736
      10    H4      21.331349   19.345654   21.094255 H          1 MOL1         0.0736
      11    C5      19.248043   19.965239   21.167962 C.3        1 MOL1        -0.1866
      12    H5      18.256468   19.492707   21.200496 H          1 MOL1         0.0738
      13    H6      19.349217   20.556534   22.088665 H          1 MOL1         0.0738
      14    C6      19.332788   20.900402   19.944927 C.3        1 MOL1        -0.2879
      15    H7      19.202846   20.338404   19.010741 H          1 MOL1         0.0750
      16    H8      18.549488   21.668207   19.990154 H          1 MOL1         0.0750
      17    H9      20.304674   21.409708   19.906443 H          1 MOL1         0.0750
@<TRIPOS>BOND
    1     1     2    1
    2     1     3    2
    3     1     4    1
    4     4     5    1
    5     4     6    2
    6     6     7    1
    7     6     8    1
    8     8     9    1
    9     8    10    1
   10     8    11    1
   11    11    12    1
   12    11    13    1
   13    11    14    1
   14    14    15    1
   15    14    16    1
   16    14    17    1
@<TRIPOS>SUBSTRUCTURE
       1 MOL1            1 RESIDUE      1      MOL     
@<SCITEGIC>MOL_PROPERTY
VConf Rank
SciTegic.value.IntegerValue
382

@<SCITEGIC>MOL_PROPERTY
Conf_Id
SciTegic.value.IntegerValue
1

@<SCITEGIC>MOL_PROPERTY
Delta U+W
SciTegic.value.DoubleValue
0.030

@<SCITEGIC>MOL_PROPERTY
U+W
SciTegic.value.DoubleValue
-53.378

@<SCITEGIC>MOL_PROPERTY
Grad RMS
SciTegic.value.DoubleValue
0.000000

@<SCITEGIC>MOL_PROPERTY
U
SciTegic.value.DoubleValue
9.048

@<SCITEGIC>MOL_PROPERTY
W
SciTegic.value.DoubleValue
-62.426

@<SCITEGIC>MOL_PROPERTY
W(PB)
SciTegic.value.DoubleValue
-64.506

@<SCITEGIC>MOL_PROPERTY
W(SA)
SciTegic.value.DoubleValue
2.080

@<SCITEGIC>MOL_PROPERTY
Valence
SciTegic.value.DoubleValue
2.652

@<SCITEGIC>MOL_PROPERTY
Coulomb
SciTegic.value.DoubleValue
5.578

@<SCITEGIC>MOL_PROPERTY
VdW
SciTegic.value.DoubleValue
0.818

@<SCITEGIC>MOL_PROPERTY
VdW6
SciTegic.value.DoubleValue
-4.535

@<SCITEGIC>MOL_PROPERTY
VdW12
SciTegic.value.DoubleValue
5.352

@<SCITEGIC>MOL_PROPERTY
Bond
SciTegic.value.DoubleValue
0.063

@<SCITEGIC>MOL_PROPERTY
Angle
SciTegic.value.DoubleValue
2.579

@<SCITEGIC>MOL_PROPERTY
Pdih
SciTegic.value.DoubleValue
0.010

@<SCITEGIC>MOL_PROPERTY
Idih
SciTegic.value.DoubleValue
0.000

@<SCITEGIC>MOL_PROPERTY
Tether
SciTegic.value.DoubleValue
0.000

@<TRIPOS>MOLECULE
guest-s19_confgen4.mol2 : confsearch ligand conformer 383
          17          16           1
SMALL
USER_CHARGES
 
@<TRIPOS>ATOM
       1    C1      19.963166   21.312651   19.917819 C.2        1 MOL1         0.6173
       2    O1      20.185977   22.286784   20.611981 O.co2      1 MOL1        -0.6755
       3    O2      20.059116   21.330017   18.706083 O.co2      1 MOL1        -0.6755
       4    C2      19.550346   20.033593   20.556320 C.2        1 MOL1        -0.1504
       5    H1      19.365917   19.202820   19.879148 H          1 MOL1         0.0814
       6    C3      19.404920   19.870006   21.890890 C.2        1 MOL1        -0.1394
       7    H2      19.590402   20.694722   22.578667 H          1 MOL1         0.0817
       8    C4      18.988136   18.563919   22.533885 C.3        1 MOL1        -0.1849
       9    H3      18.197811   18.093479   21.933386 H          1 MOL1         0.0736
      10    H4      18.547866   18.758135   23.521172 H          1 MOL1         0.0736
      11    C5      20.167962   17.577843   22.679580 C.3        1 MOL1        -0.1866
      12    H5      19.788461   16.616130   23.051388 H          1 MOL1         0.0738
      13    H6      20.609828   17.380573   21.693037 H          1 MOL1         0.0738
      14    C6      21.256993   18.096755   23.642624 C.3        1 MOL1        -0.2879
      15    H7      20.840140   18.289053   24.639820 H          1 MOL1         0.0750
      16    H8      22.062181   17.358263   23.748495 H          1 MOL1         0.0750
      17    H9      21.702336   19.029056   23.271538 H          1 MOL1         0.0750
@<TRIPOS>BOND
    1     1     2    1
    2     1     3    2
    3     1     4    1
    4     4     5    1
    5     4     6    2
    6     6     7    1
    7     6     8    1
    8     8     9    1
    9     8    10    1
   10     8    11    1
   11    11    12    1
   12    11    13    1
   13    11    14    1
   14    14    15    1
   15    14    16    1
   16    14    17    1
@<TRIPOS>SUBSTRUCTURE
       1 MOL1            1 RESIDUE      1      MOL     
@<SCITEGIC>MOL_PROPERTY
VConf Rank
SciTegic.value.IntegerValue
383

@<SCITEGIC>MOL_PROPERTY
Conf_Id
SciTegic.value.IntegerValue
3

@<SCITEGIC>MOL_PROPERTY
Delta U+W
SciTegic.value.DoubleValue
0.531

@<SCITEGIC>MOL_PROPERTY
U+W
SciTegic.value.DoubleValue
-52.878

@<SCITEGIC>MOL_PROPERTY
Grad RMS
SciTegic.value.DoubleValue
0.000000

@<SCITEGIC>MOL_PROPERTY
U
SciTegic.value.DoubleValue
10.067

@<SCITEGIC>MOL_PROPERTY
W
SciTegic.value.DoubleValue
-62.945

@<SCITEGIC>MOL_PROPERTY
W(PB)
SciTegic.value.DoubleValue
-64.982

@<SCITEGIC>MOL_PROPERTY
W(SA)
SciTegic.value.DoubleValue
2.037

@<SCITEGIC>MOL_PROPERTY
Valence
SciTegic.value.DoubleValue
2.779

@<SCITEGIC>MOL_PROPERTY
Coulomb
SciTegic.value.DoubleValue
6.474

@<SCITEGIC>MOL_PROPERTY
VdW
SciTegic.value.DoubleValue
0.815

@<SCITEGIC>MOL_PROPERTY
VdW6
SciTegic.value.DoubleValue
-5.088

@<SCITEGIC>MOL_PROPERTY
VdW12
SciTegic.value.DoubleValue
5.902

@<SCITEGIC>MOL_PROPERTY
Bond
SciTegic.value.DoubleValue
0.078

@<SCITEGIC>MOL_PROPERTY
Angle
SciTegic.value.DoubleValue
2.651

@<SCITEGIC>MOL_PROPERTY
Pdih
SciTegic.value.DoubleValue
0.050

@<SCITEGIC>MOL_PROPERTY
Idih
SciTegic.value.DoubleValue
0.000

@<SCITEGIC>MOL_PROPERTY
Tether
SciTegic.value.DoubleValue
0.000

@<TRIPOS>MOLECULE
guest-s19_confgen4.mol2 : confsearch ligand conformer 384
          17          16           1
SMALL
USER_CHARGES
 
@<TRIPOS>ATOM
       1    C1      22.190648   20.731591   20.829860 C.2        1 MOL1         0.6173
       2    O1      23.318042   20.398793   20.520006 O.co2      1 MOL1        -0.6755
       3    O2      21.871972   21.891041   21.015788 O.co2      1 MOL1        -0.6755
       4    C2      21.173076   19.656247   20.979039 C.2        1 MOL1        -0.1504
       5    H1      21.524462   18.642999   20.798587 H          1 MOL1         0.0814
       6    C3      19.883833   19.880942   21.321016 C.2        1 MOL1        -0.1394
       7    H2      19.524340   20.892687   21.507176 H          1 MOL1         0.0817
       8    C4      18.850883   18.783809   21.474800 C.3        1 MOL1        -0.1849
       9    H3      19.191841   17.860830   20.986335 H          1 MOL1         0.0736
      10    H4      17.930832   19.082386   20.954831 H          1 MOL1         0.0736
      11    C5      18.518365   18.495129   22.955091 C.3        1 MOL1        -0.1866
      12    H5      18.179718   19.418497   23.445161 H          1 MOL1         0.0738
      13    H6      17.678387   17.788460   23.002572 H          1 MOL1         0.0738
      14    C6      19.716564   17.904731   23.728769 C.3        1 MOL1        -0.2879
      15    H7      20.556054   18.611439   23.758343 H          1 MOL1         0.0750
      16    H8      19.432759   17.676231   24.764196 H          1 MOL1         0.0750
      17    H9      20.067103   16.975907   23.260259 H          1 MOL1         0.0750
@<TRIPOS>BOND
    1     1     2    1
    2     1     3    2
    3     1     4    1
    4     4     5    1
    5     4     6    2
    6     6     7    1
    7     6     8    1
    8     8     9    1
    9     8    10    1
   10     8    11    1
   11    11    12    1
   12    11    13    1
   13    11    14    1
   14    14    15    1
   15    14    16    1
   16    14    17    1
@<TRIPOS>SUBSTRUCTURE
       1 MOL1            1 RESIDUE      1      MOL     
@<SCITEGIC>MOL_PROPERTY
VConf Rank
SciTegic.value.IntegerValue
384

@<SCITEGIC>MOL_PROPERTY
Conf_Id
SciTegic.value.IntegerValue
45

@<SCITEGIC>MOL_PROPERTY
Delta U+W
SciTegic.value.DoubleValue
0.562

@<SCITEGIC>MOL_PROPERTY
U+W
SciTegic.value.DoubleValue
-52.846

@<SCITEGIC>MOL_PROPERTY
Grad RMS
SciTegic.value.DoubleValue
0.000000

@<SCITEGIC>MOL_PROPERTY
U
SciTegic.value.DoubleValue
10.243

@<SCITEGIC>MOL_PROPERTY
W
SciTegic.value.DoubleValue
-63.089

@<SCITEGIC>MOL_PROPERTY
W(PB)
SciTegic.value.DoubleValue
-65.116

@<SCITEGIC>MOL_PROPERTY
W(SA)
SciTegic.value.DoubleValue
2.026

@<SCITEGIC>MOL_PROPERTY
Valence
SciTegic.value.DoubleValue
2.822

@<SCITEGIC>MOL_PROPERTY
Coulomb
SciTegic.value.DoubleValue
6.637

@<SCITEGIC>MOL_PROPERTY
VdW
SciTegic.value.DoubleValue
0.785

@<SCITEGIC>MOL_PROPERTY
VdW6
SciTegic.value.DoubleValue
-5.216

@<SCITEGIC>MOL_PROPERTY
VdW12
SciTegic.value.DoubleValue
6.001

@<SCITEGIC>MOL_PROPERTY
Bond
SciTegic.value.DoubleValue
0.080

@<SCITEGIC>MOL_PROPERTY
Angle
SciTegic.value.DoubleValue
2.678

@<SCITEGIC>MOL_PROPERTY
Pdih
SciTegic.value.DoubleValue
0.064

@<SCITEGIC>MOL_PROPERTY
Idih
SciTegic.value.DoubleValue
0.000

@<SCITEGIC>MOL_PROPERTY
Tether
SciTegic.value.DoubleValue
0.000

@<TRIPOS>MOLECULE
guest-s19_confgen4.mol2 : confsearch ligand conformer 385
          17          16           1
SMALL
USER_CHARGES
 
@<TRIPOS>ATOM
       1    C1      18.222068   20.759944   19.558880 C.2        1 MOL1         0.6173
       2    O1      18.575001   21.149262   18.462716 O.co2      1 MOL1        -0.6755
       3    O2      17.183419   21.115597   20.083391 O.co2      1 MOL1        -0.6755
       4    C2      19.115499   19.806000   20.270171 C.2        1 MOL1        -0.1504
       5    H1      20.027429   19.529062   19.746151 H          1 MOL1         0.0814
       6    C3      18.849755   19.293275   21.493109 C.2        1 MOL1        -0.1394
       7    H2      17.940167   19.565818   22.028033 H          1 MOL1         0.0817
       8    C4      19.764846   18.325228   22.210556 C.3        1 MOL1        -0.1849
       9    H3      20.201098   17.618037   21.491965 H          1 MOL1         0.0736
      10    H4      19.181242   17.726674   22.922965 H          1 MOL1         0.0736
      11    C5      20.890657   19.066710   22.960069 C.3        1 MOL1        -0.1866
      12    H5      21.478181   19.662816   22.248006 H          1 MOL1         0.0738
      13    H6      20.451872   19.771913   23.679599 H          1 MOL1         0.0738
      14    C6      21.822445   18.087412   23.701873 C.3        1 MOL1        -0.2879
      15    H7      21.265189   17.500264   24.443598 H          1 MOL1         0.0750
      16    H8      22.298550   17.390209   22.999970 H          1 MOL1         0.0750
      17    H9      22.616333   18.632816   24.228567 H          1 MOL1         0.0750
@<TRIPOS>BOND
    1     1     2    1
    2     1     3    2
    3     1     4    1
    4     4     5    1
    5     4     6    2
    6     6     7    1
    7     6     8    1
    8     8     9    1
    9     8    10    1
   10     8    11    1
   11    11    12    1
   12    11    13    1
   13    11    14    1
   14    14    15    1
   15    14    16    1
   16    14    17    1
@<TRIPOS>SUBSTRUCTURE
       1 MOL1            1 RESIDUE      1      MOL     
@<SCITEGIC>MOL_PROPERTY
VConf Rank
SciTegic.value.IntegerValue
385

@<SCITEGIC>MOL_PROPERTY
Conf_Id
SciTegic.value.IntegerValue
36

@<SCITEGIC>MOL_PROPERTY
Delta U+W
SciTegic.value.DoubleValue
0.000

@<SCITEGIC>MOL_PROPERTY
U+W
SciTegic.value.DoubleValue
-53.409

@<SCITEGIC>MOL_PROPERTY
Grad RMS
SciTegic.value.DoubleValue
0.000000

@<SCITEGIC>MOL_PROPERTY
U
SciTegic.value.DoubleValue
9.048

@<SCITEGIC>MOL_PROPERTY
W
SciTegic.value.DoubleValue
-62.457

@<SCITEGIC>MOL_PROPERTY
W(PB)
SciTegic.value.DoubleValue
-64.540

@<SCITEGIC>MOL_PROPERTY
W(SA)
SciTegic.value.DoubleValue
2.084

@<SCITEGIC>MOL_PROPERTY
Valence
SciTegic.value.DoubleValue
2.652

@<SCITEGIC>MOL_PROPERTY
Coulomb
SciTegic.value.DoubleValue
5.578

@<SCITEGIC>MOL_PROPERTY
VdW
SciTegic.value.DoubleValue
0.818

@<SCITEGIC>MOL_PROPERTY
VdW6
SciTegic.value.DoubleValue
-4.534

@<SCITEGIC>MOL_PROPERTY
VdW12
SciTegic.value.DoubleValue
5.352

@<SCITEGIC>MOL_PROPERTY
Bond
SciTegic.value.DoubleValue
0.063

@<SCITEGIC>MOL_PROPERTY
Angle
SciTegic.value.DoubleValue
2.579

@<SCITEGIC>MOL_PROPERTY
Pdih
SciTegic.value.DoubleValue
0.010

@<SCITEGIC>MOL_PROPERTY
Idih
SciTegic.value.DoubleValue
0.000

@<SCITEGIC>MOL_PROPERTY
Tether
SciTegic.value.DoubleValue
0.000

@<TRIPOS>MOLECULE
guest-s19_confgen4.mol2 : confsearch ligand conformer 386
          17          16           1
SMALL
USER_CHARGES
 
@<TRIPOS>ATOM
       1    C1      17.171908   17.807478   23.196698 C.2        1 MOL1         0.6173
       2    O1      16.258489   18.507560   22.801801 O.co2      1 MOL1        -0.6755
       3    O2      17.030532   16.962226   24.058827 O.co2      1 MOL1        -0.6755
       4    C2      18.530511   17.973606   22.612950 C.2        1 MOL1        -0.1504
       5    H1      19.301209   17.316872   23.009983 H          1 MOL1         0.0814
       6    C3      18.832046   18.873627   21.649558 C.2        1 MOL1        -0.1394
       7    H2      18.068048   19.537999   21.246208 H          1 MOL1         0.0817
       8    C4      20.216900   19.037445   21.062549 C.3        1 MOL1        -0.1849
       9    H3      20.140534   19.464828   20.053639 H          1 MOL1         0.0736
      10    H4      20.695870   18.055193   20.950407 H          1 MOL1         0.0736
      11    C5      21.096570   19.947972   21.943537 C.3        1 MOL1        -0.1866
      12    H5      20.616503   20.930440   22.052431 H          1 MOL1         0.0738
      13    H6      21.177377   19.519636   22.952278 H          1 MOL1         0.0738
      14    C6      22.507107   20.127500   21.347147 C.3        1 MOL1        -0.2879
      15    H7      22.456959   20.584040   20.349907 H          1 MOL1         0.0750
      16    H8      23.117701   20.777697   21.987106 H          1 MOL1         0.0750
      17    H9      23.021227   19.161612   21.256716 H          1 MOL1         0.0750
@<TRIPOS>BOND
    1     1     2    1
    2     1     3    2
    3     1     4    1
    4     4     5    1
    5     4     6    2
    6     6     7    1
    7     6     8    1
    8     8     9    1
    9     8    10    1
   10     8    11    1
   11    11    12    1
   12    11    13    1
   13    11    14    1
   14    14    15    1
   15    14    16    1
   16    14    17    1
@<TRIPOS>SUBSTRUCTURE
       1 MOL1            1 RESIDUE      1      MOL     
@<SCITEGIC>MOL_PROPERTY
VConf Rank
SciTegic.value.IntegerValue
386

@<SCITEGIC>MOL_PROPERTY
Conf_Id
SciTegic.value.IntegerValue
1

@<SCITEGIC>MOL_PROPERTY
Delta U+W
SciTegic.value.DoubleValue
0.030

@<SCITEGIC>MOL_PROPERTY
U+W
SciTegic.value.DoubleValue
-53.378

@<SCITEGIC>MOL_PROPERTY
Grad RMS
SciTegic.value.DoubleValue
0.000000

@<SCITEGIC>MOL_PROPERTY
U
SciTegic.value.DoubleValue
9.048

@<SCITEGIC>MOL_PROPERTY
W
SciTegic.value.DoubleValue
-62.426

@<SCITEGIC>MOL_PROPERTY
W(PB)
SciTegic.value.DoubleValue
-64.506

@<SCITEGIC>MOL_PROPERTY
W(SA)
SciTegic.value.DoubleValue
2.080

@<SCITEGIC>MOL_PROPERTY
Valence
SciTegic.value.DoubleValue
2.652

@<SCITEGIC>MOL_PROPERTY
Coulomb
SciTegic.value.DoubleValue
5.578

@<SCITEGIC>MOL_PROPERTY
VdW
SciTegic.value.DoubleValue
0.818

@<SCITEGIC>MOL_PROPERTY
VdW6
SciTegic.value.DoubleValue
-4.535

@<SCITEGIC>MOL_PROPERTY
VdW12
SciTegic.value.DoubleValue
5.352

@<SCITEGIC>MOL_PROPERTY
Bond
SciTegic.value.DoubleValue
0.063

@<SCITEGIC>MOL_PROPERTY
Angle
SciTegic.value.DoubleValue
2.579

@<SCITEGIC>MOL_PROPERTY
Pdih
SciTegic.value.DoubleValue
0.010

@<SCITEGIC>MOL_PROPERTY
Idih
SciTegic.value.DoubleValue
0.000

@<SCITEGIC>MOL_PROPERTY
Tether
SciTegic.value.DoubleValue
0.000

@<TRIPOS>MOLECULE
guest-s19_confgen4.mol2 : confsearch ligand conformer 387
          17          16           1
SMALL
USER_CHARGES
 
@<TRIPOS>ATOM
       1    C1      18.687429   17.889569   24.559852 C.2        1 MOL1         0.6173
       2    O1      17.595687   18.424002   24.505801 O.co2      1 MOL1        -0.6755
       3    O2      18.915518   16.924371   25.262831 O.co2      1 MOL1        -0.6755
       4    C2      19.809326   18.424478   23.741739 C.2        1 MOL1        -0.1504
       5    H1      20.758020   17.901400   23.837287 H          1 MOL1         0.0814
       6    C3      19.698696   19.489573   22.915712 C.2        1 MOL1        -0.1394
       7    H2      18.752030   20.018920   22.809826 H          1 MOL1         0.0817
       8    C4      20.844120   20.025993   22.083083 C.3        1 MOL1        -0.1849
       9    H3      21.769290   20.008834   22.674938 H          1 MOL1         0.0736
      10    H4      20.661023   21.079348   21.831663 H          1 MOL1         0.0736
      11    C5      21.057843   19.215161   20.785995 C.3        1 MOL1        -0.1866
      12    H5      21.961131   19.580843   20.278550 H          1 MOL1         0.0738
      13    H6      21.242541   18.160839   21.034428 H          1 MOL1         0.0738
      14    C6      19.859012   19.319151   19.819194 C.3        1 MOL1        -0.2879
      15    H7      19.663680   20.364535   19.546869 H          1 MOL1         0.0750
      16    H8      20.058266   18.759933   18.895895 H          1 MOL1         0.0750
      17    H9      18.947946   18.906850   20.272170 H          1 MOL1         0.0750
@<TRIPOS>BOND
    1     1     2    1
    2     1     3    2
    3     1     4    1
    4     4     5    1
    5     4     6    2
    6     6     7    1
    7     6     8    1
    8     8     9    1
    9     8    10    1
   10     8    11    1
   11    11    12    1
   12    11    13    1
   13    11    14    1
   14    14    15    1
   15    14    16    1
   16    14    17    1
@<TRIPOS>SUBSTRUCTURE
       1 MOL1            1 RESIDUE      1      MOL     
@<SCITEGIC>MOL_PROPERTY
VConf Rank
SciTegic.value.IntegerValue
387

@<SCITEGIC>MOL_PROPERTY
Conf_Id
SciTegic.value.IntegerValue
3

@<SCITEGIC>MOL_PROPERTY
Delta U+W
SciTegic.value.DoubleValue
0.531

@<SCITEGIC>MOL_PROPERTY
U+W
SciTegic.value.DoubleValue
-52.878

@<SCITEGIC>MOL_PROPERTY
Grad RMS
SciTegic.value.DoubleValue
0.000000

@<SCITEGIC>MOL_PROPERTY
U
SciTegic.value.DoubleValue
10.067

@<SCITEGIC>MOL_PROPERTY
W
SciTegic.value.DoubleValue
-62.945

@<SCITEGIC>MOL_PROPERTY
W(PB)
SciTegic.value.DoubleValue
-64.982

@<SCITEGIC>MOL_PROPERTY
W(SA)
SciTegic.value.DoubleValue
2.037

@<SCITEGIC>MOL_PROPERTY
Valence
SciTegic.value.DoubleValue
2.779

@<SCITEGIC>MOL_PROPERTY
Coulomb
SciTegic.value.DoubleValue
6.474

@<SCITEGIC>MOL_PROPERTY
VdW
SciTegic.value.DoubleValue
0.815

@<SCITEGIC>MOL_PROPERTY
VdW6
SciTegic.value.DoubleValue
-5.088

@<SCITEGIC>MOL_PROPERTY
VdW12
SciTegic.value.DoubleValue
5.902

@<SCITEGIC>MOL_PROPERTY
Bond
SciTegic.value.DoubleValue
0.078

@<SCITEGIC>MOL_PROPERTY
Angle
SciTegic.value.DoubleValue
2.651

@<SCITEGIC>MOL_PROPERTY
Pdih
SciTegic.value.DoubleValue
0.050

@<SCITEGIC>MOL_PROPERTY
Idih
SciTegic.value.DoubleValue
0.000

@<SCITEGIC>MOL_PROPERTY
Tether
SciTegic.value.DoubleValue
0.000

@<TRIPOS>MOLECULE
guest-s19_confgen4.mol2 : confsearch ligand conformer 388
          17          16           1
SMALL
USER_CHARGES
 
@<TRIPOS>ATOM
       1    C1      18.379470   20.613142   20.008946 C.2        1 MOL1         0.6173
       2    O1      18.233844   20.385567   18.823711 O.co2      1 MOL1        -0.6755
       3    O2      18.185489   21.709559   20.499548 O.co2      1 MOL1        -0.6755
       4    C2      18.811227   19.484768   20.877525 C.2        1 MOL1        -0.1504
       5    H1      18.966659   18.532760   20.375302 H          1 MOL1         0.0814
       6    C3      19.014094   19.594611   22.210328 C.2        1 MOL1        -0.1394
       7    H2      18.864218   20.545628   22.720840 H          1 MOL1         0.0817
       8    C4      19.456318   18.444673   23.091473 C.3        1 MOL1        -0.1849
       9    H3      19.290756   17.483990   22.585097 H          1 MOL1         0.0736
      10    H4      18.832366   18.424986   23.994970 H          1 MOL1         0.0736
      11    C5      20.938543   18.562504   23.508955 C.3        1 MOL1        -0.1866
      12    H5      21.105605   19.524398   24.013244 H          1 MOL1         0.0738
      13    H6      21.167213   17.778817   24.244308 H          1 MOL1         0.0738
      14    C6      21.905018   18.427265   22.312934 C.3        1 MOL1        -0.2879
      15    H7      21.749546   19.233923   21.584796 H          1 MOL1         0.0750
      16    H8      22.947896   18.476576   22.651814 H          1 MOL1         0.0750
      17    H9      21.760616   17.468554   21.798042 H          1 MOL1         0.0750
@<TRIPOS>BOND
    1     1     2    1
    2     1     3    2
    3     1     4    1
    4     4     5    1
    5     4     6    2
    6     6     7    1
    7     6     8    1
    8     8     9    1
    9     8    10    1
   10     8    11    1
   11    11    12    1
   12    11    13    1
   13    11    14    1
   14    14    15    1
   15    14    16    1
   16    14    17    1
@<TRIPOS>SUBSTRUCTURE
       1 MOL1            1 RESIDUE      1      MOL     
@<SCITEGIC>MOL_PROPERTY
VConf Rank
SciTegic.value.IntegerValue
388

@<SCITEGIC>MOL_PROPERTY
Conf_Id
SciTegic.value.IntegerValue
45

@<SCITEGIC>MOL_PROPERTY
Delta U+W
SciTegic.value.DoubleValue
0.562

@<SCITEGIC>MOL_PROPERTY
U+W
SciTegic.value.DoubleValue
-52.846

@<SCITEGIC>MOL_PROPERTY
Grad RMS
SciTegic.value.DoubleValue
0.000000

@<SCITEGIC>MOL_PROPERTY
U
SciTegic.value.DoubleValue
10.243

@<SCITEGIC>MOL_PROPERTY
W
SciTegic.value.DoubleValue
-63.089

@<SCITEGIC>MOL_PROPERTY
W(PB)
SciTegic.value.DoubleValue
-65.116

@<SCITEGIC>MOL_PROPERTY
W(SA)
SciTegic.value.DoubleValue
2.026

@<SCITEGIC>MOL_PROPERTY
Valence
SciTegic.value.DoubleValue
2.822

@<SCITEGIC>MOL_PROPERTY
Coulomb
SciTegic.value.DoubleValue
6.637

@<SCITEGIC>MOL_PROPERTY
VdW
SciTegic.value.DoubleValue
0.785

@<SCITEGIC>MOL_PROPERTY
VdW6
SciTegic.value.DoubleValue
-5.216

@<SCITEGIC>MOL_PROPERTY
VdW12
SciTegic.value.DoubleValue
6.001

@<SCITEGIC>MOL_PROPERTY
Bond
SciTegic.value.DoubleValue
0.080

@<SCITEGIC>MOL_PROPERTY
Angle
SciTegic.value.DoubleValue
2.678

@<SCITEGIC>MOL_PROPERTY
Pdih
SciTegic.value.DoubleValue
0.064

@<SCITEGIC>MOL_PROPERTY
Idih
SciTegic.value.DoubleValue
0.000

@<SCITEGIC>MOL_PROPERTY
Tether
SciTegic.value.DoubleValue
0.000

@<TRIPOS>MOLECULE
guest-s19_confgen4.mol2 : confsearch ligand conformer 389
          17          16           1
SMALL
USER_CHARGES
 
@<TRIPOS>ATOM
       1    C1      20.762650   16.829675   24.269515 C.2        1 MOL1         0.6173
       2    O1      21.844342   16.355560   24.557372 O.co2      1 MOL1        -0.6755
       3    O2      19.710644   16.363197   24.664578 O.co2      1 MOL1        -0.6755
       4    C2      20.750420   18.033967   23.395619 C.2        1 MOL1        -0.1504
       5    H1      21.724178   18.399739   23.077947 H          1 MOL1         0.0814
       6    C3      19.622278   18.663620   22.995721 C.2        1 MOL1        -0.1394
       7    H2      18.641357   18.304200   23.306179 H          1 MOL1         0.0817
       8    C4      19.618501   19.886692   22.105037 C.3        1 MOL1        -0.1849
       9    H3      20.453482   20.548601   22.372421 H          1 MOL1         0.0736
      10    H4      18.697837   20.461494   22.273458 H          1 MOL1         0.0736
      11    C5      19.718931   19.497656   20.615883 C.3        1 MOL1        -0.1866
      12    H5      20.641731   18.926035   20.444856 H          1 MOL1         0.0738
      13    H6      18.881653   18.837327   20.350365 H          1 MOL1         0.0738
      14    C6      19.706195   20.738520   19.700667 C.3        1 MOL1        -0.2879
      15    H7      18.778591   21.311753   19.828676 H          1 MOL1         0.0750
      16    H8      20.552497   21.400943   19.925178 H          1 MOL1         0.0750
      17    H9      19.778466   20.442058   18.646145 H          1 MOL1         0.0750
@<TRIPOS>BOND
    1     1     2    1
    2     1     3    2
    3     1     4    1
    4     4     5    1
    5     4     6    2
    6     6     7    1
    7     6     8    1
    8     8     9    1
    9     8    10    1
   10     8    11    1
   11    11    12    1
   12    11    13    1
   13    11    14    1
   14    14    15    1
   15    14    16    1
   16    14    17    1
@<TRIPOS>SUBSTRUCTURE
       1 MOL1            1 RESIDUE      1      MOL     
@<SCITEGIC>MOL_PROPERTY
VConf Rank
SciTegic.value.IntegerValue
389

@<SCITEGIC>MOL_PROPERTY
Conf_Id
SciTegic.value.IntegerValue
36

@<SCITEGIC>MOL_PROPERTY
Delta U+W
SciTegic.value.DoubleValue
0.000

@<SCITEGIC>MOL_PROPERTY
U+W
SciTegic.value.DoubleValue
-53.409

@<SCITEGIC>MOL_PROPERTY
Grad RMS
SciTegic.value.DoubleValue
0.000000

@<SCITEGIC>MOL_PROPERTY
U
SciTegic.value.DoubleValue
9.048

@<SCITEGIC>MOL_PROPERTY
W
SciTegic.value.DoubleValue
-62.457

@<SCITEGIC>MOL_PROPERTY
W(PB)
SciTegic.value.DoubleValue
-64.540

@<SCITEGIC>MOL_PROPERTY
W(SA)
SciTegic.value.DoubleValue
2.084

@<SCITEGIC>MOL_PROPERTY
Valence
SciTegic.value.DoubleValue
2.652

@<SCITEGIC>MOL_PROPERTY
Coulomb
SciTegic.value.DoubleValue
5.578

@<SCITEGIC>MOL_PROPERTY
VdW
SciTegic.value.DoubleValue
0.818

@<SCITEGIC>MOL_PROPERTY
VdW6
SciTegic.value.DoubleValue
-4.534

@<SCITEGIC>MOL_PROPERTY
VdW12
SciTegic.value.DoubleValue
5.352

@<SCITEGIC>MOL_PROPERTY
Bond
SciTegic.value.DoubleValue
0.063

@<SCITEGIC>MOL_PROPERTY
Angle
SciTegic.value.DoubleValue
2.579

@<SCITEGIC>MOL_PROPERTY
Pdih
SciTegic.value.DoubleValue
0.010

@<SCITEGIC>MOL_PROPERTY
Idih
SciTegic.value.DoubleValue
0.000

@<SCITEGIC>MOL_PROPERTY
Tether
SciTegic.value.DoubleValue
0.000

@<TRIPOS>MOLECULE
guest-s19_confgen4.mol2 : confsearch ligand conformer 390
          17          16           1
SMALL
USER_CHARGES
 
@<TRIPOS>ATOM
       1    C1      19.304276   21.855617   20.112750 C.2        1 MOL1         0.6173
       2    O1      20.131217   22.695490   20.414704 O.co2      1 MOL1        -0.6755
       3    O2      18.316958   22.109608   19.450634 O.co2      1 MOL1        -0.6755
       4    C2      19.488399   20.448643   20.560728 C.2        1 MOL1        -0.1504
       5    H1      18.713520   19.748552   20.256846 H          1 MOL1         0.0814
       6    C3      20.537098   20.024796   21.302125 C.2        1 MOL1        -0.1394
       7    H2      21.317973   20.718193   21.613907 H          1 MOL1         0.0817
       8    C4      20.715883   18.592310   21.755181 C.3        1 MOL1        -0.1849
       9    H3      21.781267   18.393054   21.933065 H          1 MOL1         0.0736
      10    H4      20.397846   17.904424   20.959900 H          1 MOL1         0.0736
      11    C5      19.915360   18.305880   23.042091 C.3        1 MOL1        -0.1866
      12    H5      20.236743   18.993648   23.836607 H          1 MOL1         0.0738
      13    H6      18.848563   18.500836   22.864617 H          1 MOL1         0.0738
      14    C6      20.099708   16.850112   23.515674 C.3        1 MOL1        -0.2879
      15    H7      21.155125   16.637535   23.730933 H          1 MOL1         0.0750
      16    H8      19.523277   16.665419   24.431504 H          1 MOL1         0.0750
      17    H9      19.756278   16.141615   22.750478 H          1 MOL1         0.0750
@<TRIPOS>BOND
    1     1     2    1
    2     1     3    2
    3     1     4    1
    4     4     5    1
    5     4     6    2
    6     6     7    1
    7     6     8    1
    8     8     9    1
    9     8    10    1
   10     8    11    1
   11    11    12    1
   12    11    13    1
   13    11    14    1
   14    14    15    1
   15    14    16    1
   16    14    17    1
@<TRIPOS>SUBSTRUCTURE
       1 MOL1            1 RESIDUE      1      MOL     
@<SCITEGIC>MOL_PROPERTY
VConf Rank
SciTegic.value.IntegerValue
390

@<SCITEGIC>MOL_PROPERTY
Conf_Id
SciTegic.value.IntegerValue
1

@<SCITEGIC>MOL_PROPERTY
Delta U+W
SciTegic.value.DoubleValue
0.030

@<SCITEGIC>MOL_PROPERTY
U+W
SciTegic.value.DoubleValue
-53.378

@<SCITEGIC>MOL_PROPERTY
Grad RMS
SciTegic.value.DoubleValue
0.000000

@<SCITEGIC>MOL_PROPERTY
U
SciTegic.value.DoubleValue
9.048

@<SCITEGIC>MOL_PROPERTY
W
SciTegic.value.DoubleValue
-62.426

@<SCITEGIC>MOL_PROPERTY
W(PB)
SciTegic.value.DoubleValue
-64.506

@<SCITEGIC>MOL_PROPERTY
W(SA)
SciTegic.value.DoubleValue
2.080

@<SCITEGIC>MOL_PROPERTY
Valence
SciTegic.value.DoubleValue
2.652

@<SCITEGIC>MOL_PROPERTY
Coulomb
SciTegic.value.DoubleValue
5.578

@<SCITEGIC>MOL_PROPERTY
VdW
SciTegic.value.DoubleValue
0.818

@<SCITEGIC>MOL_PROPERTY
VdW6
SciTegic.value.DoubleValue
-4.535

@<SCITEGIC>MOL_PROPERTY
VdW12
SciTegic.value.DoubleValue
5.352

@<SCITEGIC>MOL_PROPERTY
Bond
SciTegic.value.DoubleValue
0.063

@<SCITEGIC>MOL_PROPERTY
Angle
SciTegic.value.DoubleValue
2.579

@<SCITEGIC>MOL_PROPERTY
Pdih
SciTegic.value.DoubleValue
0.010

@<SCITEGIC>MOL_PROPERTY
Idih
SciTegic.value.DoubleValue
0.000

@<SCITEGIC>MOL_PROPERTY
Tether
SciTegic.value.DoubleValue
0.000

@<TRIPOS>MOLECULE
guest-s19_confgen4.mol2 : confsearch ligand conformer 391
          17          16           1
SMALL
USER_CHARGES
 
@<TRIPOS>ATOM
       1    C1      22.598056   19.769169   23.590434 C.2        1 MOL1         0.6173
       2    O1      22.513882   20.982235   23.633192 O.co2      1 MOL1        -0.6755
       3    O2      23.358427   19.135231   24.295961 O.co2      1 MOL1        -0.6755
       4    C2      21.745985   19.006011   22.638775 C.2        1 MOL1        -0.1504
       5    H1      21.871219   17.925764   22.650672 H          1 MOL1         0.0814
       6    C3      20.856385   19.579568   21.796972 C.2        1 MOL1        -0.1394
       7    H2      20.720443   20.660679   21.779169 H          1 MOL1         0.0817
       8    C4      19.989678   18.795940   20.833769 C.3        1 MOL1        -0.1849
       9    H3      20.579275   17.986169   20.383023 H          1 MOL1         0.0736
      10    H4      19.674492   19.443360   20.004433 H          1 MOL1         0.0736
      11    C5      18.744319   18.193540   21.520614 C.3        1 MOL1        -0.1866
      12    H5      18.213238   17.552740   20.803339 H          1 MOL1         0.0738
      13    H6      19.056578   17.544174   22.350220 H          1 MOL1         0.0738
      14    C6      17.775802   19.275722   22.043653 C.3        1 MOL1        -0.2879
      15    H7      17.440270   19.929672   21.228231 H          1 MOL1         0.0750
      16    H8      16.888111   18.813671   22.494675 H          1 MOL1         0.0750
      17    H9      18.255397   19.900154   22.808699 H          1 MOL1         0.0750
@<TRIPOS>BOND
    1     1     2    1
    2     1     3    2
    3     1     4    1
    4     4     5    1
    5     4     6    2
    6     6     7    1
    7     6     8    1
    8     8     9    1
    9     8    10    1
   10     8    11    1
   11    11    12    1
   12    11    13    1
   13    11    14    1
   14    14    15    1
   15    14    16    1
   16    14    17    1
@<TRIPOS>SUBSTRUCTURE
       1 MOL1            1 RESIDUE      1      MOL     
@<SCITEGIC>MOL_PROPERTY
VConf Rank
SciTegic.value.IntegerValue
391

@<SCITEGIC>MOL_PROPERTY
Conf_Id
SciTegic.value.IntegerValue
3

@<SCITEGIC>MOL_PROPERTY
Delta U+W
SciTegic.value.DoubleValue
0.531

@<SCITEGIC>MOL_PROPERTY
U+W
SciTegic.value.DoubleValue
-52.878

@<SCITEGIC>MOL_PROPERTY
Grad RMS
SciTegic.value.DoubleValue
0.000000

@<SCITEGIC>MOL_PROPERTY
U
SciTegic.value.DoubleValue
10.067

@<SCITEGIC>MOL_PROPERTY
W
SciTegic.value.DoubleValue
-62.945

@<SCITEGIC>MOL_PROPERTY
W(PB)
SciTegic.value.DoubleValue
-64.982

@<SCITEGIC>MOL_PROPERTY
W(SA)
SciTegic.value.DoubleValue
2.037

@<SCITEGIC>MOL_PROPERTY
Valence
SciTegic.value.DoubleValue
2.779

@<SCITEGIC>MOL_PROPERTY
Coulomb
SciTegic.value.DoubleValue
6.474

@<SCITEGIC>MOL_PROPERTY
VdW
SciTegic.value.DoubleValue
0.815

@<SCITEGIC>MOL_PROPERTY
VdW6
SciTegic.value.DoubleValue
-5.088

@<SCITEGIC>MOL_PROPERTY
VdW12
SciTegic.value.DoubleValue
5.902

@<SCITEGIC>MOL_PROPERTY
Bond
SciTegic.value.DoubleValue
0.078

@<SCITEGIC>MOL_PROPERTY
Angle
SciTegic.value.DoubleValue
2.651

@<SCITEGIC>MOL_PROPERTY
Pdih
SciTegic.value.DoubleValue
0.050

@<SCITEGIC>MOL_PROPERTY
Idih
SciTegic.value.DoubleValue
0.000

@<SCITEGIC>MOL_PROPERTY
Tether
SciTegic.value.DoubleValue
0.000

@<TRIPOS>MOLECULE
guest-s19_confgen4.mol2 : confsearch ligand conformer 392
          17          16           1
SMALL
USER_CHARGES
 
@<TRIPOS>ATOM
       1    C1      21.791581   20.912567   20.483355 C.2        1 MOL1         0.6173
       2    O1      22.839408   20.659870   19.921231 O.co2      1 MOL1        -0.6755
       3    O2      21.467767   22.041826   20.800162 O.co2      1 MOL1        -0.6755
       4    C2      20.880745   19.774838   20.783393 C.2        1 MOL1        -0.1504
       5    H1      21.230936   18.792997   20.473456 H          1 MOL1         0.0814
       6    C3      19.686972   19.908942   21.405089 C.2        1 MOL1        -0.1394
       7    H2      19.330178   20.888552   21.722236 H          1 MOL1         0.0817
       8    C4      18.763134   18.748386   21.711631 C.3        1 MOL1        -0.1849
       9    H3      19.032439   17.870436   21.108789 H          1 MOL1         0.0736
      10    H4      17.739737   19.017821   21.418249 H          1 MOL1         0.0736
      11    C5      18.772031   18.371906   23.209413 C.3        1 MOL1        -0.1866
      12    H5      18.505310   19.250302   23.813351 H          1 MOL1         0.0738
      13    H6      17.995502   17.616796   23.393833 H          1 MOL1         0.0738
      14    C6      20.134928   17.815481   23.673883 C.3        1 MOL1        -0.2879
      15    H7      20.927634   18.566983   23.564716 H          1 MOL1         0.0750
      16    H8      20.092420   17.522704   24.730926 H          1 MOL1         0.0750
      17    H9      20.418158   16.931314   23.088116 H          1 MOL1         0.0750
@<TRIPOS>BOND
    1     1     2    1
    2     1     3    2
    3     1     4    1
    4     4     5    1
    5     4     6    2
    6     6     7    1
    7     6     8    1
    8     8     9    1
    9     8    10    1
   10     8    11    1
   11    11    12    1
   12    11    13    1
   13    11    14    1
   14    14    15    1
   15    14    16    1
   16    14    17    1
@<TRIPOS>SUBSTRUCTURE
       1 MOL1            1 RESIDUE      1      MOL     
@<SCITEGIC>MOL_PROPERTY
VConf Rank
SciTegic.value.IntegerValue
392

@<SCITEGIC>MOL_PROPERTY
Conf_Id
SciTegic.value.IntegerValue
45

@<SCITEGIC>MOL_PROPERTY
Delta U+W
SciTegic.value.DoubleValue
0.562

@<SCITEGIC>MOL_PROPERTY
U+W
SciTegic.value.DoubleValue
-52.846

@<SCITEGIC>MOL_PROPERTY
Grad RMS
SciTegic.value.DoubleValue
0.000000

@<SCITEGIC>MOL_PROPERTY
U
SciTegic.value.DoubleValue
10.243

@<SCITEGIC>MOL_PROPERTY
W
SciTegic.value.DoubleValue
-63.089

@<SCITEGIC>MOL_PROPERTY
W(PB)
SciTegic.value.DoubleValue
-65.116

@<SCITEGIC>MOL_PROPERTY
W(SA)
SciTegic.value.DoubleValue
2.026

@<SCITEGIC>MOL_PROPERTY
Valence
SciTegic.value.DoubleValue
2.822

@<SCITEGIC>MOL_PROPERTY
Coulomb
SciTegic.value.DoubleValue
6.637

@<SCITEGIC>MOL_PROPERTY
VdW
SciTegic.value.DoubleValue
0.785

@<SCITEGIC>MOL_PROPERTY
VdW6
SciTegic.value.DoubleValue
-5.216

@<SCITEGIC>MOL_PROPERTY
VdW12
SciTegic.value.DoubleValue
6.001

@<SCITEGIC>MOL_PROPERTY
Bond
SciTegic.value.DoubleValue
0.080

@<SCITEGIC>MOL_PROPERTY
Angle
SciTegic.value.DoubleValue
2.678

@<SCITEGIC>MOL_PROPERTY
Pdih
SciTegic.value.DoubleValue
0.064

@<SCITEGIC>MOL_PROPERTY
Idih
SciTegic.value.DoubleValue
0.000

@<SCITEGIC>MOL_PROPERTY
Tether
SciTegic.value.DoubleValue
0.000

@<TRIPOS>MOLECULE
guest-s19_confgen4.mol2 : confsearch ligand conformer 393
          17          16           1
SMALL
USER_CHARGES
 
@<TRIPOS>ATOM
       1    C1      16.914192   17.902027   21.265400 C.2        1 MOL1         0.6173
       2    O1      16.006203   18.404378   20.632230 O.co2      1 MOL1        -0.6755
       3    O2      16.762203   16.928620   21.979384 O.co2      1 MOL1        -0.6755
       4    C2      18.261661   18.521625   21.144624 C.2        1 MOL1        -0.1504
       5    H1      18.328697   19.388149   20.490750 H          1 MOL1         0.0814
       6    C3      19.359940   18.069349   21.791396 C.2        1 MOL1        -0.1394
       7    H2      19.303541   17.203423   22.450763 H          1 MOL1         0.0817
       8    C4      20.726341   18.706650   21.664770 C.3        1 MOL1        -0.1849
       9    H3      20.894608   19.031736   20.629002 H          1 MOL1         0.0736
      10    H4      21.501811   17.961621   21.888300 H          1 MOL1         0.0736
      11    C5      20.875939   19.909448   22.618662 C.3        1 MOL1        -0.1866
      12    H5      20.103333   20.657754   22.393543 H          1 MOL1         0.0738
      13    H6      20.709226   19.581406   23.654115 H          1 MOL1         0.0738
      14    C6      22.269555   20.558955   22.502473 C.3        1 MOL1        -0.2879
      15    H7      23.060389   19.840004   22.753712 H          1 MOL1         0.0750
      16    H8      22.449106   20.923855   21.482647 H          1 MOL1         0.0750
      17    H9      22.357008   21.412036   23.187847 H          1 MOL1         0.0750
@<TRIPOS>BOND
    1     1     2    1
    2     1     3    2
    3     1     4    1
    4     4     5    1
    5     4     6    2
    6     6     7    1
    7     6     8    1
    8     8     9    1
    9     8    10    1
   10     8    11    1
   11    11    12    1
   12    11    13    1
   13    11    14    1
   14    14    15    1
   15    14    16    1
   16    14    17    1
@<TRIPOS>SUBSTRUCTURE
       1 MOL1            1 RESIDUE      1      MOL     
@<SCITEGIC>MOL_PROPERTY
VConf Rank
SciTegic.value.IntegerValue
393

@<SCITEGIC>MOL_PROPERTY
Conf_Id
SciTegic.value.IntegerValue
36

@<SCITEGIC>MOL_PROPERTY
Delta U+W
SciTegic.value.DoubleValue
0.000

@<SCITEGIC>MOL_PROPERTY
U+W
SciTegic.value.DoubleValue
-53.409

@<SCITEGIC>MOL_PROPERTY
Grad RMS
SciTegic.value.DoubleValue
0.000000

@<SCITEGIC>MOL_PROPERTY
U
SciTegic.value.DoubleValue
9.048

@<SCITEGIC>MOL_PROPERTY
W
SciTegic.value.DoubleValue
-62.457

@<SCITEGIC>MOL_PROPERTY
W(PB)
SciTegic.value.DoubleValue
-64.540

@<SCITEGIC>MOL_PROPERTY
W(SA)
SciTegic.value.DoubleValue
2.084

@<SCITEGIC>MOL_PROPERTY
Valence
SciTegic.value.DoubleValue
2.652

@<SCITEGIC>MOL_PROPERTY
Coulomb
SciTegic.value.DoubleValue
5.578

@<SCITEGIC>MOL_PROPERTY
VdW
SciTegic.value.DoubleValue
0.818

@<SCITEGIC>MOL_PROPERTY
VdW6
SciTegic.value.DoubleValue
-4.534

@<SCITEGIC>MOL_PROPERTY
VdW12
SciTegic.value.DoubleValue
5.352

@<SCITEGIC>MOL_PROPERTY
Bond
SciTegic.value.DoubleValue
0.063

@<SCITEGIC>MOL_PROPERTY
Angle
SciTegic.value.DoubleValue
2.579

@<SCITEGIC>MOL_PROPERTY
Pdih
SciTegic.value.DoubleValue
0.010

@<SCITEGIC>MOL_PROPERTY
Idih
SciTegic.value.DoubleValue
0.000

@<SCITEGIC>MOL_PROPERTY
Tether
SciTegic.value.DoubleValue
0.000

@<TRIPOS>MOLECULE
guest-s19_confgen4.mol2 : confsearch ligand conformer 394
          17          16           1
SMALL
USER_CHARGES
 
@<TRIPOS>ATOM
       1    C1      17.514995   21.291164   22.462596 C.2        1 MOL1         0.6173
       2    O1      16.486158   20.645274   22.531250 O.co2      1 MOL1        -0.6755
       3    O2      17.529117   22.504789   22.394633 O.co2      1 MOL1        -0.6755
       4    C2      18.825951   20.587205   22.461559 C.2        1 MOL1        -0.1504
       5    H1      19.706047   21.223078   22.398263 H          1 MOL1         0.0814
       6    C3      18.959835   19.243210   22.531108 C.2        1 MOL1        -0.1394
       7    H2      18.084692   18.596592   22.592629 H          1 MOL1         0.0817
       8    C4      20.296894   18.535043   22.527625 C.3        1 MOL1        -0.1849
       9    H3      20.197064   17.558309   23.019978 H          1 MOL1         0.0736
      10    H4      21.026926   19.108113   23.115376 H          1 MOL1         0.0736
      11    C5      20.824526   18.337702   21.091770 C.3        1 MOL1        -0.1866
      12    H5      20.093662   17.762454   20.506541 H          1 MOL1         0.0738
      13    H6      20.928887   19.314390   20.599075 H          1 MOL1         0.0738
      14    C6      22.182892   17.608177   21.079112 C.3        1 MOL1        -0.2879
      15    H7      22.099508   16.614315   21.538150 H          1 MOL1         0.0750
      16    H8      22.541862   17.477010   20.050003 H          1 MOL1         0.0750
      17    H9      22.940476   18.178908   21.632076 H          1 MOL1         0.0750
@<TRIPOS>BOND
    1     1     2    1
    2     1     3    2
    3     1     4    1
    4     4     5    1
    5     4     6    2
    6     6     7    1
    7     6     8    1
    8     8     9    1
    9     8    10    1
   10     8    11    1
   11    11    12    1
   12    11    13    1
   13    11    14    1
   14    14    15    1
   15    14    16    1
   16    14    17    1
@<TRIPOS>SUBSTRUCTURE
       1 MOL1            1 RESIDUE      1      MOL     
@<SCITEGIC>MOL_PROPERTY
VConf Rank
SciTegic.value.IntegerValue
394

@<SCITEGIC>MOL_PROPERTY
Conf_Id
SciTegic.value.IntegerValue
1

@<SCITEGIC>MOL_PROPERTY
Delta U+W
SciTegic.value.DoubleValue
0.030

@<SCITEGIC>MOL_PROPERTY
U+W
SciTegic.value.DoubleValue
-53.378

@<SCITEGIC>MOL_PROPERTY
Grad RMS
SciTegic.value.DoubleValue
0.000000

@<SCITEGIC>MOL_PROPERTY
U
SciTegic.value.DoubleValue
9.048

@<SCITEGIC>MOL_PROPERTY
W
SciTegic.value.DoubleValue
-62.426

@<SCITEGIC>MOL_PROPERTY
W(PB)
SciTegic.value.DoubleValue
-64.506

@<SCITEGIC>MOL_PROPERTY
W(SA)
SciTegic.value.DoubleValue
2.080

@<SCITEGIC>MOL_PROPERTY
Valence
SciTegic.value.DoubleValue
2.652

@<SCITEGIC>MOL_PROPERTY
Coulomb
SciTegic.value.DoubleValue
5.578

@<SCITEGIC>MOL_PROPERTY
VdW
SciTegic.value.DoubleValue
0.818

@<SCITEGIC>MOL_PROPERTY
VdW6
SciTegic.value.DoubleValue
-4.535

@<SCITEGIC>MOL_PROPERTY
VdW12
SciTegic.value.DoubleValue
5.352

@<SCITEGIC>MOL_PROPERTY
Bond
SciTegic.value.DoubleValue
0.063

@<SCITEGIC>MOL_PROPERTY
Angle
SciTegic.value.DoubleValue
2.579

@<SCITEGIC>MOL_PROPERTY
Pdih
SciTegic.value.DoubleValue
0.010

@<SCITEGIC>MOL_PROPERTY
Idih
SciTegic.value.DoubleValue
0.000

@<SCITEGIC>MOL_PROPERTY
Tether
SciTegic.value.DoubleValue
0.000

@<TRIPOS>MOLECULE
guest-s19_confgen4.mol2 : confsearch ligand conformer 395
          17          16           1
SMALL
USER_CHARGES
 
@<TRIPOS>ATOM
       1    C1      21.588733   17.427594   19.983481 C.2        1 MOL1         0.6173
       2    O1      22.709269   17.870147   20.153737 O.co2      1 MOL1        -0.6755
       3    O2      21.372132   16.392681   19.383606 O.co2      1 MOL1        -0.6755
       4    C2      20.415783   18.169135   20.520505 C.2        1 MOL1        -0.1504
       5    H1      19.443434   17.719635   20.332759 H          1 MOL1         0.0814
       6    C3      20.508391   19.330418   21.207407 C.2        1 MOL1        -0.1394
       7    H2      21.477790   19.787780   21.404085 H          1 MOL1         0.0817
       8    C4      19.310217   20.077556   21.754377 C.3        1 MOL1        -0.1849
       9    H3      18.493695   20.052137   21.020094 H          1 MOL1         0.0736
      10    H4      19.563432   21.137112   21.894086 H          1 MOL1         0.0736
      11    C5      18.808479   19.486111   23.090047 C.3        1 MOL1        -0.1866
      12    H5      17.880985   19.996972   23.383185 H          1 MOL1         0.0738
      13    H6      18.553117   18.426174   22.953107 H          1 MOL1         0.0738
      14    C6      19.843747   19.628865   24.226072 C.3        1 MOL1        -0.2879
      15    H7      20.104814   20.682589   24.389331 H          1 MOL1         0.0750
      16    H8      19.442273   19.229529   25.166422 H          1 MOL1         0.0750
      17    H9      20.765265   19.079364   23.993532 H          1 MOL1         0.0750
@<TRIPOS>BOND
    1     1     2    1
    2     1     3    2
    3     1     4    1
    4     4     5    1
    5     4     6    2
    6     6     7    1
    7     6     8    1
    8     8     9    1
    9     8    10    1
   10     8    11    1
   11    11    12    1
   12    11    13    1
   13    11    14    1
   14    14    15    1
   15    14    16    1
   16    14    17    1
@<TRIPOS>SUBSTRUCTURE
       1 MOL1            1 RESIDUE      1      MOL     
@<SCITEGIC>MOL_PROPERTY
VConf Rank
SciTegic.value.IntegerValue
395

@<SCITEGIC>MOL_PROPERTY
Conf_Id
SciTegic.value.IntegerValue
3

@<SCITEGIC>MOL_PROPERTY
Delta U+W
SciTegic.value.DoubleValue
0.531

@<SCITEGIC>MOL_PROPERTY
U+W
SciTegic.value.DoubleValue
-52.878

@<SCITEGIC>MOL_PROPERTY
Grad RMS
SciTegic.value.DoubleValue
0.000000

@<SCITEGIC>MOL_PROPERTY
U
SciTegic.value.DoubleValue
10.067

@<SCITEGIC>MOL_PROPERTY
W
SciTegic.value.DoubleValue
-62.945

@<SCITEGIC>MOL_PROPERTY
W(PB)
SciTegic.value.DoubleValue
-64.982

@<SCITEGIC>MOL_PROPERTY
W(SA)
SciTegic.value.DoubleValue
2.037

@<SCITEGIC>MOL_PROPERTY
Valence
SciTegic.value.DoubleValue
2.779

@<SCITEGIC>MOL_PROPERTY
Coulomb
SciTegic.value.DoubleValue
6.474

@<SCITEGIC>MOL_PROPERTY
VdW
SciTegic.value.DoubleValue
0.815

@<SCITEGIC>MOL_PROPERTY
VdW6
SciTegic.value.DoubleValue
-5.088

@<SCITEGIC>MOL_PROPERTY
VdW12
SciTegic.value.DoubleValue
5.902

@<SCITEGIC>MOL_PROPERTY
Bond
SciTegic.value.DoubleValue
0.078

@<SCITEGIC>MOL_PROPERTY
Angle
SciTegic.value.DoubleValue
2.651

@<SCITEGIC>MOL_PROPERTY
Pdih
SciTegic.value.DoubleValue
0.050

@<SCITEGIC>MOL_PROPERTY
Idih
SciTegic.value.DoubleValue
0.000

@<SCITEGIC>MOL_PROPERTY
Tether
SciTegic.value.DoubleValue
0.000

@<TRIPOS>MOLECULE
guest-s19_confgen4.mol2 : confsearch ligand conformer 396
          17          16           1
SMALL
USER_CHARGES
 
@<TRIPOS>ATOM
       1    C1      17.206634   18.582167   23.160885 C.2        1 MOL1         0.6173
       2    O1      16.153498   18.456016   22.566939 O.co2      1 MOL1        -0.6755
       3    O2      17.268685   18.875372   24.340134 O.co2      1 MOL1        -0.6755
       4    C2      18.460644   18.360071   22.391337 C.2        1 MOL1        -0.1504
       5    H1      18.333584   18.100960   21.342803 H          1 MOL1         0.0814
       6    C3      19.699917   18.468615   22.922380 C.2        1 MOL1        -0.1394
       7    H2      19.836302   18.731409   23.971121 H          1 MOL1         0.0817
       8    C4      20.974766   18.244594   22.135672 C.3        1 MOL1        -0.1849
       9    H3      20.764181   17.698990   21.205775 H          1 MOL1         0.0736
      10    H4      21.648395   17.603513   22.719837 H          1 MOL1         0.0736
      11    C5      21.701407   19.567381   21.807961 C.3        1 MOL1        -0.1866
      12    H5      21.910093   20.115059   22.737454 H          1 MOL1         0.0738
      13    H6      22.675099   19.338383   21.353337 H          1 MOL1         0.0738
      14    C6      20.895411   20.464989   20.844894 C.3        1 MOL1        -0.2879
      15    H7      19.940044   20.768489   21.292349 H          1 MOL1         0.0750
      16    H8      21.458371   21.375996   20.604043 H          1 MOL1         0.0750
      17    H9      20.681848   19.939719   19.904907 H          1 MOL1         0.0750
@<TRIPOS>BOND
    1     1     2    1
    2     1     3    2
    3     1     4    1
    4     4     5    1
    5     4     6    2
    6     6     7    1
    7     6     8    1
    8     8     9    1
    9     8    10    1
   10     8    11    1
   11    11    12    1
   12    11    13    1
   13    11    14    1
   14    14    15    1
   15    14    16    1
   16    14    17    1
@<TRIPOS>SUBSTRUCTURE
       1 MOL1            1 RESIDUE      1      MOL     
@<SCITEGIC>MOL_PROPERTY
VConf Rank
SciTegic.value.IntegerValue
396

@<SCITEGIC>MOL_PROPERTY
Conf_Id
SciTegic.value.IntegerValue
45

@<SCITEGIC>MOL_PROPERTY
Delta U+W
SciTegic.value.DoubleValue
0.562

@<SCITEGIC>MOL_PROPERTY
U+W
SciTegic.value.DoubleValue
-52.846

@<SCITEGIC>MOL_PROPERTY
Grad RMS
SciTegic.value.DoubleValue
0.000000

@<SCITEGIC>MOL_PROPERTY
U
SciTegic.value.DoubleValue
10.243

@<SCITEGIC>MOL_PROPERTY
W
SciTegic.value.DoubleValue
-63.089

@<SCITEGIC>MOL_PROPERTY
W(PB)
SciTegic.value.DoubleValue
-65.116

@<SCITEGIC>MOL_PROPERTY
W(SA)
SciTegic.value.DoubleValue
2.026

@<SCITEGIC>MOL_PROPERTY
Valence
SciTegic.value.DoubleValue
2.822

@<SCITEGIC>MOL_PROPERTY
Coulomb
SciTegic.value.DoubleValue
6.637

@<SCITEGIC>MOL_PROPERTY
VdW
SciTegic.value.DoubleValue
0.785

@<SCITEGIC>MOL_PROPERTY
VdW6
SciTegic.value.DoubleValue
-5.216

@<SCITEGIC>MOL_PROPERTY
VdW12
SciTegic.value.DoubleValue
6.001

@<SCITEGIC>MOL_PROPERTY
Bond
SciTegic.value.DoubleValue
0.080

@<SCITEGIC>MOL_PROPERTY
Angle
SciTegic.value.DoubleValue
2.678

@<SCITEGIC>MOL_PROPERTY
Pdih
SciTegic.value.DoubleValue
0.064

@<SCITEGIC>MOL_PROPERTY
Idih
SciTegic.value.DoubleValue
0.000

@<SCITEGIC>MOL_PROPERTY
Tether
SciTegic.value.DoubleValue
0.000

@<TRIPOS>MOLECULE
guest-s19_confgen4.mol2 : confsearch ligand conformer 397
          17          16           1
SMALL
USER_CHARGES
 
@<TRIPOS>ATOM
       1    C1      20.988184   17.743529   24.828905 C.2        1 MOL1         0.6173
       2    O1      20.716009   16.656268   25.299530 O.co2      1 MOL1        -0.6755
       3    O2      21.513692   18.630361   25.475251 O.co2      1 MOL1        -0.6755
       4    C2      20.655779   17.975706   23.397206 C.2        1 MOL1        -0.1504
       5    H1      20.187891   17.142707   22.877492 H          1 MOL1         0.0814
       6    C3      20.900488   19.134949   22.745011 C.2        1 MOL1        -0.1394
       7    H2      21.366677   19.976721   23.256734 H          1 MOL1         0.0817
       8    C4      20.557294   19.363648   21.289280 C.3        1 MOL1        -0.1849
       9    H3      20.752217   18.451077   20.709602 H          1 MOL1         0.0736
      10    H4      21.211586   20.142601   20.875128 H          1 MOL1         0.0736
      11    C5      19.082989   19.783627   21.118820 C.3        1 MOL1        -0.1866
      12    H5      18.426847   19.003345   21.528938 H          1 MOL1         0.0738
      13    H6      18.891014   20.697657   21.697840 H          1 MOL1         0.0738
      14    C6      18.727600   20.027870   19.638425 C.3        1 MOL1        -0.2879
      15    H7      19.348255   20.826813   19.211916 H          1 MOL1         0.0750
      16    H8      18.881473   19.118783   19.042337 H          1 MOL1         0.0750
      17    H9      17.675756   20.325375   19.537203 H          1 MOL1         0.0750
@<TRIPOS>BOND
    1     1     2    1
    2     1     3    2
    3     1     4    1
    4     4     5    1
    5     4     6    2
    6     6     7    1
    7     6     8    1
    8     8     9    1
    9     8    10    1
   10     8    11    1
   11    11    12    1
   12    11    13    1
   13    11    14    1
   14    14    15    1
   15    14    16    1
   16    14    17    1
@<TRIPOS>SUBSTRUCTURE
       1 MOL1            1 RESIDUE      1      MOL     
@<SCITEGIC>MOL_PROPERTY
VConf Rank
SciTegic.value.IntegerValue
397

@<SCITEGIC>MOL_PROPERTY
Conf_Id
SciTegic.value.IntegerValue
36

@<SCITEGIC>MOL_PROPERTY
Delta U+W
SciTegic.value.DoubleValue
0.000

@<SCITEGIC>MOL_PROPERTY
U+W
SciTegic.value.DoubleValue
-53.409

@<SCITEGIC>MOL_PROPERTY
Grad RMS
SciTegic.value.DoubleValue
0.000000

@<SCITEGIC>MOL_PROPERTY
U
SciTegic.value.DoubleValue
9.048

@<SCITEGIC>MOL_PROPERTY
W
SciTegic.value.DoubleValue
-62.457

@<SCITEGIC>MOL_PROPERTY
W(PB)
SciTegic.value.DoubleValue
-64.540

@<SCITEGIC>MOL_PROPERTY
W(SA)
SciTegic.value.DoubleValue
2.084

@<SCITEGIC>MOL_PROPERTY
Valence
SciTegic.value.DoubleValue
2.652

@<SCITEGIC>MOL_PROPERTY
Coulomb
SciTegic.value.DoubleValue
5.578

@<SCITEGIC>MOL_PROPERTY
VdW
SciTegic.value.DoubleValue
0.818

@<SCITEGIC>MOL_PROPERTY
VdW6
SciTegic.value.DoubleValue
-4.534

@<SCITEGIC>MOL_PROPERTY
VdW12
SciTegic.value.DoubleValue
5.352

@<SCITEGIC>MOL_PROPERTY
Bond
SciTegic.value.DoubleValue
0.063

@<SCITEGIC>MOL_PROPERTY
Angle
SciTegic.value.DoubleValue
2.579

@<SCITEGIC>MOL_PROPERTY
Pdih
SciTegic.value.DoubleValue
0.010

@<SCITEGIC>MOL_PROPERTY
Idih
SciTegic.value.DoubleValue
0.000

@<SCITEGIC>MOL_PROPERTY
Tether
SciTegic.value.DoubleValue
0.000

@<TRIPOS>MOLECULE
guest-s19_confgen4.mol2 : confsearch ligand conformer 398
          17          16           1
SMALL
USER_CHARGES
 
@<TRIPOS>ATOM
       1    C1      22.321149   21.374082   20.990091 C.2        1 MOL1         0.6173
       2    O1      23.106951   20.803753   20.256857 O.co2      1 MOL1        -0.6755
       3    O2      22.520375   22.489015   21.431610 O.co2      1 MOL1        -0.6755
       4    C2      21.053039   20.698135   21.376299 C.2        1 MOL1        -0.1504
       5    H1      20.395343   21.262638   22.033323 H          1 MOL1         0.0814
       6    C3      20.702266   19.459729   20.961093 C.2        1 MOL1        -0.1394
       7    H2      21.354731   18.884473   20.304478 H          1 MOL1         0.0817
       8    C4      19.411436   18.778686   21.360066 C.3        1 MOL1        -0.1849
       9    H3      19.138528   18.033804   20.600421 H          1 MOL1         0.0736
      10    H4      18.593243   19.511224   21.387541 H          1 MOL1         0.0736
      11    C5      19.540548   18.090731   22.734499 C.3        1 MOL1        -0.1866
      12    H5      20.358052   17.357031   22.703865 H          1 MOL1         0.0738
      13    H6      19.809577   18.835400   23.496504 H          1 MOL1         0.0738
      14    C6      18.231618   17.386230   23.144261 C.3        1 MOL1        -0.2879
      15    H7      17.956093   16.613564   22.414532 H          1 MOL1         0.0750
      16    H8      18.342724   16.903017   24.123694 H          1 MOL1         0.0750
      17    H9      17.403818   18.104221   23.212612 H          1 MOL1         0.0750
@<TRIPOS>BOND
    1     1     2    1
    2     1     3    2
    3     1     4    1
    4     4     5    1
    5     4     6    2
    6     6     7    1
    7     6     8    1
    8     8     9    1
    9     8    10    1
   10     8    11    1
   11    11    12    1
   12    11    13    1
   13    11    14    1
   14    14    15    1
   15    14    16    1
   16    14    17    1
@<TRIPOS>SUBSTRUCTURE
       1 MOL1            1 RESIDUE      1      MOL     
@<SCITEGIC>MOL_PROPERTY
VConf Rank
SciTegic.value.IntegerValue
398

@<SCITEGIC>MOL_PROPERTY
Conf_Id
SciTegic.value.IntegerValue
1

@<SCITEGIC>MOL_PROPERTY
Delta U+W
SciTegic.value.DoubleValue
0.030

@<SCITEGIC>MOL_PROPERTY
U+W
SciTegic.value.DoubleValue
-53.378

@<SCITEGIC>MOL_PROPERTY
Grad RMS
SciTegic.value.DoubleValue
0.000000

@<SCITEGIC>MOL_PROPERTY
U
SciTegic.value.DoubleValue
9.048

@<SCITEGIC>MOL_PROPERTY
W
SciTegic.value.DoubleValue
-62.426

@<SCITEGIC>MOL_PROPERTY
W(PB)
SciTegic.value.DoubleValue
-64.506

@<SCITEGIC>MOL_PROPERTY
W(SA)
SciTegic.value.DoubleValue
2.080

@<SCITEGIC>MOL_PROPERTY
Valence
SciTegic.value.DoubleValue
2.652

@<SCITEGIC>MOL_PROPERTY
Coulomb
SciTegic.value.DoubleValue
5.578

@<SCITEGIC>MOL_PROPERTY
VdW
SciTegic.value.DoubleValue
0.818

@<SCITEGIC>MOL_PROPERTY
VdW6
SciTegic.value.DoubleValue
-4.535

@<SCITEGIC>MOL_PROPERTY
VdW12
SciTegic.value.DoubleValue
5.352

@<SCITEGIC>MOL_PROPERTY
Bond
SciTegic.value.DoubleValue
0.063

@<SCITEGIC>MOL_PROPERTY
Angle
SciTegic.value.DoubleValue
2.579

@<SCITEGIC>MOL_PROPERTY
Pdih
SciTegic.value.DoubleValue
0.010

@<SCITEGIC>MOL_PROPERTY
Idih
SciTegic.value.DoubleValue
0.000

@<SCITEGIC>MOL_PROPERTY
Tether
SciTegic.value.DoubleValue
0.000

@<TRIPOS>MOLECULE
guest-s19_confgen4.mol2 : confsearch ligand conformer 399
          17          16           1
SMALL
USER_CHARGES
 
@<TRIPOS>ATOM
       1    C1      17.148847   19.044160   20.921423 C.2        1 MOL1         0.6173
       2    O1      16.755099   20.137708   21.281362 O.co2      1 MOL1        -0.6755
       3    O2      16.579738   18.384004   20.074004 O.co2      1 MOL1        -0.6755
       4    C2      18.376377   18.466717   21.532833 C.2        1 MOL1        -0.1504
       5    H1      18.672821   17.486358   21.167077 H          1 MOL1         0.0814
       6    C3      19.109158   19.089362   22.483797 C.2        1 MOL1        -0.1394
       7    H2      18.823119   20.073223   22.855007 H          1 MOL1         0.0817
       8    C4      20.359764   18.497034   23.098734 C.3        1 MOL1        -0.1849
       9    H3      20.209991   17.423432   23.276141 H          1 MOL1         0.0736
      10    H4      20.540396   18.947840   24.083843 H          1 MOL1         0.0736
      11    C5      21.603942   18.693694   22.204918 C.3        1 MOL1        -0.1866
      12    H5      22.453216   18.155628   22.648058 H          1 MOL1         0.0738
      13    H6      21.426665   18.242506   21.218799 H          1 MOL1         0.0738
      14    C6      21.981670   20.180793   22.035892 C.3        1 MOL1        -0.2879
      15    H7      22.175924   20.649706   23.009305 H          1 MOL1         0.0750
      16    H8      22.887556   20.281702   21.424260 H          1 MOL1         0.0750
      17    H9      21.177273   20.739930   21.540381 H          1 MOL1         0.0750
@<TRIPOS>BOND
    1     1     2    1
    2     1     3    2
    3     1     4    1
    4     4     5    1
    5     4     6    2
    6     6     7    1
    7     6     8    1
    8     8     9    1
    9     8    10    1
   10     8    11    1
   11    11    12    1
   12    11    13    1
   13    11    14    1
   14    14    15    1
   15    14    16    1
   16    14    17    1
@<TRIPOS>SUBSTRUCTURE
       1 MOL1            1 RESIDUE      1      MOL     
@<SCITEGIC>MOL_PROPERTY
VConf Rank
SciTegic.value.IntegerValue
399

@<SCITEGIC>MOL_PROPERTY
Conf_Id
SciTegic.value.IntegerValue
3

@<SCITEGIC>MOL_PROPERTY
Delta U+W
SciTegic.value.DoubleValue
0.531

@<SCITEGIC>MOL_PROPERTY
U+W
SciTegic.value.DoubleValue
-52.878

@<SCITEGIC>MOL_PROPERTY
Grad RMS
SciTegic.value.DoubleValue
0.000000

@<SCITEGIC>MOL_PROPERTY
U
SciTegic.value.DoubleValue
10.067

@<SCITEGIC>MOL_PROPERTY
W
SciTegic.value.DoubleValue
-62.945

@<SCITEGIC>MOL_PROPERTY
W(PB)
SciTegic.value.DoubleValue
-64.982

@<SCITEGIC>MOL_PROPERTY
W(SA)
SciTegic.value.DoubleValue
2.037

@<SCITEGIC>MOL_PROPERTY
Valence
SciTegic.value.DoubleValue
2.779

@<SCITEGIC>MOL_PROPERTY
Coulomb
SciTegic.value.DoubleValue
6.474

@<SCITEGIC>MOL_PROPERTY
VdW
SciTegic.value.DoubleValue
0.815

@<SCITEGIC>MOL_PROPERTY
VdW6
SciTegic.value.DoubleValue
-5.088

@<SCITEGIC>MOL_PROPERTY
VdW12
SciTegic.value.DoubleValue
5.902

@<SCITEGIC>MOL_PROPERTY
Bond
SciTegic.value.DoubleValue
0.078

@<SCITEGIC>MOL_PROPERTY
Angle
SciTegic.value.DoubleValue
2.651

@<SCITEGIC>MOL_PROPERTY
Pdih
SciTegic.value.DoubleValue
0.050

@<SCITEGIC>MOL_PROPERTY
Idih
SciTegic.value.DoubleValue
0.000

@<SCITEGIC>MOL_PROPERTY
Tether
SciTegic.value.DoubleValue
0.000

@<TRIPOS>MOLECULE
guest-s19_confgen4.mol2 : confsearch ligand conformer 400
          17          16           1
SMALL
USER_CHARGES
 
@<TRIPOS>ATOM
       1    C1      22.812271   18.119212   22.420760 C.2        1 MOL1         0.6173
       2    O1      23.554254   17.595661   21.612592 O.co2      1 MOL1        -0.6755
       3    O2      22.967731   18.016736   23.623166 O.co2      1 MOL1        -0.6755
       4    C2      21.673446   18.917601   21.891872 C.2        1 MOL1        -0.1504
       5    H1      21.592883   18.968191   20.808517 H          1 MOL1         0.0814
       6    C3      20.770089   19.551562   22.673936 C.2        1 MOL1        -0.1394
       7    H2      20.841290   19.503008   23.760255 H          1 MOL1         0.0817
       8    C4      19.610150   20.361347   22.132524 C.3        1 MOL1        -0.1849
       9    H3      19.776027   20.615969   21.076877 H          1 MOL1         0.0736
      10    H4      19.557010   21.316337   22.672135 H          1 MOL1         0.0736
      11    C5      18.260737   19.625391   22.282927 C.3        1 MOL1        -0.1866
      12    H5      18.095248   19.367968   23.338297 H          1 MOL1         0.0738
      13    H6      17.447417   20.305514   21.994585 H          1 MOL1         0.0738
      14    C6      18.180210   18.349777   21.417390 C.3        1 MOL1        -0.2879
      15    H7      18.939281   17.616913   21.720333 H          1 MOL1         0.0750
      16    H8      17.195494   17.875626   21.519283 H          1 MOL1         0.0750
      17    H9      18.335340   18.584908   20.356381 H          1 MOL1         0.0750
@<TRIPOS>BOND
    1     1     2    1
    2     1     3    2
    3     1     4    1
    4     4     5    1
    5     4     6    2
    6     6     7    1
    7     6     8    1
    8     8     9    1
    9     8    10    1
   10     8    11    1
   11    11    12    1
   12    11    13    1
   13    11    14    1
   14    14    15    1
   15    14    16    1
   16    14    17    1
@<TRIPOS>SUBSTRUCTURE
       1 MOL1            1 RESIDUE      1      MOL     
@<SCITEGIC>MOL_PROPERTY
VConf Rank
SciTegic.value.IntegerValue
400

@<SCITEGIC>MOL_PROPERTY
Conf_Id
SciTegic.value.IntegerValue
45

@<SCITEGIC>MOL_PROPERTY
Delta U+W
SciTegic.value.DoubleValue
0.562

@<SCITEGIC>MOL_PROPERTY
U+W
SciTegic.value.DoubleValue
-52.846

@<SCITEGIC>MOL_PROPERTY
Grad RMS
SciTegic.value.DoubleValue
0.000000

@<SCITEGIC>MOL_PROPERTY
U
SciTegic.value.DoubleValue
10.243

@<SCITEGIC>MOL_PROPERTY
W
SciTegic.value.DoubleValue
-63.089

@<SCITEGIC>MOL_PROPERTY
W(PB)
SciTegic.value.DoubleValue
-65.116

@<SCITEGIC>MOL_PROPERTY
W(SA)
SciTegic.value.DoubleValue
2.026

@<SCITEGIC>MOL_PROPERTY
Valence
SciTegic.value.DoubleValue
2.822

@<SCITEGIC>MOL_PROPERTY
Coulomb
SciTegic.value.DoubleValue
6.637

@<SCITEGIC>MOL_PROPERTY
VdW
SciTegic.value.DoubleValue
0.785

@<SCITEGIC>MOL_PROPERTY
VdW6
SciTegic.value.DoubleValue
-5.216

@<SCITEGIC>MOL_PROPERTY
VdW12
SciTegic.value.DoubleValue
6.001

@<SCITEGIC>MOL_PROPERTY
Bond
SciTegic.value.DoubleValue
0.080

@<SCITEGIC>MOL_PROPERTY
Angle
SciTegic.value.DoubleValue
2.678

@<SCITEGIC>MOL_PROPERTY
Pdih
SciTegic.value.DoubleValue
0.064

@<SCITEGIC>MOL_PROPERTY
Idih
SciTegic.value.DoubleValue
0.000

@<SCITEGIC>MOL_PROPERTY
Tether
SciTegic.value.DoubleValue
0.000

@<TRIPOS>MOLECULE
guest-s19_confgen4.mol2 : confsearch ligand conformer 401
          17          16           1
SMALL
USER_CHARGES
 
@<TRIPOS>ATOM
       1    C1      20.859439   20.743054   19.087592 C.2        1 MOL1         0.6173
       2    O1      20.147818   21.256370   18.246280 O.co2      1 MOL1        -0.6755
       3    O2      22.046572   20.540357   18.914321 O.co2      1 MOL1        -0.6755
       4    C2      20.228462   20.355579   20.378287 C.2        1 MOL1        -0.1504
       5    H1      19.164843   20.564276   20.468118 H          1 MOL1         0.0814
       6    C3      20.897905   19.775869   21.400475 C.2        1 MOL1        -0.1394
       7    H2      21.963176   19.560163   21.320226 H          1 MOL1         0.0817
       8    C4      20.248155   19.382890   22.709150 C.3        1 MOL1        -0.1849
       9    H3      19.509558   20.140665   23.004212 H          1 MOL1         0.0736
      10    H4      21.006160   19.359387   23.503670 H          1 MOL1         0.0736
      11    C5      19.565843   18.003476   22.605804 C.3        1 MOL1        -0.1866
      12    H5      18.804156   18.026521   21.814059 H          1 MOL1         0.0738
      13    H6      20.306957   17.246945   22.312579 H          1 MOL1         0.0738
      14    C6      18.909126   17.591322   23.938612 C.3        1 MOL1        -0.2879
      15    H7      19.655168   17.529526   24.741753 H          1 MOL1         0.0750
      16    H8      18.141178   18.316262   24.238869 H          1 MOL1         0.0750
      17    H9      18.429235   16.608374   23.845611 H          1 MOL1         0.0750
@<TRIPOS>BOND
    1     1     2    1
    2     1     3    2
    3     1     4    1
    4     4     5    1
    5     4     6    2
    6     6     7    1
    7     6     8    1
    8     8     9    1
    9     8    10    1
   10     8    11    1
   11    11    12    1
   12    11    13    1
   13    11    14    1
   14    14    15    1
   15    14    16    1
   16    14    17    1
@<TRIPOS>SUBSTRUCTURE
       1 MOL1            1 RESIDUE      1      MOL     
@<SCITEGIC>MOL_PROPERTY
VConf Rank
SciTegic.value.IntegerValue
401

@<SCITEGIC>MOL_PROPERTY
Conf_Id
SciTegic.value.IntegerValue
36

@<SCITEGIC>MOL_PROPERTY
Delta U+W
SciTegic.value.DoubleValue
0.000

@<SCITEGIC>MOL_PROPERTY
U+W
SciTegic.value.DoubleValue
-53.409

@<SCITEGIC>MOL_PROPERTY
Grad RMS
SciTegic.value.DoubleValue
0.000000

@<SCITEGIC>MOL_PROPERTY
U
SciTegic.value.DoubleValue
9.048

@<SCITEGIC>MOL_PROPERTY
W
SciTegic.value.DoubleValue
-62.457

@<SCITEGIC>MOL_PROPERTY
W(PB)
SciTegic.value.DoubleValue
-64.540

@<SCITEGIC>MOL_PROPERTY
W(SA)
SciTegic.value.DoubleValue
2.084

@<SCITEGIC>MOL_PROPERTY
Valence
SciTegic.value.DoubleValue
2.652

@<SCITEGIC>MOL_PROPERTY
Coulomb
SciTegic.value.DoubleValue
5.578

@<SCITEGIC>MOL_PROPERTY
VdW
SciTegic.value.DoubleValue
0.818

@<SCITEGIC>MOL_PROPERTY
VdW6
SciTegic.value.DoubleValue
-4.534

@<SCITEGIC>MOL_PROPERTY
VdW12
SciTegic.value.DoubleValue
5.352

@<SCITEGIC>MOL_PROPERTY
Bond
SciTegic.value.DoubleValue
0.063

@<SCITEGIC>MOL_PROPERTY
Angle
SciTegic.value.DoubleValue
2.579

@<SCITEGIC>MOL_PROPERTY
Pdih
SciTegic.value.DoubleValue
0.010

@<SCITEGIC>MOL_PROPERTY
Idih
SciTegic.value.DoubleValue
0.000

@<SCITEGIC>MOL_PROPERTY
Tether
SciTegic.value.DoubleValue
0.000

@<TRIPOS>MOLECULE
guest-s19_confgen4.mol2 : confsearch ligand conformer 402
          17          16           1
SMALL
USER_CHARGES
 
@<TRIPOS>ATOM
       1    C1      17.191996   19.252370   23.754288 C.2        1 MOL1         0.6173
       2    O1      16.275472   19.447810   22.978286 O.co2      1 MOL1        -0.6755
       3    O2      17.063732   19.331305   24.960532 O.co2      1 MOL1        -0.6755
       4    C2      18.537959   18.898447   23.227708 C.2        1 MOL1        -0.1504
       5    H1      19.312216   18.736843   23.974246 H          1 MOL1         0.0814
       6    C3      18.824427   18.777196   21.911532 C.2        1 MOL1        -0.1394
       7    H2      18.056785   18.939059   21.155027 H          1 MOL1         0.0817
       8    C4      20.196537   18.418704   21.384241 C.3        1 MOL1        -0.1849
       9    H3      20.100232   17.956275   20.392640 H          1 MOL1         0.0736
      10    H4      20.664582   17.667678   22.035164 H          1 MOL1         0.0736
      11    C5      21.104039   19.662157   21.287897 C.3        1 MOL1        -0.1866
      12    H5      20.634824   20.410940   20.634653 H          1 MOL1         0.0738
      13    H6      21.204773   20.123722   22.280051 H          1 MOL1         0.0738
      14    C6      22.501736   19.306608   20.742411 C.3        1 MOL1        -0.2879
      15    H7      22.432155   18.871747   19.736685 H          1 MOL1         0.0750
      16    H8      23.132464   20.203015   20.681035 H          1 MOL1         0.0750
      17    H9      23.005563   18.581855   21.395349 H          1 MOL1         0.0750
@<TRIPOS>BOND
    1     1     2    1
    2     1     3    2
    3     1     4    1
    4     4     5    1
    5     4     6    2
    6     6     7    1
    7     6     8    1
    8     8     9    1
    9     8    10    1
   10     8    11    1
   11    11    12    1
   12    11    13    1
   13    11    14    1
   14    14    15    1
   15    14    16    1
   16    14    17    1
@<TRIPOS>SUBSTRUCTURE
       1 MOL1            1 RESIDUE      1      MOL     
@<SCITEGIC>MOL_PROPERTY
VConf Rank
SciTegic.value.IntegerValue
402

@<SCITEGIC>MOL_PROPERTY
Conf_Id
SciTegic.value.IntegerValue
1

@<SCITEGIC>MOL_PROPERTY
Delta U+W
SciTegic.value.DoubleValue
0.030

@<SCITEGIC>MOL_PROPERTY
U+W
SciTegic.value.DoubleValue
-53.378

@<SCITEGIC>MOL_PROPERTY
Grad RMS
SciTegic.value.DoubleValue
0.000000

@<SCITEGIC>MOL_PROPERTY
U
SciTegic.value.DoubleValue
9.048

@<SCITEGIC>MOL_PROPERTY
W
SciTegic.value.DoubleValue
-62.426

@<SCITEGIC>MOL_PROPERTY
W(PB)
SciTegic.value.DoubleValue
-64.506

@<SCITEGIC>MOL_PROPERTY
W(SA)
SciTegic.value.DoubleValue
2.080

@<SCITEGIC>MOL_PROPERTY
Valence
SciTegic.value.DoubleValue
2.652

@<SCITEGIC>MOL_PROPERTY
Coulomb
SciTegic.value.DoubleValue
5.578

@<SCITEGIC>MOL_PROPERTY
VdW
SciTegic.value.DoubleValue
0.818

@<SCITEGIC>MOL_PROPERTY
VdW6
SciTegic.value.DoubleValue
-4.535

@<SCITEGIC>MOL_PROPERTY
VdW12
SciTegic.value.DoubleValue
5.352

@<SCITEGIC>MOL_PROPERTY
Bond
SciTegic.value.DoubleValue
0.063

@<SCITEGIC>MOL_PROPERTY
Angle
SciTegic.value.DoubleValue
2.579

@<SCITEGIC>MOL_PROPERTY
Pdih
SciTegic.value.DoubleValue
0.010

@<SCITEGIC>MOL_PROPERTY
Idih
SciTegic.value.DoubleValue
0.000

@<SCITEGIC>MOL_PROPERTY
Tether
SciTegic.value.DoubleValue
0.000

@<TRIPOS>MOLECULE
guest-s19_confgen4.mol2 : confsearch ligand conformer 403
          17          16           1
SMALL
USER_CHARGES
 
@<TRIPOS>ATOM
       1    C1      20.217522   20.489118   19.312410 C.2        1 MOL1         0.6173
       2    O1      19.440318   19.814362   18.663488 O.co2      1 MOL1        -0.6755
       3    O2      20.615950   21.576253   18.942001 O.co2      1 MOL1        -0.6755
       4    C2      20.719250   19.981551   20.618065 C.2        1 MOL1        -0.1504
       5    H1      21.411455   20.633099   21.146362 H          1 MOL1         0.0814
       6    C3      20.360134   18.792326   21.152636 C.2        1 MOL1        -0.1394
       7    H2      19.664675   18.133250   20.633451 H          1 MOL1         0.0817
       8    C4      20.871983   18.284036   22.484050 C.3        1 MOL1        -0.1849
       9    H3      21.940937   18.517383   22.581072 H          1 MOL1         0.0736
      10    H4      20.793097   17.189165   22.520493 H          1 MOL1         0.0736
      11    C5      20.109563   18.896728   23.679410 C.3        1 MOL1        -0.1866
      12    H5      20.589702   18.575963   24.614145 H          1 MOL1         0.0738
      13    H6      20.187740   19.992275   23.646353 H          1 MOL1         0.0738
      14    C6      18.622919   18.482247   23.707846 C.3        1 MOL1        -0.2879
      15    H7      18.520521   17.390207   23.753745 H          1 MOL1         0.0750
      16    H8      18.120657   18.906999   24.586611 H          1 MOL1         0.0750
      17    H9      18.095134   18.838838   22.813695 H          1 MOL1         0.0750
@<TRIPOS>BOND
    1     1     2    1
    2     1     3    2
    3     1     4    1
    4     4     5    1
    5     4     6    2
    6     6     7    1
    7     6     8    1
    8     8     9    1
    9     8    10    1
   10     8    11    1
   11    11    12    1
   12    11    13    1
   13    11    14    1
   14    14    15    1
   15    14    16    1
   16    14    17    1
@<TRIPOS>SUBSTRUCTURE
       1 MOL1            1 RESIDUE      1      MOL     
@<SCITEGIC>MOL_PROPERTY
VConf Rank
SciTegic.value.IntegerValue
403

@<SCITEGIC>MOL_PROPERTY
Conf_Id
SciTegic.value.IntegerValue
3

@<SCITEGIC>MOL_PROPERTY
Delta U+W
SciTegic.value.DoubleValue
0.531

@<SCITEGIC>MOL_PROPERTY
U+W
SciTegic.value.DoubleValue
-52.878

@<SCITEGIC>MOL_PROPERTY
Grad RMS
SciTegic.value.DoubleValue
0.000000

@<SCITEGIC>MOL_PROPERTY
U
SciTegic.value.DoubleValue
10.067

@<SCITEGIC>MOL_PROPERTY
W
SciTegic.value.DoubleValue
-62.945

@<SCITEGIC>MOL_PROPERTY
W(PB)
SciTegic.value.DoubleValue
-64.982

@<SCITEGIC>MOL_PROPERTY
W(SA)
SciTegic.value.DoubleValue
2.037

@<SCITEGIC>MOL_PROPERTY
Valence
SciTegic.value.DoubleValue
2.779

@<SCITEGIC>MOL_PROPERTY
Coulomb
SciTegic.value.DoubleValue
6.474

@<SCITEGIC>MOL_PROPERTY
VdW
SciTegic.value.DoubleValue
0.815

@<SCITEGIC>MOL_PROPERTY
VdW6
SciTegic.value.DoubleValue
-5.088

@<SCITEGIC>MOL_PROPERTY
VdW12
SciTegic.value.DoubleValue
5.902

@<SCITEGIC>MOL_PROPERTY
Bond
SciTegic.value.DoubleValue
0.078

@<SCITEGIC>MOL_PROPERTY
Angle
SciTegic.value.DoubleValue
2.651

@<SCITEGIC>MOL_PROPERTY
Pdih
SciTegic.value.DoubleValue
0.050

@<SCITEGIC>MOL_PROPERTY
Idih
SciTegic.value.DoubleValue
0.000

@<SCITEGIC>MOL_PROPERTY
Tether
SciTegic.value.DoubleValue
0.000

@<TRIPOS>MOLECULE
guest-s19_confgen4.mol2 : confsearch ligand conformer 404
          17          16           1
SMALL
USER_CHARGES
 
@<TRIPOS>ATOM
       1    C1      22.287189   17.208964   22.531632 C.2        1 MOL1         0.6173
       2    O1      22.303476   15.993453   22.538662 O.co2      1 MOL1        -0.6755
       3    O2      23.148132   17.883999   23.064128 O.co2      1 MOL1        -0.6755
       4    C2      21.156544   17.877180   21.832202 C.2        1 MOL1        -0.1504
       5    H1      20.422658   17.215387   21.378167 H          1 MOL1         0.0814
       6    C3      21.010270   19.219208   21.747646 C.2        1 MOL1        -0.1394
       7    H2      21.738969   19.889500   22.202865 H          1 MOL1         0.0817
       8    C4      19.856619   19.896522   21.037244 C.3        1 MOL1        -0.1849
       9    H3      19.351656   19.192387   20.362006 H          1 MOL1         0.0736
      10    H4      20.249932   20.700666   20.401109 H          1 MOL1         0.0736
      11    C5      18.830712   20.495209   22.024288 C.3        1 MOL1        -0.1866
      12    H5      19.335517   21.197727   22.701856 H          1 MOL1         0.0738
      13    H6      18.090274   21.079737   21.461015 H          1 MOL1         0.0738
      14    C6      18.097627   19.414384   22.847230 C.3        1 MOL1        -0.2879
      15    H7      18.799804   18.849819   23.474341 H          1 MOL1         0.0750
      16    H8      17.350491   19.872810   23.507911 H          1 MOL1         0.0750
      17    H9      17.579006   18.704768   22.189530 H          1 MOL1         0.0750
@<TRIPOS>BOND
    1     1     2    1
    2     1     3    2
    3     1     4    1
    4     4     5    1
    5     4     6    2
    6     6     7    1
    7     6     8    1
    8     8     9    1
    9     8    10    1
   10     8    11    1
   11    11    12    1
   12    11    13    1
   13    11    14    1
   14    14    15    1
   15    14    16    1
   16    14    17    1
@<TRIPOS>SUBSTRUCTURE
       1 MOL1            1 RESIDUE      1      MOL     
@<SCITEGIC>MOL_PROPERTY
VConf Rank
SciTegic.value.IntegerValue
404

@<SCITEGIC>MOL_PROPERTY
Conf_Id
SciTegic.value.IntegerValue
45

@<SCITEGIC>MOL_PROPERTY
Delta U+W
SciTegic.value.DoubleValue
0.562

@<SCITEGIC>MOL_PROPERTY
U+W
SciTegic.value.DoubleValue
-52.846

@<SCITEGIC>MOL_PROPERTY
Grad RMS
SciTegic.value.DoubleValue
0.000000

@<SCITEGIC>MOL_PROPERTY
U
SciTegic.value.DoubleValue
10.243

@<SCITEGIC>MOL_PROPERTY
W
SciTegic.value.DoubleValue
-63.089

@<SCITEGIC>MOL_PROPERTY
W(PB)
SciTegic.value.DoubleValue
-65.116

@<SCITEGIC>MOL_PROPERTY
W(SA)
SciTegic.value.DoubleValue
2.026

@<SCITEGIC>MOL_PROPERTY
Valence
SciTegic.value.DoubleValue
2.822

@<SCITEGIC>MOL_PROPERTY
Coulomb
SciTegic.value.DoubleValue
6.637

@<SCITEGIC>MOL_PROPERTY
VdW
SciTegic.value.DoubleValue
0.785

@<SCITEGIC>MOL_PROPERTY
VdW6
SciTegic.value.DoubleValue
-5.216

@<SCITEGIC>MOL_PROPERTY
VdW12
SciTegic.value.DoubleValue
6.001

@<SCITEGIC>MOL_PROPERTY
Bond
SciTegic.value.DoubleValue
0.080

@<SCITEGIC>MOL_PROPERTY
Angle
SciTegic.value.DoubleValue
2.678

@<SCITEGIC>MOL_PROPERTY
Pdih
SciTegic.value.DoubleValue
0.064

@<SCITEGIC>MOL_PROPERTY
Idih
SciTegic.value.DoubleValue
0.000

@<SCITEGIC>MOL_PROPERTY
Tether
SciTegic.value.DoubleValue
0.000

@<TRIPOS>MOLECULE
guest-s19_confgen4.mol2 : confsearch ligand conformer 405
          17          16           1
SMALL
USER_CHARGES
 
@<TRIPOS>ATOM
       1    C1      18.857856   18.985708   25.087091 C.2        1 MOL1         0.6173
       2    O1      19.008135   18.115478   25.922448 O.co2      1 MOL1        -0.6755
       3    O2      18.049786   19.886987   25.210027 O.co2      1 MOL1        -0.6755
       4    C2      19.712082   18.925483   23.870197 C.2        1 MOL1        -0.1504
       5    H1      20.412937   18.095135   23.822944 H          1 MOL1         0.0814
       6    C3      19.651545   19.824411   22.861561 C.2        1 MOL1        -0.1394
       7    H2      18.951379   20.658824   22.897557 H          1 MOL1         0.0817
       8    C4      20.522444   19.754696   21.626282 C.3        1 MOL1        -0.1849
       9    H3      21.534385   19.424875   21.898316 H          1 MOL1         0.0736
      10    H4      20.626945   20.758472   21.192809 H          1 MOL1         0.0736
      11    C5      19.928325   18.797039   20.573224 C.3        1 MOL1        -0.1866
      12    H5      19.827023   17.791211   21.004046 H          1 MOL1         0.0738
      13    H6      18.917066   19.130144   20.301259 H          1 MOL1         0.0738
      14    C6      20.805404   18.727587   19.306956 C.3        1 MOL1        -0.2879
      15    H7      20.897066   19.715930   18.837694 H          1 MOL1         0.0750
      16    H8      21.814245   18.367055   19.547150 H          1 MOL1         0.0750
      17    H9      20.367130   18.042001   18.570058 H          1 MOL1         0.0750
@<TRIPOS>BOND
    1     1     2    1
    2     1     3    2
    3     1     4    1
    4     4     5    1
    5     4     6    2
    6     6     7    1
    7     6     8    1
    8     8     9    1
    9     8    10    1
   10     8    11    1
   11    11    12    1
   12    11    13    1
   13    11    14    1
   14    14    15    1
   15    14    16    1
   16    14    17    1
@<TRIPOS>SUBSTRUCTURE
       1 MOL1            1 RESIDUE      1      MOL     
@<SCITEGIC>MOL_PROPERTY
VConf Rank
SciTegic.value.IntegerValue
405

@<SCITEGIC>MOL_PROPERTY
Conf_Id
SciTegic.value.IntegerValue
36

@<SCITEGIC>MOL_PROPERTY
Delta U+W
SciTegic.value.DoubleValue
0.000

@<SCITEGIC>MOL_PROPERTY
U+W
SciTegic.value.DoubleValue
-53.409

@<SCITEGIC>MOL_PROPERTY
Grad RMS
SciTegic.value.DoubleValue
0.000000

@<SCITEGIC>MOL_PROPERTY
U
SciTegic.value.DoubleValue
9.048

@<SCITEGIC>MOL_PROPERTY
W
SciTegic.value.DoubleValue
-62.457

@<SCITEGIC>MOL_PROPERTY
W(PB)
SciTegic.value.DoubleValue
-64.540

@<SCITEGIC>MOL_PROPERTY
W(SA)
SciTegic.value.DoubleValue
2.084

@<SCITEGIC>MOL_PROPERTY
Valence
SciTegic.value.DoubleValue
2.652

@<SCITEGIC>MOL_PROPERTY
Coulomb
SciTegic.value.DoubleValue
5.578

@<SCITEGIC>MOL_PROPERTY
VdW
SciTegic.value.DoubleValue
0.818

@<SCITEGIC>MOL_PROPERTY
VdW6
SciTegic.value.DoubleValue
-4.534

@<SCITEGIC>MOL_PROPERTY
VdW12
SciTegic.value.DoubleValue
5.352

@<SCITEGIC>MOL_PROPERTY
Bond
SciTegic.value.DoubleValue
0.063

@<SCITEGIC>MOL_PROPERTY
Angle
SciTegic.value.DoubleValue
2.579

@<SCITEGIC>MOL_PROPERTY
Pdih
SciTegic.value.DoubleValue
0.010

@<SCITEGIC>MOL_PROPERTY
Idih
SciTegic.value.DoubleValue
0.000

@<SCITEGIC>MOL_PROPERTY
Tether
SciTegic.value.DoubleValue
0.000

@<TRIPOS>MOLECULE
guest-s19_confgen4.mol2 : confsearch ligand conformer 406
          17          16           1
SMALL
USER_CHARGES
 
@<TRIPOS>ATOM
       1    C1      20.385741   15.778301   21.413308 C.2        1 MOL1         0.6173
       2    O1      20.851228   15.640115   20.297683 O.co2      1 MOL1        -0.6755
       3    O2      19.959993   14.848603   22.070656 O.co2      1 MOL1        -0.6755
       4    C2      20.325521   17.134948   22.021622 C.2        1 MOL1        -0.1504
       5    H1      19.898379   17.188689   23.020407 H          1 MOL1         0.0814
       6    C3      20.761132   18.257291   21.405444 C.2        1 MOL1        -0.1394
       7    H2      21.188789   18.215179   20.403891 H          1 MOL1         0.0817
       8    C4      20.694545   19.633578   22.030457 C.3        1 MOL1        -0.1849
       9    H3      21.463608   20.278029   21.583677 H          1 MOL1         0.0736
      10    H4      20.924106   19.570522   23.102899 H          1 MOL1         0.0736
      11    C5      19.305520   20.274155   21.832246 C.3        1 MOL1        -0.1866
      12    H5      19.079126   20.338113   20.758830 H          1 MOL1         0.0738
      13    H6      18.535226   19.632571   22.282331 H          1 MOL1         0.0738
      14    C6      19.232346   21.681253   22.458543 C.3        1 MOL1        -0.2879
      15    H7      19.972039   22.352940   22.003436 H          1 MOL1         0.0750
      16    H8      18.237678   22.120534   22.307549 H          1 MOL1         0.0750
      17    H9      19.424514   21.640913   23.538764 H          1 MOL1         0.0750
@<TRIPOS>BOND
    1     1     2    1
    2     1     3    2
    3     1     4    1
    4     4     5    1
    5     4     6    2
    6     6     7    1
    7     6     8    1
    8     8     9    1
    9     8    10    1
   10     8    11    1
   11    11    12    1
   12    11    13    1
   13    11    14    1
   14    14    15    1
   15    14    16    1
   16    14    17    1
@<TRIPOS>SUBSTRUCTURE
       1 MOL1            1 RESIDUE      1      MOL     
@<SCITEGIC>MOL_PROPERTY
VConf Rank
SciTegic.value.IntegerValue
406

@<SCITEGIC>MOL_PROPERTY
Conf_Id
SciTegic.value.IntegerValue
1

@<SCITEGIC>MOL_PROPERTY
Delta U+W
SciTegic.value.DoubleValue
0.030

@<SCITEGIC>MOL_PROPERTY
U+W
SciTegic.value.DoubleValue
-53.378

@<SCITEGIC>MOL_PROPERTY
Grad RMS
SciTegic.value.DoubleValue
0.000000

@<SCITEGIC>MOL_PROPERTY
U
SciTegic.value.DoubleValue
9.048

@<SCITEGIC>MOL_PROPERTY
W
SciTegic.value.DoubleValue
-62.426

@<SCITEGIC>MOL_PROPERTY
W(PB)
SciTegic.value.DoubleValue
-64.506

@<SCITEGIC>MOL_PROPERTY
W(SA)
SciTegic.value.DoubleValue
2.080

@<SCITEGIC>MOL_PROPERTY
Valence
SciTegic.value.DoubleValue
2.652

@<SCITEGIC>MOL_PROPERTY
Coulomb
SciTegic.value.DoubleValue
5.578

@<SCITEGIC>MOL_PROPERTY
VdW
SciTegic.value.DoubleValue
0.818

@<SCITEGIC>MOL_PROPERTY
VdW6
SciTegic.value.DoubleValue
-4.535

@<SCITEGIC>MOL_PROPERTY
VdW12
SciTegic.value.DoubleValue
5.352

@<SCITEGIC>MOL_PROPERTY
Bond
SciTegic.value.DoubleValue
0.063

@<SCITEGIC>MOL_PROPERTY
Angle
SciTegic.value.DoubleValue
2.579

@<SCITEGIC>MOL_PROPERTY
Pdih
SciTegic.value.DoubleValue
0.010

@<SCITEGIC>MOL_PROPERTY
Idih
SciTegic.value.DoubleValue
0.000

@<SCITEGIC>MOL_PROPERTY
Tether
SciTegic.value.DoubleValue
0.000

@<TRIPOS>MOLECULE
guest-s19_confgen4.mol2 : confsearch ligand conformer 407
          17          16           1
SMALL
USER_CHARGES
 
@<TRIPOS>ATOM
       1    C1      19.745964   16.527648   20.355588 C.2        1 MOL1         0.6173
       2    O1      19.264931   16.988743   19.337531 O.co2      1 MOL1        -0.6755
       3    O2      20.240031   15.418173   20.408246 O.co2      1 MOL1        -0.6755
       4    C2      19.737975   17.336442   21.604539 C.2        1 MOL1        -0.1504
       5    H1      20.182516   16.865231   22.478098 H          1 MOL1         0.0814
       6    C3      19.223743   18.584266   21.691057 C.2        1 MOL1        -0.1394
       7    H2      18.779020   19.067159   20.821210 H          1 MOL1         0.0817
       8    C4      19.222669   19.402996   22.964907 C.3        1 MOL1        -0.1849
       9    H3      18.980629   18.755597   23.818615 H          1 MOL1         0.0736
      10    H4      18.428801   20.160688   22.920520 H          1 MOL1         0.0736
      11    C5      20.580744   20.092469   23.221465 C.3        1 MOL1        -0.1866
      12    H5      20.555079   20.581668   24.204917 H          1 MOL1         0.0738
      13    H6      21.377007   19.336651   23.267633 H          1 MOL1         0.0738
      14    C6      20.923371   21.143413   22.144044 C.3        1 MOL1        -0.2879
      15    H7      20.146326   21.916909   22.088820 H          1 MOL1         0.0750
      16    H8      21.876504   21.636383   22.375181 H          1 MOL1         0.0750
      17    H9      21.016248   20.679362   21.153463 H          1 MOL1         0.0750
@<TRIPOS>BOND
    1     1     2    1
    2     1     3    2
    3     1     4    1
    4     4     5    1
    5     4     6    2
    6     6     7    1
    7     6     8    1
    8     8     9    1
    9     8    10    1
   10     8    11    1
   11    11    12    1
   12    11    13    1
   13    11    14    1
   14    14    15    1
   15    14    16    1
   16    14    17    1
@<TRIPOS>SUBSTRUCTURE
       1 MOL1            1 RESIDUE      1      MOL     
@<SCITEGIC>MOL_PROPERTY
VConf Rank
SciTegic.value.IntegerValue
407

@<SCITEGIC>MOL_PROPERTY
Conf_Id
SciTegic.value.IntegerValue
3

@<SCITEGIC>MOL_PROPERTY
Delta U+W
SciTegic.value.DoubleValue
0.531

@<SCITEGIC>MOL_PROPERTY
U+W
SciTegic.value.DoubleValue
-52.878

@<SCITEGIC>MOL_PROPERTY
Grad RMS
SciTegic.value.DoubleValue
0.000000

@<SCITEGIC>MOL_PROPERTY
U
SciTegic.value.DoubleValue
10.067

@<SCITEGIC>MOL_PROPERTY
W
SciTegic.value.DoubleValue
-62.945

@<SCITEGIC>MOL_PROPERTY
W(PB)
SciTegic.value.DoubleValue
-64.982

@<SCITEGIC>MOL_PROPERTY
W(SA)
SciTegic.value.DoubleValue
2.037

@<SCITEGIC>MOL_PROPERTY
Valence
SciTegic.value.DoubleValue
2.779

@<SCITEGIC>MOL_PROPERTY
Coulomb
SciTegic.value.DoubleValue
6.474

@<SCITEGIC>MOL_PROPERTY
VdW
SciTegic.value.DoubleValue
0.815

@<SCITEGIC>MOL_PROPERTY
VdW6
SciTegic.value.DoubleValue
-5.088

@<SCITEGIC>MOL_PROPERTY
VdW12
SciTegic.value.DoubleValue
5.902

@<SCITEGIC>MOL_PROPERTY
Bond
SciTegic.value.DoubleValue
0.078

@<SCITEGIC>MOL_PROPERTY
Angle
SciTegic.value.DoubleValue
2.651

@<SCITEGIC>MOL_PROPERTY
Pdih
SciTegic.value.DoubleValue
0.050

@<SCITEGIC>MOL_PROPERTY
Idih
SciTegic.value.DoubleValue
0.000

@<SCITEGIC>MOL_PROPERTY
Tether
SciTegic.value.DoubleValue
0.000

@<TRIPOS>MOLECULE
guest-s19_confgen4.mol2 : confsearch ligand conformer 408
          17          16           1
SMALL
USER_CHARGES
 
@<TRIPOS>ATOM
       1    C1      22.902712   19.778491   21.764465 C.2        1 MOL1         0.6173
       2    O1      23.483607   20.288812   20.826428 O.co2      1 MOL1        -0.6755
       3    O2      23.472371   19.121777   22.615736 O.co2      1 MOL1        -0.6755
       4    C2      21.431640   19.982824   21.855391 C.2        1 MOL1        -0.1504
       5    H1      20.986174   20.579302   21.062623 H          1 MOL1         0.0814
       6    C3      20.659472   19.472366   22.841684 C.2        1 MOL1        -0.1394
       7    H2      21.097125   18.870583   23.637822 H          1 MOL1         0.0817
       8    C4      19.161644   19.679836   22.930019 C.3        1 MOL1        -0.1849
       9    H3      18.850022   20.521183   22.296168 H          1 MOL1         0.0736
      10    H4      18.898606   19.959110   23.959012 H          1 MOL1         0.0736
      11    C5      18.370265   18.413168   22.537033 C.3        1 MOL1        -0.1866
      12    H5      18.683286   17.570394   23.168863 H          1 MOL1         0.0738
      13    H6      17.303538   18.579212   22.741286 H          1 MOL1         0.0738
      14    C6      18.545418   18.041187   21.049154 C.3        1 MOL1        -0.2879
      15    H7      19.592727   17.804651   20.820579 H          1 MOL1         0.0750
      16    H8      17.939296   17.161406   20.797225 H          1 MOL1         0.0750
      17    H9      18.230978   18.867419   20.398340 H          1 MOL1         0.0750
@<TRIPOS>BOND
    1     1     2    1
    2     1     3    2
    3     1     4    1
    4     4     5    1
    5     4     6    2
    6     6     7    1
    7     6     8    1
    8     8     9    1
    9     8    10    1
   10     8    11    1
   11    11    12    1
   12    11    13    1
   13    11    14    1
   14    14    15    1
   15    14    16    1
   16    14    17    1
@<TRIPOS>SUBSTRUCTURE
       1 MOL1            1 RESIDUE      1      MOL     
@<SCITEGIC>MOL_PROPERTY
VConf Rank
SciTegic.value.IntegerValue
408

@<SCITEGIC>MOL_PROPERTY
Conf_Id
SciTegic.value.IntegerValue
45

@<SCITEGIC>MOL_PROPERTY
Delta U+W
SciTegic.value.DoubleValue
0.562

@<SCITEGIC>MOL_PROPERTY
U+W
SciTegic.value.DoubleValue
-52.846

@<SCITEGIC>MOL_PROPERTY
Grad RMS
SciTegic.value.DoubleValue
0.000000

@<SCITEGIC>MOL_PROPERTY
U
SciTegic.value.DoubleValue
10.243

@<SCITEGIC>MOL_PROPERTY
W
SciTegic.value.DoubleValue
-63.089

@<SCITEGIC>MOL_PROPERTY
W(PB)
SciTegic.value.DoubleValue
-65.116

@<SCITEGIC>MOL_PROPERTY
W(SA)
SciTegic.value.DoubleValue
2.026

@<SCITEGIC>MOL_PROPERTY
Valence
SciTegic.value.DoubleValue
2.822

@<SCITEGIC>MOL_PROPERTY
Coulomb
SciTegic.value.DoubleValue
6.637

@<SCITEGIC>MOL_PROPERTY
VdW
SciTegic.value.DoubleValue
0.785

@<SCITEGIC>MOL_PROPERTY
VdW6
SciTegic.value.DoubleValue
-5.216

@<SCITEGIC>MOL_PROPERTY
VdW12
SciTegic.value.DoubleValue
6.001

@<SCITEGIC>MOL_PROPERTY
Bond
SciTegic.value.DoubleValue
0.080

@<SCITEGIC>MOL_PROPERTY
Angle
SciTegic.value.DoubleValue
2.678

@<SCITEGIC>MOL_PROPERTY
Pdih
SciTegic.value.DoubleValue
0.064

@<SCITEGIC>MOL_PROPERTY
Idih
SciTegic.value.DoubleValue
0.000

@<SCITEGIC>MOL_PROPERTY
Tether
SciTegic.value.DoubleValue
0.000

@<TRIPOS>MOLECULE
guest-s19_confgen4.mol2 : confsearch ligand conformer 409
          17          16           1
SMALL
USER_CHARGES
 
@<TRIPOS>ATOM
       1    C1      22.967804   20.659933   22.302127 C.2        1 MOL1         0.6173
       2    O1      24.062195   20.337686   21.882403 O.co2      1 MOL1        -0.6755
       3    O2      22.812209   21.516571   23.152042 O.co2      1 MOL1        -0.6755
       4    C2      21.781543   19.963013   21.735339 C.2        1 MOL1        -0.1504
       5    H1      21.990223   19.208724   20.980084 H          1 MOL1         0.0814
       6    C3      20.507211   20.218805   22.109148 C.2        1 MOL1        -0.1394
       7    H2      20.286979   20.970794   22.866634 H          1 MOL1         0.0817
       8    C4      19.306432   19.503899   21.529256 C.3        1 MOL1        -0.1849
       9    H3      19.453100   19.335111   20.453706 H          1 MOL1         0.0736
      10    H4      18.416719   20.140463   21.627160 H          1 MOL1         0.0736
      11    C5      19.057898   18.156921   22.238407 C.3        1 MOL1        -0.1866
      12    H5      19.945668   17.517157   22.137772 H          1 MOL1         0.0738
      13    H6      18.909471   18.328545   23.313619 H          1 MOL1         0.0738
      14    C6      17.829775   17.426197   21.659372 C.3        1 MOL1        -0.2879
      15    H7      16.921232   18.031486   21.776015 H          1 MOL1         0.0750
      16    H8      17.966214   17.214805   20.590666 H          1 MOL1         0.0750
      17    H9      17.669078   16.470927   22.175867 H          1 MOL1         0.0750
@<TRIPOS>BOND
    1     1     2    1
    2     1     3    2
    3     1     4    1
    4     4     5    1
    5     4     6    2
    6     6     7    1
    7     6     8    1
    8     8     9    1
    9     8    10    1
   10     8    11    1
   11    11    12    1
   12    11    13    1
   13    11    14    1
   14    14    15    1
   15    14    16    1
   16    14    17    1
@<TRIPOS>SUBSTRUCTURE
       1 MOL1            1 RESIDUE      1      MOL     
@<SCITEGIC>MOL_PROPERTY
VConf Rank
SciTegic.value.IntegerValue
409

@<SCITEGIC>MOL_PROPERTY
Conf_Id
SciTegic.value.IntegerValue
36

@<SCITEGIC>MOL_PROPERTY
Delta U+W
SciTegic.value.DoubleValue
0.000

@<SCITEGIC>MOL_PROPERTY
U+W
SciTegic.value.DoubleValue
-53.409

@<SCITEGIC>MOL_PROPERTY
Grad RMS
SciTegic.value.DoubleValue
0.000000

@<SCITEGIC>MOL_PROPERTY
U
SciTegic.value.DoubleValue
9.048

@<SCITEGIC>MOL_PROPERTY
W
SciTegic.value.DoubleValue
-62.457

@<SCITEGIC>MOL_PROPERTY
W(PB)
SciTegic.value.DoubleValue
-64.540

@<SCITEGIC>MOL_PROPERTY
W(SA)
SciTegic.value.DoubleValue
2.084

@<SCITEGIC>MOL_PROPERTY
Valence
SciTegic.value.DoubleValue
2.652

@<SCITEGIC>MOL_PROPERTY
Coulomb
SciTegic.value.DoubleValue
5.578

@<SCITEGIC>MOL_PROPERTY
VdW
SciTegic.value.DoubleValue
0.818

@<SCITEGIC>MOL_PROPERTY
VdW6
SciTegic.value.DoubleValue
-4.534

@<SCITEGIC>MOL_PROPERTY
VdW12
SciTegic.value.DoubleValue
5.352

@<SCITEGIC>MOL_PROPERTY
Bond
SciTegic.value.DoubleValue
0.063

@<SCITEGIC>MOL_PROPERTY
Angle
SciTegic.value.DoubleValue
2.579

@<SCITEGIC>MOL_PROPERTY
Pdih
SciTegic.value.DoubleValue
0.010

@<SCITEGIC>MOL_PROPERTY
Idih
SciTegic.value.DoubleValue
0.000

@<SCITEGIC>MOL_PROPERTY
Tether
SciTegic.value.DoubleValue
0.000

@<TRIPOS>MOLECULE
guest-s19_confgen4.mol2 : confsearch ligand conformer 410
          17          16           1
SMALL
USER_CHARGES
 
@<TRIPOS>ATOM
       1    C1      19.013307   16.654337   24.017802 C.2        1 MOL1         0.6173
       2    O1      18.232677   15.954425   23.400442 O.co2      1 MOL1        -0.6755
       3    O2      19.179017   16.558071   25.218209 O.co2      1 MOL1        -0.6755
       4    C2      19.812586   17.679329   23.293435 C.2        1 MOL1        -0.1504
       5    H1      20.491132   18.270680   23.903999 H          1 MOL1         0.0814
       6    C3      19.729783   17.896566   21.961129 C.2        1 MOL1        -0.1394
       7    H2      19.051676   17.311330   21.340289 H          1 MOL1         0.0817
       8    C4      20.544935   18.942401   21.232434 C.3        1 MOL1        -0.1849
       9    H3      20.653466   18.655144   20.177877 H          1 MOL1         0.0736
      10    H4      21.559886   18.985934   21.650508 H          1 MOL1         0.0736
      11    C5      19.884512   20.333312   21.323132 C.3        1 MOL1        -0.1866
      12    H5      18.870364   20.287722   20.902428 H          1 MOL1         0.0738
      13    H6      19.778909   20.624043   22.377591 H          1 MOL1         0.0738
      14    C6      20.704638   21.403369   20.574869 C.3        1 MOL1        -0.2879
      15    H7      20.798690   21.152968   19.510029 H          1 MOL1         0.0750
      16    H8      20.219579   22.385272   20.650450 H          1 MOL1         0.0750
      17    H9      21.714336   21.490830   20.997120 H          1 MOL1         0.0750
@<TRIPOS>BOND
    1     1     2    1
    2     1     3    2
    3     1     4    1
    4     4     5    1
    5     4     6    2
    6     6     7    1
    7     6     8    1
    8     8     9    1
    9     8    10    1
   10     8    11    1
   11    11    12    1
   12    11    13    1
   13    11    14    1
   14    14    15    1
   15    14    16    1
   16    14    17    1
@<TRIPOS>SUBSTRUCTURE
       1 MOL1            1 RESIDUE      1      MOL     
@<SCITEGIC>MOL_PROPERTY
VConf Rank
SciTegic.value.IntegerValue
410

@<SCITEGIC>MOL_PROPERTY
Conf_Id
SciTegic.value.IntegerValue
1

@<SCITEGIC>MOL_PROPERTY
Delta U+W
SciTegic.value.DoubleValue
0.030

@<SCITEGIC>MOL_PROPERTY
U+W
SciTegic.value.DoubleValue
-53.378

@<SCITEGIC>MOL_PROPERTY
Grad RMS
SciTegic.value.DoubleValue
0.000000

@<SCITEGIC>MOL_PROPERTY
U
SciTegic.value.DoubleValue
9.048

@<SCITEGIC>MOL_PROPERTY
W
SciTegic.value.DoubleValue
-62.426

@<SCITEGIC>MOL_PROPERTY
W(PB)
SciTegic.value.DoubleValue
-64.506

@<SCITEGIC>MOL_PROPERTY
W(SA)
SciTegic.value.DoubleValue
2.080

@<SCITEGIC>MOL_PROPERTY
Valence
SciTegic.value.DoubleValue
2.652

@<SCITEGIC>MOL_PROPERTY
Coulomb
SciTegic.value.DoubleValue
5.578

@<SCITEGIC>MOL_PROPERTY
VdW
SciTegic.value.DoubleValue
0.818

@<SCITEGIC>MOL_PROPERTY
VdW6
SciTegic.value.DoubleValue
-4.535

@<SCITEGIC>MOL_PROPERTY
VdW12
SciTegic.value.DoubleValue
5.352

@<SCITEGIC>MOL_PROPERTY
Bond
SciTegic.value.DoubleValue
0.063

@<SCITEGIC>MOL_PROPERTY
Angle
SciTegic.value.DoubleValue
2.579

@<SCITEGIC>MOL_PROPERTY
Pdih
SciTegic.value.DoubleValue
0.010

@<SCITEGIC>MOL_PROPERTY
Idih
SciTegic.value.DoubleValue
0.000

@<SCITEGIC>MOL_PROPERTY
Tether
SciTegic.value.DoubleValue
0.000

@<TRIPOS>MOLECULE
guest-s19_confgen4.mol2 : confsearch ligand conformer 411
          17          16           1
SMALL
USER_CHARGES
 
@<TRIPOS>ATOM
       1    C1      19.787854   19.139917   18.977048 C.2        1 MOL1         0.6173
       2    O1      20.959339   19.263218   18.672317 O.co2      1 MOL1        -0.6755
       3    O2      18.931727   18.801049   18.183307 O.co2      1 MOL1        -0.6755
       4    C2      19.359042   19.413518   20.375388 C.2        1 MOL1        -0.1504
       5    H1      18.298711   19.285408   20.580443 H          1 MOL1         0.0814
       6    C3      20.202273   19.796150   21.361055 C.2        1 MOL1        -0.1394
       7    H2      21.267027   19.924241   21.167433 H          1 MOL1         0.0817
       8    C4      19.759119   20.069113   22.783067 C.3        1 MOL1        -0.1849
       9    H3      18.802504   20.608856   22.773541 H          1 MOL1         0.0736
      10    H4      20.480572   20.733480   23.277453 H          1 MOL1         0.0736
      11    C5      19.600956   18.773151   23.608312 C.3        1 MOL1        -0.1866
      12    H5      19.178887   19.022704   24.591538 H          1 MOL1         0.0738
      13    H6      18.878643   18.106803   23.116711 H          1 MOL1         0.0738
      14    C6      20.940108   18.031760   23.807622 C.3        1 MOL1        -0.2879
      15    H7      21.674392   18.675358   24.309372 H          1 MOL1         0.0750
      16    H8      20.796856   17.135638   24.425159 H          1 MOL1         0.0750
      17    H9      21.363547   17.713437   22.846066 H          1 MOL1         0.0750
@<TRIPOS>BOND
    1     1     2    1
    2     1     3    2
    3     1     4    1
    4     4     5    1
    5     4     6    2
    6     6     7    1
    7     6     8    1
    8     8     9    1
    9     8    10    1
   10     8    11    1
   11    11    12    1
   12    11    13    1
   13    11    14    1
   14    14    15    1
   15    14    16    1
   16    14    17    1
@<TRIPOS>SUBSTRUCTURE
       1 MOL1            1 RESIDUE      1      MOL     
@<SCITEGIC>MOL_PROPERTY
VConf Rank
SciTegic.value.IntegerValue
411

@<SCITEGIC>MOL_PROPERTY
Conf_Id
SciTegic.value.IntegerValue
3

@<SCITEGIC>MOL_PROPERTY
Delta U+W
SciTegic.value.DoubleValue
0.531

@<SCITEGIC>MOL_PROPERTY
U+W
SciTegic.value.DoubleValue
-52.878

@<SCITEGIC>MOL_PROPERTY
Grad RMS
SciTegic.value.DoubleValue
0.000000

@<SCITEGIC>MOL_PROPERTY
U
SciTegic.value.DoubleValue
10.067

@<SCITEGIC>MOL_PROPERTY
W
SciTegic.value.DoubleValue
-62.945

@<SCITEGIC>MOL_PROPERTY
W(PB)
SciTegic.value.DoubleValue
-64.982

@<SCITEGIC>MOL_PROPERTY
W(SA)
SciTegic.value.DoubleValue
2.037

@<SCITEGIC>MOL_PROPERTY
Valence
SciTegic.value.DoubleValue
2.779

@<SCITEGIC>MOL_PROPERTY
Coulomb
SciTegic.value.DoubleValue
6.474

@<SCITEGIC>MOL_PROPERTY
VdW
SciTegic.value.DoubleValue
0.815

@<SCITEGIC>MOL_PROPERTY
VdW6
SciTegic.value.DoubleValue
-5.088

@<SCITEGIC>MOL_PROPERTY
VdW12
SciTegic.value.DoubleValue
5.902

@<SCITEGIC>MOL_PROPERTY
Bond
SciTegic.value.DoubleValue
0.078

@<SCITEGIC>MOL_PROPERTY
Angle
SciTegic.value.DoubleValue
2.651

@<SCITEGIC>MOL_PROPERTY
Pdih
SciTegic.value.DoubleValue
0.050

@<SCITEGIC>MOL_PROPERTY
Idih
SciTegic.value.DoubleValue
0.000

@<SCITEGIC>MOL_PROPERTY
Tether
SciTegic.value.DoubleValue
0.000

@<TRIPOS>MOLECULE
guest-s19_confgen4.mol2 : confsearch ligand conformer 412
          17          16           1
SMALL
USER_CHARGES
 
@<TRIPOS>ATOM
       1    C1      17.945693   17.424078   20.598406 C.2        1 MOL1         0.6173
       2    O1      16.783371   17.667015   20.338078 O.co2      1 MOL1        -0.6755
       3    O2      18.396950   16.294208   20.612823 O.co2      1 MOL1        -0.6755
       4    C2      18.836286   18.575645   20.906318 C.2        1 MOL1        -0.1504
       5    H1      18.369258   19.557306   20.875770 H          1 MOL1         0.0814
       6    C3      20.147547   18.452804   21.214683 C.2        1 MOL1        -0.1394
       7    H2      20.622540   17.472716   21.251117 H          1 MOL1         0.0817
       8    C4      21.051002   19.626872   21.530386 C.3        1 MOL1        -0.1849
       9    H3      20.600145   20.566047   21.181935 H          1 MOL1         0.0736
      10    H4      21.991430   19.515048   20.974417 H          1 MOL1         0.0736
      11    C5      21.369912   19.732334   23.037814 C.3        1 MOL1        -0.1866
      12    H5      21.818540   18.792276   23.387791 H          1 MOL1         0.0738
      13    H6      22.124580   20.516133   23.190567 H          1 MOL1         0.0738
      14    C6      20.123629   20.061905   23.886927 C.3        1 MOL1        -0.2879
      15    H7      19.370566   19.266863   23.810390 H          1 MOL1         0.0750
      16    H8      20.394551   20.167664   24.945361 H          1 MOL1         0.0750
      17    H9      19.662879   21.002808   23.559049 H          1 MOL1         0.0750
@<TRIPOS>BOND
    1     1     2    1
    2     1     3    2
    3     1     4    1
    4     4     5    1
    5     4     6    2
    6     6     7    1
    7     6     8    1
    8     8     9    1
    9     8    10    1
   10     8    11    1
   11    11    12    1
   12    11    13    1
   13    11    14    1
   14    14    15    1
   15    14    16    1
   16    14    17    1
@<TRIPOS>SUBSTRUCTURE
       1 MOL1            1 RESIDUE      1      MOL     
@<SCITEGIC>MOL_PROPERTY
VConf Rank
SciTegic.value.IntegerValue
412

@<SCITEGIC>MOL_PROPERTY
Conf_Id
SciTegic.value.IntegerValue
45

@<SCITEGIC>MOL_PROPERTY
Delta U+W
SciTegic.value.DoubleValue
0.562

@<SCITEGIC>MOL_PROPERTY
U+W
SciTegic.value.DoubleValue
-52.846

@<SCITEGIC>MOL_PROPERTY
Grad RMS
SciTegic.value.DoubleValue
0.000000

@<SCITEGIC>MOL_PROPERTY
U
SciTegic.value.DoubleValue
10.243

@<SCITEGIC>MOL_PROPERTY
W
SciTegic.value.DoubleValue
-63.089

@<SCITEGIC>MOL_PROPERTY
W(PB)
SciTegic.value.DoubleValue
-65.116

@<SCITEGIC>MOL_PROPERTY
W(SA)
SciTegic.value.DoubleValue
2.026

@<SCITEGIC>MOL_PROPERTY
Valence
SciTegic.value.DoubleValue
2.822

@<SCITEGIC>MOL_PROPERTY
Coulomb
SciTegic.value.DoubleValue
6.637

@<SCITEGIC>MOL_PROPERTY
VdW
SciTegic.value.DoubleValue
0.785

@<SCITEGIC>MOL_PROPERTY
VdW6
SciTegic.value.DoubleValue
-5.216

@<SCITEGIC>MOL_PROPERTY
VdW12
SciTegic.value.DoubleValue
6.001

@<SCITEGIC>MOL_PROPERTY
Bond
SciTegic.value.DoubleValue
0.080

@<SCITEGIC>MOL_PROPERTY
Angle
SciTegic.value.DoubleValue
2.678

@<SCITEGIC>MOL_PROPERTY
Pdih
SciTegic.value.DoubleValue
0.064

@<SCITEGIC>MOL_PROPERTY
Idih
SciTegic.value.DoubleValue
0.000

@<SCITEGIC>MOL_PROPERTY
Tether
SciTegic.value.DoubleValue
0.000

@<TRIPOS>MOLECULE
guest-s19_confgen4.mol2 : confsearch ligand conformer 413
          17          16           1
SMALL
USER_CHARGES
 
@<TRIPOS>ATOM
       1    C1      21.203373   17.190136   24.403053 C.2        1 MOL1         0.6173
       2    O1      20.785250   16.131074   24.828805 O.co2      1 MOL1        -0.6755
       3    O2      22.039408   17.853314   24.987548 O.co2      1 MOL1        -0.6755
       4    C2      20.654628   17.675221   23.107779 C.2        1 MOL1        -0.1504
       5    H1      19.911309   17.035283   22.637816 H          1 MOL1         0.0814
       6    C3      21.027048   18.833938   22.518065 C.2        1 MOL1        -0.1394
       7    H2      21.769195   19.483795   22.981399 H          1 MOL1         0.0817
       8    C4      20.462417   19.321111   21.201596 C.3        1 MOL1        -0.1849
       9    H3      20.319347   18.473454   20.517624 H          1 MOL1         0.0736
      10    H4      21.183675   19.994056   20.718565 H          1 MOL1         0.0736
      11    C5      19.123073   20.059002   21.403309 C.3        1 MOL1        -0.1866
      12    H5      18.398937   19.385692   21.882727 H          1 MOL1         0.0738
      13    H6      19.269156   20.907542   22.086103 H          1 MOL1         0.0738
      14    C6      18.545521   20.567067   20.066960 C.3        1 MOL1        -0.2879
      15    H7      19.236951   21.268059   19.581196 H          1 MOL1         0.0750
      16    H8      18.360913   19.733555   19.376587 H          1 MOL1         0.0750
      17    H9      17.593550   21.088737   20.230487 H          1 MOL1         0.0750
@<TRIPOS>BOND
    1     1     2    1
    2     1     3    2
    3     1     4    1
    4     4     5    1
    5     4     6    2
    6     6     7    1
    7     6     8    1
    8     8     9    1
    9     8    10    1
   10     8    11    1
   11    11    12    1
   12    11    13    1
   13    11    14    1
   14    14    15    1
   15    14    16    1
   16    14    17    1
@<TRIPOS>SUBSTRUCTURE
       1 MOL1            1 RESIDUE      1      MOL     
@<SCITEGIC>MOL_PROPERTY
VConf Rank
SciTegic.value.IntegerValue
413

@<SCITEGIC>MOL_PROPERTY
Conf_Id
SciTegic.value.IntegerValue
36

@<SCITEGIC>MOL_PROPERTY
Delta U+W
SciTegic.value.DoubleValue
0.000

@<SCITEGIC>MOL_PROPERTY
U+W
SciTegic.value.DoubleValue
-53.409

@<SCITEGIC>MOL_PROPERTY
Grad RMS
SciTegic.value.DoubleValue
0.000000

@<SCITEGIC>MOL_PROPERTY
U
SciTegic.value.DoubleValue
9.048

@<SCITEGIC>MOL_PROPERTY
W
SciTegic.value.DoubleValue
-62.457

@<SCITEGIC>MOL_PROPERTY
W(PB)
SciTegic.value.DoubleValue
-64.540

@<SCITEGIC>MOL_PROPERTY
W(SA)
SciTegic.value.DoubleValue
2.084

@<SCITEGIC>MOL_PROPERTY
Valence
SciTegic.value.DoubleValue
2.652

@<SCITEGIC>MOL_PROPERTY
Coulomb
SciTegic.value.DoubleValue
5.578

@<SCITEGIC>MOL_PROPERTY
VdW
SciTegic.value.DoubleValue
0.818

@<SCITEGIC>MOL_PROPERTY
VdW6
SciTegic.value.DoubleValue
-4.534

@<SCITEGIC>MOL_PROPERTY
VdW12
SciTegic.value.DoubleValue
5.352

@<SCITEGIC>MOL_PROPERTY
Bond
SciTegic.value.DoubleValue
0.063

@<SCITEGIC>MOL_PROPERTY
Angle
SciTegic.value.DoubleValue
2.579

@<SCITEGIC>MOL_PROPERTY
Pdih
SciTegic.value.DoubleValue
0.010

@<SCITEGIC>MOL_PROPERTY
Idih
SciTegic.value.DoubleValue
0.000

@<SCITEGIC>MOL_PROPERTY
Tether
SciTegic.value.DoubleValue
0.000

@<TRIPOS>MOLECULE
guest-s19_confgen4.mol2 : confsearch ligand conformer 414
          17          16           1
SMALL
USER_CHARGES
 
@<TRIPOS>ATOM
       1    C1      22.368950   21.489613   21.614090 C.2        1 MOL1         0.6173
       2    O1      21.787509   22.558371   21.622874 O.co2      1 MOL1        -0.6755
       3    O2      23.545406   21.380598   21.328130 O.co2      1 MOL1        -0.6755
       4    C2      21.629148   20.247611   21.966630 C.2        1 MOL1        -0.1504
       5    H1      22.207391   19.326849   21.939405 H          1 MOL1         0.0814
       6    C3      20.319591   20.220210   22.303373 C.2        1 MOL1        -0.1394
       7    H2      19.730282   21.136554   22.331699 H          1 MOL1         0.0817
       8    C4      19.574210   18.952406   22.658787 C.3        1 MOL1        -0.1849
       9    H3      18.714941   19.197690   23.297441 H          1 MOL1         0.0736
      10    H4      20.221803   18.288543   23.247613 H          1 MOL1         0.0736
      11    C5      19.084535   18.215491   21.395381 C.3        1 MOL1        -0.1866
      12    H5      18.435322   18.880730   20.809252 H          1 MOL1         0.0738
      13    H6      19.943523   17.965694   20.757180 H          1 MOL1         0.0738
      14    C6      18.315643   16.926714   21.749478 C.3        1 MOL1        -0.2879
      15    H7      17.432549   17.151632   22.361840 H          1 MOL1         0.0750
      16    H8      17.975477   16.416737   20.838796 H          1 MOL1         0.0750
      17    H9      18.953212   16.230290   22.309775 H          1 MOL1         0.0750
@<TRIPOS>BOND
    1     1     2    1
    2     1     3    2
    3     1     4    1
    4     4     5    1
    5     4     6    2
    6     6     7    1
    7     6     8    1
    8     8     9    1
    9     8    10    1
   10     8    11    1
   11    11    12    1
   12    11    13    1
   13    11    14    1
   14    14    15    1
   15    14    16    1
   16    14    17    1
@<TRIPOS>SUBSTRUCTURE
       1 MOL1            1 RESIDUE      1      MOL     
@<SCITEGIC>MOL_PROPERTY
VConf Rank
SciTegic.value.IntegerValue
414

@<SCITEGIC>MOL_PROPERTY
Conf_Id
SciTegic.value.IntegerValue
1

@<SCITEGIC>MOL_PROPERTY
Delta U+W
SciTegic.value.DoubleValue
0.030

@<SCITEGIC>MOL_PROPERTY
U+W
SciTegic.value.DoubleValue
-53.378

@<SCITEGIC>MOL_PROPERTY
Grad RMS
SciTegic.value.DoubleValue
0.000000

@<SCITEGIC>MOL_PROPERTY
U
SciTegic.value.DoubleValue
9.048

@<SCITEGIC>MOL_PROPERTY
W
SciTegic.value.DoubleValue
-62.426

@<SCITEGIC>MOL_PROPERTY
W(PB)
SciTegic.value.DoubleValue
-64.506

@<SCITEGIC>MOL_PROPERTY
W(SA)
SciTegic.value.DoubleValue
2.080

@<SCITEGIC>MOL_PROPERTY
Valence
SciTegic.value.DoubleValue
2.652

@<SCITEGIC>MOL_PROPERTY
Coulomb
SciTegic.value.DoubleValue
5.578

@<SCITEGIC>MOL_PROPERTY
VdW
SciTegic.value.DoubleValue
0.818

@<SCITEGIC>MOL_PROPERTY
VdW6
SciTegic.value.DoubleValue
-4.535

@<SCITEGIC>MOL_PROPERTY
VdW12
SciTegic.value.DoubleValue
5.352

@<SCITEGIC>MOL_PROPERTY
Bond
SciTegic.value.DoubleValue
0.063

@<SCITEGIC>MOL_PROPERTY
Angle
SciTegic.value.DoubleValue
2.579

@<SCITEGIC>MOL_PROPERTY
Pdih
SciTegic.value.DoubleValue
0.010

@<SCITEGIC>MOL_PROPERTY
Idih
SciTegic.value.DoubleValue
0.000

@<SCITEGIC>MOL_PROPERTY
Tether
SciTegic.value.DoubleValue
0.000

@<TRIPOS>MOLECULE
guest-s19_confgen4.mol2 : confsearch ligand conformer 415
          17          16           1
SMALL
USER_CHARGES
 
@<TRIPOS>ATOM
       1    C1      17.381747   20.663791   22.323073 C.2        1 MOL1         0.6173
       2    O1      17.041609   20.725332   21.156471 O.co2      1 MOL1        -0.6755
       3    O2      16.624526   20.899297   23.244465 O.co2      1 MOL1        -0.6755
       4    C2      18.781373   20.289450   22.662200 C.2        1 MOL1        -0.1504
       5    H1      19.019599   20.253969   23.722742 H          1 MOL1         0.0814
       6    C3      19.728447   20.000348   21.741083 C.2        1 MOL1        -0.1394
       7    H2      19.499702   20.029529   20.675991 H          1 MOL1         0.0817
       8    C4      21.150074   19.616309   22.093937 C.3        1 MOL1        -0.1849
       9    H3      21.505083   20.241355   22.924487 H          1 MOL1         0.0736
      10    H4      21.814937   19.827815   21.245694 H          1 MOL1         0.0736
      11    C5      21.275824   18.128777   22.490164 C.3        1 MOL1        -0.1866
      12    H5      22.300612   17.934440   22.835414 H          1 MOL1         0.0738
      13    H6      20.612555   17.914359   23.339591 H          1 MOL1         0.0738
      14    C6      20.948058   17.175576   21.321110 C.3        1 MOL1        -0.2879
      15    H7      21.608081   17.363568   20.464270 H          1 MOL1         0.0750
      16    H8      21.079816   16.129758   21.627398 H          1 MOL1         0.0750
      17    H9      19.909513   17.300126   20.987743 H          1 MOL1         0.0750
@<TRIPOS>BOND
    1     1     2    1
    2     1     3    2
    3     1     4    1
    4     4     5    1
    5     4     6    2
    6     6     7    1
    7     6     8    1
    8     8     9    1
    9     8    10    1
   10     8    11    1
   11    11    12    1
   12    11    13    1
   13    11    14    1
   14    14    15    1
   15    14    16    1
   16    14    17    1
@<TRIPOS>SUBSTRUCTURE
       1 MOL1            1 RESIDUE      1      MOL     
@<SCITEGIC>MOL_PROPERTY
VConf Rank
SciTegic.value.IntegerValue
415

@<SCITEGIC>MOL_PROPERTY
Conf_Id
SciTegic.value.IntegerValue
3

@<SCITEGIC>MOL_PROPERTY
Delta U+W
SciTegic.value.DoubleValue
0.531

@<SCITEGIC>MOL_PROPERTY
U+W
SciTegic.value.DoubleValue
-52.878

@<SCITEGIC>MOL_PROPERTY
Grad RMS
SciTegic.value.DoubleValue
0.000000

@<SCITEGIC>MOL_PROPERTY
U
SciTegic.value.DoubleValue
10.067

@<SCITEGIC>MOL_PROPERTY
W
SciTegic.value.DoubleValue
-62.945

@<SCITEGIC>MOL_PROPERTY
W(PB)
SciTegic.value.DoubleValue
-64.982

@<SCITEGIC>MOL_PROPERTY
W(SA)
SciTegic.value.DoubleValue
2.037

@<SCITEGIC>MOL_PROPERTY
Valence
SciTegic.value.DoubleValue
2.779

@<SCITEGIC>MOL_PROPERTY
Coulomb
SciTegic.value.DoubleValue
6.474

@<SCITEGIC>MOL_PROPERTY
VdW
SciTegic.value.DoubleValue
0.815

@<SCITEGIC>MOL_PROPERTY
VdW6
SciTegic.value.DoubleValue
-5.088

@<SCITEGIC>MOL_PROPERTY
VdW12
SciTegic.value.DoubleValue
5.902

@<SCITEGIC>MOL_PROPERTY
Bond
SciTegic.value.DoubleValue
0.078

@<SCITEGIC>MOL_PROPERTY
Angle
SciTegic.value.DoubleValue
2.651

@<SCITEGIC>MOL_PROPERTY
Pdih
SciTegic.value.DoubleValue
0.050

@<SCITEGIC>MOL_PROPERTY
Idih
SciTegic.value.DoubleValue
0.000

@<SCITEGIC>MOL_PROPERTY
Tether
SciTegic.value.DoubleValue
0.000

@<TRIPOS>MOLECULE
guest-s19_confgen4.mol2 : confsearch ligand conformer 416
          17          16           1
SMALL
USER_CHARGES
 
@<TRIPOS>ATOM
       1    C1      18.889553   19.171761   24.892694 C.2        1 MOL1         0.6173
       2    O1      19.461055   19.415171   25.937643 O.co2      1 MOL1        -0.6755
       3    O2      17.838429   18.561043   24.841618 O.co2      1 MOL1        -0.6755
       4    C2      19.521195   19.654956   23.635068 C.2        1 MOL1        -0.1504
       5    H1      20.458789   20.193388   23.752179 H          1 MOL1         0.0814
       6    C3      18.998525   19.454083   22.403788 C.2        1 MOL1        -0.1394
       7    H2      18.061437   18.912462   22.277184 H          1 MOL1         0.0817
       8    C4      19.645353   19.944847   21.125077 C.3        1 MOL1        -0.1849
       9    H3      20.391751   20.720897   21.342740 H          1 MOL1         0.0736
      10    H4      18.881457   20.423430   20.497835 H          1 MOL1         0.0736
      11    C5      20.305029   18.800245   20.325153 C.3        1 MOL1        -0.1866
      12    H5      19.559668   18.022241   20.109272 H          1 MOL1         0.0738
      13    H6      20.642543   19.189361   19.354652 H          1 MOL1         0.0738
      14    C6      21.508987   18.176910   21.063238 C.3        1 MOL1        -0.2879
      15    H7      21.198598   17.719184   22.011498 H          1 MOL1         0.0750
      16    H8      21.975640   17.395555   20.449571 H          1 MOL1         0.0750
      17    H9      22.270870   18.936185   21.282619 H          1 MOL1         0.0750
@<TRIPOS>BOND
    1     1     2    1
    2     1     3    2
    3     1     4    1
    4     4     5    1
    5     4     6    2
    6     6     7    1
    7     6     8    1
    8     8     9    1
    9     8    10    1
   10     8    11    1
   11    11    12    1
   12    11    13    1
   13    11    14    1
   14    14    15    1
   15    14    16    1
   16    14    17    1
@<TRIPOS>SUBSTRUCTURE
       1 MOL1            1 RESIDUE      1      MOL     
@<SCITEGIC>MOL_PROPERTY
VConf Rank
SciTegic.value.IntegerValue
416

@<SCITEGIC>MOL_PROPERTY
Conf_Id
SciTegic.value.IntegerValue
45

@<SCITEGIC>MOL_PROPERTY
Delta U+W
SciTegic.value.DoubleValue
0.562

@<SCITEGIC>MOL_PROPERTY
U+W
SciTegic.value.DoubleValue
-52.846

@<SCITEGIC>MOL_PROPERTY
Grad RMS
SciTegic.value.DoubleValue
0.000000

@<SCITEGIC>MOL_PROPERTY
U
SciTegic.value.DoubleValue
10.243

@<SCITEGIC>MOL_PROPERTY
W
SciTegic.value.DoubleValue
-63.089

@<SCITEGIC>MOL_PROPERTY
W(PB)
SciTegic.value.DoubleValue
-65.116

@<SCITEGIC>MOL_PROPERTY
W(SA)
SciTegic.value.DoubleValue
2.026

@<SCITEGIC>MOL_PROPERTY
Valence
SciTegic.value.DoubleValue
2.822

@<SCITEGIC>MOL_PROPERTY
Coulomb
SciTegic.value.DoubleValue
6.637

@<SCITEGIC>MOL_PROPERTY
VdW
SciTegic.value.DoubleValue
0.785

@<SCITEGIC>MOL_PROPERTY
VdW6
SciTegic.value.DoubleValue
-5.216

@<SCITEGIC>MOL_PROPERTY
VdW12
SciTegic.value.DoubleValue
6.001

@<SCITEGIC>MOL_PROPERTY
Bond
SciTegic.value.DoubleValue
0.080

@<SCITEGIC>MOL_PROPERTY
Angle
SciTegic.value.DoubleValue
2.678

@<SCITEGIC>MOL_PROPERTY
Pdih
SciTegic.value.DoubleValue
0.064

@<SCITEGIC>MOL_PROPERTY
Idih
SciTegic.value.DoubleValue
0.000

@<SCITEGIC>MOL_PROPERTY
Tether
SciTegic.value.DoubleValue
0.000

@<TRIPOS>MOLECULE
guest-s19_confgen4.mol2 : confsearch ligand conformer 417
          17          16           1
SMALL
USER_CHARGES
 
@<TRIPOS>ATOM
       1    C1      19.146775   16.083277   23.119259 C.2        1 MOL1         0.6173
       2    O1      18.054063   15.553125   23.170486 O.co2      1 MOL1        -0.6755
       3    O2      20.114208   15.662626   23.725493 O.co2      1 MOL1        -0.6755
       4    C2      19.282628   17.297675   22.270175 C.2        1 MOL1        -0.1504
       5    H1      18.380366   17.620440   21.755728 H          1 MOL1         0.0814
       6    C3      20.435914   17.988266   22.121516 C.2        1 MOL1        -0.1394
       7    H2      21.345209   17.675048   22.634206 H          1 MOL1         0.0817
       8    C4      20.565057   19.223733   21.257698 C.3        1 MOL1        -0.1849
       9    H3      19.969561   19.105775   20.342122 H          1 MOL1         0.0736
      10    H4      21.609289   19.341636   20.938221 H          1 MOL1         0.0736
      11    C5      20.110955   20.488579   22.014646 C.3        1 MOL1        -0.1866
      12    H5      19.064957   20.373951   22.331363 H          1 MOL1         0.0738
      13    H6      20.709350   20.605519   22.928876 H          1 MOL1         0.0738
      14    C6      20.248408   21.753775   21.144065 C.3        1 MOL1        -0.2879
      15    H7      21.291650   21.909864   20.839575 H          1 MOL1         0.0750
      16    H8      19.634515   21.675215   20.237202 H          1 MOL1         0.0750
      17    H9      19.920845   22.642535   21.698988 H          1 MOL1         0.0750
@<TRIPOS>BOND
    1     1     2    1
    2     1     3    2
    3     1     4    1
    4     4     5    1
    5     4     6    2
    6     6     7    1
    7     6     8    1
    8     8     9    1
    9     8    10    1
   10     8    11    1
   11    11    12    1
   12    11    13    1
   13    11    14    1
   14    14    15    1
   15    14    16    1
   16    14    17    1
@<TRIPOS>SUBSTRUCTURE
       1 MOL1            1 RESIDUE      1      MOL     
@<SCITEGIC>MOL_PROPERTY
VConf Rank
SciTegic.value.IntegerValue
417

@<SCITEGIC>MOL_PROPERTY
Conf_Id
SciTegic.value.IntegerValue
36

@<SCITEGIC>MOL_PROPERTY
Delta U+W
SciTegic.value.DoubleValue
0.000

@<SCITEGIC>MOL_PROPERTY
U+W
SciTegic.value.DoubleValue
-53.409

@<SCITEGIC>MOL_PROPERTY
Grad RMS
SciTegic.value.DoubleValue
0.000000

@<SCITEGIC>MOL_PROPERTY
U
SciTegic.value.DoubleValue
9.048

@<SCITEGIC>MOL_PROPERTY
W
SciTegic.value.DoubleValue
-62.457

@<SCITEGIC>MOL_PROPERTY
W(PB)
SciTegic.value.DoubleValue
-64.540

@<SCITEGIC>MOL_PROPERTY
W(SA)
SciTegic.value.DoubleValue
2.084

@<SCITEGIC>MOL_PROPERTY
Valence
SciTegic.value.DoubleValue
2.652

@<SCITEGIC>MOL_PROPERTY
Coulomb
SciTegic.value.DoubleValue
5.578

@<SCITEGIC>MOL_PROPERTY
VdW
SciTegic.value.DoubleValue
0.818

@<SCITEGIC>MOL_PROPERTY
VdW6
SciTegic.value.DoubleValue
-4.534

@<SCITEGIC>MOL_PROPERTY
VdW12
SciTegic.value.DoubleValue
5.352

@<SCITEGIC>MOL_PROPERTY
Bond
SciTegic.value.DoubleValue
0.063

@<SCITEGIC>MOL_PROPERTY
Angle
SciTegic.value.DoubleValue
2.579

@<SCITEGIC>MOL_PROPERTY
Pdih
SciTegic.value.DoubleValue
0.010

@<SCITEGIC>MOL_PROPERTY
Idih
SciTegic.value.DoubleValue
0.000

@<SCITEGIC>MOL_PROPERTY
Tether
SciTegic.value.DoubleValue
0.000

@<TRIPOS>MOLECULE
guest-s19_confgen4.mol2 : confsearch ligand conformer 418
          17          16           1
SMALL
USER_CHARGES
 
@<TRIPOS>ATOM
       1    C1      20.722643   15.804081   22.151655 C.2        1 MOL1         0.6173
       2    O1      19.666745   15.228416   22.336272 O.co2      1 MOL1        -0.6755
       3    O2      21.801748   15.255774   22.263892 O.co2      1 MOL1        -0.6755
       4    C2      20.718609   17.242174   21.769509 C.2        1 MOL1        -0.1504
       5    H1      21.695510   17.696110   21.619457 H          1 MOL1         0.0814
       6    C3      19.594181   17.976626   21.610366 C.2        1 MOL1        -0.1394
       7    H2      18.610327   17.532427   21.760340 H          1 MOL1         0.0817
       8    C4      19.598912   19.439307   21.223353 C.3        1 MOL1        -0.1849
       9    H3      18.648148   19.693863   20.735871 H          1 MOL1         0.0736
      10    H4      20.389573   19.629832   20.484866 H          1 MOL1         0.0736
      11    C5      19.806773   20.345540   22.454025 C.3        1 MOL1        -0.1866
      12    H5      19.013573   20.154706   23.190219 H          1 MOL1         0.0738
      13    H6      20.759652   20.094907   22.940610 H          1 MOL1         0.0738
      14    C6      19.803581   21.838665   22.069197 C.3        1 MOL1        -0.2879
      15    H7      18.848586   22.123756   21.608612 H          1 MOL1         0.0750
      16    H8      19.952589   22.467146   22.956856 H          1 MOL1         0.0750
      17    H9      20.608343   22.062406   21.356644 H          1 MOL1         0.0750
@<TRIPOS>BOND
    1     1     2    1
    2     1     3    2
    3     1     4    1
    4     4     5    1
    5     4     6    2
    6     6     7    1
    7     6     8    1
    8     8     9    1
    9     8    10    1
   10     8    11    1
   11    11    12    1
   12    11    13    1
   13    11    14    1
   14    14    15    1
   15    14    16    1
   16    14    17    1
@<TRIPOS>SUBSTRUCTURE
       1 MOL1            1 RESIDUE      1      MOL     
@<SCITEGIC>MOL_PROPERTY
VConf Rank
SciTegic.value.IntegerValue
418

@<SCITEGIC>MOL_PROPERTY
Conf_Id
SciTegic.value.IntegerValue
1

@<SCITEGIC>MOL_PROPERTY
Delta U+W
SciTegic.value.DoubleValue
0.030

@<SCITEGIC>MOL_PROPERTY
U+W
SciTegic.value.DoubleValue
-53.378

@<SCITEGIC>MOL_PROPERTY
Grad RMS
SciTegic.value.DoubleValue
0.000000

@<SCITEGIC>MOL_PROPERTY
U
SciTegic.value.DoubleValue
9.048

@<SCITEGIC>MOL_PROPERTY
W
SciTegic.value.DoubleValue
-62.426

@<SCITEGIC>MOL_PROPERTY
W(PB)
SciTegic.value.DoubleValue
-64.506

@<SCITEGIC>MOL_PROPERTY
W(SA)
SciTegic.value.DoubleValue
2.080

@<SCITEGIC>MOL_PROPERTY
Valence
SciTegic.value.DoubleValue
2.652

@<SCITEGIC>MOL_PROPERTY
Coulomb
SciTegic.value.DoubleValue
5.578

@<SCITEGIC>MOL_PROPERTY
VdW
SciTegic.value.DoubleValue
0.818

@<SCITEGIC>MOL_PROPERTY
VdW6
SciTegic.value.DoubleValue
-4.535

@<SCITEGIC>MOL_PROPERTY
VdW12
SciTegic.value.DoubleValue
5.352

@<SCITEGIC>MOL_PROPERTY
Bond
SciTegic.value.DoubleValue
0.063

@<SCITEGIC>MOL_PROPERTY
Angle
SciTegic.value.DoubleValue
2.579

@<SCITEGIC>MOL_PROPERTY
Pdih
SciTegic.value.DoubleValue
0.010

@<SCITEGIC>MOL_PROPERTY
Idih
SciTegic.value.DoubleValue
0.000

@<SCITEGIC>MOL_PROPERTY
Tether
SciTegic.value.DoubleValue
0.000

@<TRIPOS>MOLECULE
guest-s19_confgen4.mol2 : confsearch ligand conformer 419
          17          16           1
SMALL
USER_CHARGES
 
@<TRIPOS>ATOM
       1    C1      21.170711   21.945832   22.062757 C.2        1 MOL1         0.6173
       2    O1      22.023083   21.841546   21.200767 O.co2      1 MOL1        -0.6755
       3    O2      20.775353   23.019595   22.473288 O.co2      1 MOL1        -0.6755
       4    C2      20.573418   20.720054   22.658408 C.2        1 MOL1        -0.1504
       5    H1      19.818358   20.883665   23.423834 H          1 MOL1         0.0814
       6    C3      20.916419   19.462662   22.297436 C.2        1 MOL1        -0.1394
       7    H2      21.669262   19.287310   21.529271 H          1 MOL1         0.0817
       8    C4      20.301281   18.219716   22.905469 C.3        1 MOL1        -0.1849
       9    H3      20.180041   18.360602   23.988049 H          1 MOL1         0.0736
      10    H4      20.983179   17.367607   22.782106 H          1 MOL1         0.0736
      11    C5      18.929816   17.877902   22.282728 C.3        1 MOL1        -0.1866
      12    H5      18.486104   17.035719   22.831364 H          1 MOL1         0.0738
      13    H6      18.244869   18.728282   22.405724 H          1 MOL1         0.0738
      14    C6      19.034888   17.506968   20.788044 C.3        1 MOL1        -0.2879
      15    H7      19.705552   16.650168   20.642274 H          1 MOL1         0.0750
      16    H8      18.049146   17.237867   20.387038 H          1 MOL1         0.0750
      17    H9      19.420076   18.348303   20.197277 H          1 MOL1         0.0750
@<TRIPOS>BOND
    1     1     2    1
    2     1     3    2
    3     1     4    1
    4     4     5    1
    5     4     6    2
    6     6     7    1
    7     6     8    1
    8     8     9    1
    9     8    10    1
   10     8    11    1
   11    11    12    1
   12    11    13    1
   13    11    14    1
   14    14    15    1
   15    14    16    1
   16    14    17    1
@<TRIPOS>SUBSTRUCTURE
       1 MOL1            1 RESIDUE      1      MOL     
@<SCITEGIC>MOL_PROPERTY
VConf Rank
SciTegic.value.IntegerValue
419

@<SCITEGIC>MOL_PROPERTY
Conf_Id
SciTegic.value.IntegerValue
3

@<SCITEGIC>MOL_PROPERTY
Delta U+W
SciTegic.value.DoubleValue
0.531

@<SCITEGIC>MOL_PROPERTY
U+W
SciTegic.value.DoubleValue
-52.878

@<SCITEGIC>MOL_PROPERTY
Grad RMS
SciTegic.value.DoubleValue
0.000000

@<SCITEGIC>MOL_PROPERTY
U
SciTegic.value.DoubleValue
10.067

@<SCITEGIC>MOL_PROPERTY
W
SciTegic.value.DoubleValue
-62.945

@<SCITEGIC>MOL_PROPERTY
W(PB)
SciTegic.value.DoubleValue
-64.982

@<SCITEGIC>MOL_PROPERTY
W(SA)
SciTegic.value.DoubleValue
2.037

@<SCITEGIC>MOL_PROPERTY
Valence
SciTegic.value.DoubleValue
2.779

@<SCITEGIC>MOL_PROPERTY
Coulomb
SciTegic.value.DoubleValue
6.474

@<SCITEGIC>MOL_PROPERTY
VdW
SciTegic.value.DoubleValue
0.815

@<SCITEGIC>MOL_PROPERTY
VdW6
SciTegic.value.DoubleValue
-5.088

@<SCITEGIC>MOL_PROPERTY
VdW12
SciTegic.value.DoubleValue
5.902

@<SCITEGIC>MOL_PROPERTY
Bond
SciTegic.value.DoubleValue
0.078

@<SCITEGIC>MOL_PROPERTY
Angle
SciTegic.value.DoubleValue
2.651

@<SCITEGIC>MOL_PROPERTY
Pdih
SciTegic.value.DoubleValue
0.050

@<SCITEGIC>MOL_PROPERTY
Idih
SciTegic.value.DoubleValue
0.000

@<SCITEGIC>MOL_PROPERTY
Tether
SciTegic.value.DoubleValue
0.000

@<TRIPOS>MOLECULE
guest-s19_confgen4.mol2 : confsearch ligand conformer 420
          17          16           1
SMALL
USER_CHARGES
 
@<TRIPOS>ATOM
       1    C1      18.208760   21.272822   23.202782 C.2        1 MOL1         0.6173
       2    O1      17.361848   21.209209   24.072537 O.co2      1 MOL1        -0.6755
       3    O2      18.243005   22.167237   22.378587 O.co2      1 MOL1        -0.6755
       4    C2      19.239462   20.200224   23.167286 C.2        1 MOL1        -0.1504
       5    H1      19.150602   19.432141   23.932047 H          1 MOL1         0.0814
       6    C3      20.237173   20.143736   22.255713 C.2        1 MOL1        -0.1394
       7    H2      20.331359   20.907181   21.483833 H          1 MOL1         0.0817
       8    C4      21.283389   19.048964   22.220466 C.3        1 MOL1        -0.1849
       9    H3      21.311296   18.510174   23.177371 H          1 MOL1         0.0736
      10    H4      22.274984   19.504696   22.097757 H          1 MOL1         0.0736
      11    C5      21.046083   18.048297   21.068287 C.3        1 MOL1        -0.1866
      12    H5      21.015389   18.586783   20.110921 H          1 MOL1         0.0738
      13    H6      21.898458   17.357259   21.012418 H          1 MOL1         0.0738
      14    C6      19.748141   17.232317   21.248165 C.3        1 MOL1        -0.2879
      15    H7      18.865827   17.885431   21.244007 H          1 MOL1         0.0750
      16    H8      19.632687   16.505999   20.433304 H          1 MOL1         0.0750
      17    H9      19.760418   16.679250   22.196352 H          1 MOL1         0.0750
@<TRIPOS>BOND
    1     1     2    1
    2     1     3    2
    3     1     4    1
    4     4     5    1
    5     4     6    2
    6     6     7    1
    7     6     8    1
    8     8     9    1
    9     8    10    1
   10     8    11    1
   11    11    12    1
   12    11    13    1
   13    11    14    1
   14    14    15    1
   15    14    16    1
   16    14    17    1
@<TRIPOS>SUBSTRUCTURE
       1 MOL1            1 RESIDUE      1      MOL     
@<SCITEGIC>MOL_PROPERTY
VConf Rank
SciTegic.value.IntegerValue
420

@<SCITEGIC>MOL_PROPERTY
Conf_Id
SciTegic.value.IntegerValue
45

@<SCITEGIC>MOL_PROPERTY
Delta U+W
SciTegic.value.DoubleValue
0.562

@<SCITEGIC>MOL_PROPERTY
U+W
SciTegic.value.DoubleValue
-52.846

@<SCITEGIC>MOL_PROPERTY
Grad RMS
SciTegic.value.DoubleValue
0.000000

@<SCITEGIC>MOL_PROPERTY
U
SciTegic.value.DoubleValue
10.243

@<SCITEGIC>MOL_PROPERTY
W
SciTegic.value.DoubleValue
-63.089

@<SCITEGIC>MOL_PROPERTY
W(PB)
SciTegic.value.DoubleValue
-65.116

@<SCITEGIC>MOL_PROPERTY
W(SA)
SciTegic.value.DoubleValue
2.026

@<SCITEGIC>MOL_PROPERTY
Valence
SciTegic.value.DoubleValue
2.822

@<SCITEGIC>MOL_PROPERTY
Coulomb
SciTegic.value.DoubleValue
6.637

@<SCITEGIC>MOL_PROPERTY
VdW
SciTegic.value.DoubleValue
0.785

@<SCITEGIC>MOL_PROPERTY
VdW6
SciTegic.value.DoubleValue
-5.216

@<SCITEGIC>MOL_PROPERTY
VdW12
SciTegic.value.DoubleValue
6.001

@<SCITEGIC>MOL_PROPERTY
Bond
SciTegic.value.DoubleValue
0.080

@<SCITEGIC>MOL_PROPERTY
Angle
SciTegic.value.DoubleValue
2.678

@<SCITEGIC>MOL_PROPERTY
Pdih
SciTegic.value.DoubleValue
0.064

@<SCITEGIC>MOL_PROPERTY
Idih
SciTegic.value.DoubleValue
0.000

@<SCITEGIC>MOL_PROPERTY
Tether
SciTegic.value.DoubleValue
0.000

@<TRIPOS>MOLECULE
guest-s19_confgen4.mol2 : confsearch ligand conformer 421
          17          16           1
SMALL
USER_CHARGES
 
@<TRIPOS>ATOM
       1    C1      20.005666   21.299995   24.485558 C.2        1 MOL1         0.6173
       2    O1      19.346018   21.289680   25.506568 O.co2      1 MOL1        -0.6755
       3    O2      20.646211   22.268702   24.122648 O.co2      1 MOL1        -0.6755
       4    C2      20.015637   20.061429   23.660927 C.2        1 MOL1        -0.1504
       5    H1      19.422645   19.232990   24.041661 H          1 MOL1         0.0814
       6    C3      20.702892   19.932166   22.503319 C.2        1 MOL1        -0.1394
       7    H2      21.298292   20.756649   22.111529 H          1 MOL1         0.0817
       8    C4      20.705964   18.669646   21.669490 C.3        1 MOL1        -0.1849
       9    H3      20.722459   17.787413   22.323861 H          1 MOL1         0.0736
      10    H4      21.623446   18.628996   21.067027 H          1 MOL1         0.0736
      11    C5      19.475765   18.606313   20.741259 C.3        1 MOL1        -0.1866
      12    H5      18.556868   18.642645   21.342814 H          1 MOL1         0.0738
      13    H6      19.462585   19.488662   20.086389 H          1 MOL1         0.0738
      14    C6      19.476340   17.326689   19.880975 C.3        1 MOL1        -0.2879
      15    H7      20.370324   17.280929   19.245262 H          1 MOL1         0.0750
      16    H8      19.458226   16.428753   20.512496 H          1 MOL1         0.0750
      17    H9      18.594414   17.299377   19.227836 H          1 MOL1         0.0750
@<TRIPOS>BOND
    1     1     2    1
    2     1     3    2
    3     1     4    1
    4     4     5    1
    5     4     6    2
    6     6     7    1
    7     6     8    1
    8     8     9    1
    9     8    10    1
   10     8    11    1
   11    11    12    1
   12    11    13    1
   13    11    14    1
   14    14    15    1
   15    14    16    1
   16    14    17    1
@<TRIPOS>SUBSTRUCTURE
       1 MOL1            1 RESIDUE      1      MOL     
@<SCITEGIC>MOL_PROPERTY
VConf Rank
SciTegic.value.IntegerValue
421

@<SCITEGIC>MOL_PROPERTY
Conf_Id
SciTegic.value.IntegerValue
36

@<SCITEGIC>MOL_PROPERTY
Delta U+W
SciTegic.value.DoubleValue
0.000

@<SCITEGIC>MOL_PROPERTY
U+W
SciTegic.value.DoubleValue
-53.409

@<SCITEGIC>MOL_PROPERTY
Grad RMS
SciTegic.value.DoubleValue
0.000000

@<SCITEGIC>MOL_PROPERTY
U
SciTegic.value.DoubleValue
9.048

@<SCITEGIC>MOL_PROPERTY
W
SciTegic.value.DoubleValue
-62.457

@<SCITEGIC>MOL_PROPERTY
W(PB)
SciTegic.value.DoubleValue
-64.540

@<SCITEGIC>MOL_PROPERTY
W(SA)
SciTegic.value.DoubleValue
2.084

@<SCITEGIC>MOL_PROPERTY
Valence
SciTegic.value.DoubleValue
2.652

@<SCITEGIC>MOL_PROPERTY
Coulomb
SciTegic.value.DoubleValue
5.578

@<SCITEGIC>MOL_PROPERTY
VdW
SciTegic.value.DoubleValue
0.818

@<SCITEGIC>MOL_PROPERTY
VdW6
SciTegic.value.DoubleValue
-4.534

@<SCITEGIC>MOL_PROPERTY
VdW12
SciTegic.value.DoubleValue
5.352

@<SCITEGIC>MOL_PROPERTY
Bond
SciTegic.value.DoubleValue
0.063

@<SCITEGIC>MOL_PROPERTY
Angle
SciTegic.value.DoubleValue
2.579

@<SCITEGIC>MOL_PROPERTY
Pdih
SciTegic.value.DoubleValue
0.010

@<SCITEGIC>MOL_PROPERTY
Idih
SciTegic.value.DoubleValue
0.000

@<SCITEGIC>MOL_PROPERTY
Tether
SciTegic.value.DoubleValue
0.000

@<TRIPOS>MOLECULE
guest-s19_confgen4.mol2 : confsearch ligand conformer 422
          17          16           1
SMALL
USER_CHARGES
 
@<TRIPOS>ATOM
       1    C1      19.074519   16.931336   24.326254 C.2        1 MOL1         0.6173
       2    O1      18.156120   16.274498   23.872934 O.co2      1 MOL1        -0.6755
       3    O2      19.388066   16.905182   25.500439 O.co2      1 MOL1        -0.6755
       4    C2      19.864217   17.811707   23.423210 C.2        1 MOL1        -0.1504
       5    H1      20.670705   18.371098   23.891790 H          1 MOL1         0.0814
       6    C3      19.626445   17.939611   22.097996 C.2        1 MOL1        -0.1394
       7    H2      18.819606   17.385497   21.618683 H          1 MOL1         0.0817
       8    C4      20.433204   18.838676   21.186919 C.3        1 MOL1        -0.1849
       9    H3      20.373216   18.466176   20.155399 H          1 MOL1         0.0736
      10    H4      21.494146   18.805486   21.469952 H          1 MOL1         0.0736
      11    C5      19.925488   20.294142   21.240401 C.3        1 MOL1        -0.1866
      12    H5      18.864795   20.325018   20.954842 H          1 MOL1         0.0738
      13    H6      19.988681   20.669773   22.271161 H          1 MOL1         0.0738
      14    C6      20.736856   21.215295   20.307296 C.3        1 MOL1        -0.2879
      15    H7      20.664712   20.880128   19.264277 H          1 MOL1         0.0750
      16    H8      20.361382   22.245583   20.358820 H          1 MOL1         0.0750
      17    H9      21.797333   21.226528   20.591370 H          1 MOL1         0.0750
@<TRIPOS>BOND
    1     1     2    1
    2     1     3    2
    3     1     4    1
    4     4     5    1
    5     4     6    2
    6     6     7    1
    7     6     8    1
    8     8     9    1
    9     8    10    1
   10     8    11    1
   11    11    12    1
   12    11    13    1
   13    11    14    1
   14    14    15    1
   15    14    16    1
   16    14    17    1
@<TRIPOS>SUBSTRUCTURE
       1 MOL1            1 RESIDUE      1      MOL     
@<SCITEGIC>MOL_PROPERTY
VConf Rank
SciTegic.value.IntegerValue
422

@<SCITEGIC>MOL_PROPERTY
Conf_Id
SciTegic.value.IntegerValue
1

@<SCITEGIC>MOL_PROPERTY
Delta U+W
SciTegic.value.DoubleValue
0.030

@<SCITEGIC>MOL_PROPERTY
U+W
SciTegic.value.DoubleValue
-53.378

@<SCITEGIC>MOL_PROPERTY
Grad RMS
SciTegic.value.DoubleValue
0.000000

@<SCITEGIC>MOL_PROPERTY
U
SciTegic.value.DoubleValue
9.048

@<SCITEGIC>MOL_PROPERTY
W
SciTegic.value.DoubleValue
-62.426

@<SCITEGIC>MOL_PROPERTY
W(PB)
SciTegic.value.DoubleValue
-64.506

@<SCITEGIC>MOL_PROPERTY
W(SA)
SciTegic.value.DoubleValue
2.080

@<SCITEGIC>MOL_PROPERTY
Valence
SciTegic.value.DoubleValue
2.652

@<SCITEGIC>MOL_PROPERTY
Coulomb
SciTegic.value.DoubleValue
5.578

@<SCITEGIC>MOL_PROPERTY
VdW
SciTegic.value.DoubleValue
0.818

@<SCITEGIC>MOL_PROPERTY
VdW6
SciTegic.value.DoubleValue
-4.535

@<SCITEGIC>MOL_PROPERTY
VdW12
SciTegic.value.DoubleValue
5.352

@<SCITEGIC>MOL_PROPERTY
Bond
SciTegic.value.DoubleValue
0.063

@<SCITEGIC>MOL_PROPERTY
Angle
SciTegic.value.DoubleValue
2.579

@<SCITEGIC>MOL_PROPERTY
Pdih
SciTegic.value.DoubleValue
0.010

@<SCITEGIC>MOL_PROPERTY
Idih
SciTegic.value.DoubleValue
0.000

@<SCITEGIC>MOL_PROPERTY
Tether
SciTegic.value.DoubleValue
0.000

@<TRIPOS>MOLECULE
guest-s19_confgen4.mol2 : confsearch ligand conformer 423
          17          16           1
SMALL
USER_CHARGES
 
@<TRIPOS>ATOM
       1    C1      23.059302   19.579489   22.064657 C.2        1 MOL1         0.6173
       2    O1      23.422811   18.725608   21.277771 O.co2      1 MOL1        -0.6755
       3    O2      23.768348   20.505439   22.407704 O.co2      1 MOL1        -0.6755
       4    C2      21.692783   19.507072   22.649015 C.2        1 MOL1        -0.1504
       5    H1      21.431726   20.300372   23.345638 H          1 MOL1         0.0814
       6    C3      20.798774   18.535248   22.356968 C.2        1 MOL1        -0.1394
       7    H2      21.048674   17.737547   21.657811 H          1 MOL1         0.0817
       8    C4      19.408161   18.470241   22.952773 C.3        1 MOL1        -0.1849
       9    H3      19.450554   18.738595   24.017064 H          1 MOL1         0.0736
      10    H4      19.032778   17.438881   22.911815 H          1 MOL1         0.0736
      11    C5      18.415924   19.409840   22.232925 C.3        1 MOL1        -0.1866
      12    H5      17.457815   19.400388   22.770598 H          1 MOL1         0.0738
      13    H6      18.788257   20.442876   22.273327 H          1 MOL1         0.0738
      14    C6      18.174167   19.001445   20.764089 C.3        1 MOL1        -0.2879
      15    H7      17.789287   17.975330   20.700055 H          1 MOL1         0.0750
      16    H8      17.440275   19.668674   20.293859 H          1 MOL1         0.0750
      17    H9      19.101920   19.056752   20.179763 H          1 MOL1         0.0750
@<TRIPOS>BOND
    1     1     2    1
    2     1     3    2
    3     1     4    1
    4     4     5    1
    5     4     6    2
    6     6     7    1
    7     6     8    1
    8     8     9    1
    9     8    10    1
   10     8    11    1
   11    11    12    1
   12    11    13    1
   13    11    14    1
   14    14    15    1
   15    14    16    1
   16    14    17    1
@<TRIPOS>SUBSTRUCTURE
       1 MOL1            1 RESIDUE      1      MOL     
@<SCITEGIC>MOL_PROPERTY
VConf Rank
SciTegic.value.IntegerValue
423

@<SCITEGIC>MOL_PROPERTY
Conf_Id
SciTegic.value.IntegerValue
3

@<SCITEGIC>MOL_PROPERTY
Delta U+W
SciTegic.value.DoubleValue
0.531

@<SCITEGIC>MOL_PROPERTY
U+W
SciTegic.value.DoubleValue
-52.878

@<SCITEGIC>MOL_PROPERTY
Grad RMS
SciTegic.value.DoubleValue
0.000000

@<SCITEGIC>MOL_PROPERTY
U
SciTegic.value.DoubleValue
10.067

@<SCITEGIC>MOL_PROPERTY
W
SciTegic.value.DoubleValue
-62.945

@<SCITEGIC>MOL_PROPERTY
W(PB)
SciTegic.value.DoubleValue
-64.982

@<SCITEGIC>MOL_PROPERTY
W(SA)
SciTegic.value.DoubleValue
2.037

@<SCITEGIC>MOL_PROPERTY
Valence
SciTegic.value.DoubleValue
2.779

@<SCITEGIC>MOL_PROPERTY
Coulomb
SciTegic.value.DoubleValue
6.474

@<SCITEGIC>MOL_PROPERTY
VdW
SciTegic.value.DoubleValue
0.815

@<SCITEGIC>MOL_PROPERTY
VdW6
SciTegic.value.DoubleValue
-5.088

@<SCITEGIC>MOL_PROPERTY
VdW12
SciTegic.value.DoubleValue
5.902

@<SCITEGIC>MOL_PROPERTY
Bond
SciTegic.value.DoubleValue
0.078

@<SCITEGIC>MOL_PROPERTY
Angle
SciTegic.value.DoubleValue
2.651

@<SCITEGIC>MOL_PROPERTY
Pdih
SciTegic.value.DoubleValue
0.050

@<SCITEGIC>MOL_PROPERTY
Idih
SciTegic.value.DoubleValue
0.000

@<SCITEGIC>MOL_PROPERTY
Tether
SciTegic.value.DoubleValue
0.000

@<TRIPOS>MOLECULE
guest-s19_confgen4.mol2 : confsearch ligand conformer 424
          17          16           1
SMALL
USER_CHARGES
 
@<TRIPOS>ATOM
       1    C1      21.744562   19.874748   19.754303 C.2        1 MOL1         0.6173
       2    O1      22.251651   20.947831   19.491370 O.co2      1 MOL1        -0.6755
       3    O2      21.574009   19.003419   18.922350 O.co2      1 MOL1        -0.6755
       4    C2      21.325437   19.639193   21.162464 C.2        1 MOL1        -0.1504
       5    H1      21.506644   20.458571   21.854194 H          1 MOL1         0.0814
       6    C3      20.747548   18.495434   21.595414 C.2        1 MOL1        -0.1394
       7    H2      20.559041   17.670929   20.908265 H          1 MOL1         0.0817
       8    C4      20.319433   18.259654   23.029102 C.3        1 MOL1        -0.1849
       9    H3      20.805511   18.980092   23.700994 H          1 MOL1         0.0736
      10    H4      20.662888   17.266147   23.346893 H          1 MOL1         0.0736
      11    C5      18.787029   18.339370   23.203889 C.3        1 MOL1        -0.1866
      12    H5      18.299869   17.620847   22.530199 H          1 MOL1         0.0738
      13    H6      18.526731   18.036110   24.227352 H          1 MOL1         0.0738
      14    C6      18.232348   19.756044   22.942745 C.3        1 MOL1        -0.2879
      15    H7      18.417221   20.069154   21.906967 H          1 MOL1         0.0750
      16    H8      17.148497   19.783919   23.114082 H          1 MOL1         0.0750
      17    H9      18.700458   20.490258   23.611248 H          1 MOL1         0.0750
@<TRIPOS>BOND
    1     1     2    1
    2     1     3    2
    3     1     4    1
    4     4     5    1
    5     4     6    2
    6     6     7    1
    7     6     8    1
    8     8     9    1
    9     8    10    1
   10     8    11    1
   11    11    12    1
   12    11    13    1
   13    11    14    1
   14    14    15    1
   15    14    16    1
   16    14    17    1
@<TRIPOS>SUBSTRUCTURE
       1 MOL1            1 RESIDUE      1      MOL     
@<SCITEGIC>MOL_PROPERTY
VConf Rank
SciTegic.value.IntegerValue
424

@<SCITEGIC>MOL_PROPERTY
Conf_Id
SciTegic.value.IntegerValue
45

@<SCITEGIC>MOL_PROPERTY
Delta U+W
SciTegic.value.DoubleValue
0.562

@<SCITEGIC>MOL_PROPERTY
U+W
SciTegic.value.DoubleValue
-52.846

@<SCITEGIC>MOL_PROPERTY
Grad RMS
SciTegic.value.DoubleValue
0.000000

@<SCITEGIC>MOL_PROPERTY
U
SciTegic.value.DoubleValue
10.243

@<SCITEGIC>MOL_PROPERTY
W
SciTegic.value.DoubleValue
-63.089

@<SCITEGIC>MOL_PROPERTY
W(PB)
SciTegic.value.DoubleValue
-65.116

@<SCITEGIC>MOL_PROPERTY
W(SA)
SciTegic.value.DoubleValue
2.026

@<SCITEGIC>MOL_PROPERTY
Valence
SciTegic.value.DoubleValue
2.822

@<SCITEGIC>MOL_PROPERTY
Coulomb
SciTegic.value.DoubleValue
6.637

@<SCITEGIC>MOL_PROPERTY
VdW
SciTegic.value.DoubleValue
0.785

@<SCITEGIC>MOL_PROPERTY
VdW6
SciTegic.value.DoubleValue
-5.216

@<SCITEGIC>MOL_PROPERTY
VdW12
SciTegic.value.DoubleValue
6.001

@<SCITEGIC>MOL_PROPERTY
Bond
SciTegic.value.DoubleValue
0.080

@<SCITEGIC>MOL_PROPERTY
Angle
SciTegic.value.DoubleValue
2.678

@<SCITEGIC>MOL_PROPERTY
Pdih
SciTegic.value.DoubleValue
0.064

@<SCITEGIC>MOL_PROPERTY
Idih
SciTegic.value.DoubleValue
0.000

@<SCITEGIC>MOL_PROPERTY
Tether
SciTegic.value.DoubleValue
0.000

@<TRIPOS>MOLECULE
guest-s19_confgen4.mol2 : confsearch ligand conformer 425
          17          16           1
SMALL
USER_CHARGES
 
@<TRIPOS>ATOM
       1    C1      22.851343   19.119181   20.122201 C.2        1 MOL1         0.6173
       2    O1      23.034205   19.444844   18.965391 O.co2      1 MOL1        -0.6755
       3    O2      23.676462   18.507793   20.774717 O.co2      1 MOL1        -0.6755
       4    C2      21.554473   19.497343   20.746127 C.2        1 MOL1        -0.1504
       5    H1      20.862075   20.042271   20.108516 H          1 MOL1         0.0814
       6    C3      21.216488   19.199941   22.021432 C.2        1 MOL1        -0.1394
       7    H2      21.901690   18.652296   22.668237 H          1 MOL1         0.0817
       8    C4      19.894472   19.586366   22.647680 C.3        1 MOL1        -0.1849
       9    H3      19.595091   20.586553   22.305913 H          1 MOL1         0.0736
      10    H4      20.008738   19.650037   23.738220 H          1 MOL1         0.0736
      11    C5      18.790018   18.566325   22.303137 C.3        1 MOL1        -0.1866
      12    H5      18.671511   18.504510   21.212406 H          1 MOL1         0.0738
      13    H6      19.090839   17.567168   22.647755 H          1 MOL1         0.0738
      14    C6      17.441297   18.948038   22.945611 C.3        1 MOL1        -0.2879
      15    H7      17.523918   18.985838   24.039767 H          1 MOL1         0.0750
      16    H8      17.102468   19.931067   22.593070 H          1 MOL1         0.0750
      17    H9      16.668662   18.211465   22.689440 H          1 MOL1         0.0750
@<TRIPOS>BOND
    1     1     2    1
    2     1     3    2
    3     1     4    1
    4     4     5    1
    5     4     6    2
    6     6     7    1
    7     6     8    1
    8     8     9    1
    9     8    10    1
   10     8    11    1
   11    11    12    1
   12    11    13    1
   13    11    14    1
   14    14    15    1
   15    14    16    1
   16    14    17    1
@<TRIPOS>SUBSTRUCTURE
       1 MOL1            1 RESIDUE      1      MOL     
@<SCITEGIC>MOL_PROPERTY
VConf Rank
SciTegic.value.IntegerValue
425

@<SCITEGIC>MOL_PROPERTY
Conf_Id
SciTegic.value.IntegerValue
36

@<SCITEGIC>MOL_PROPERTY
Delta U+W
SciTegic.value.DoubleValue
0.000

@<SCITEGIC>MOL_PROPERTY
U+W
SciTegic.value.DoubleValue
-53.409

@<SCITEGIC>MOL_PROPERTY
Grad RMS
SciTegic.value.DoubleValue
0.000000

@<SCITEGIC>MOL_PROPERTY
U
SciTegic.value.DoubleValue
9.048

@<SCITEGIC>MOL_PROPERTY
W
SciTegic.value.DoubleValue
-62.457

@<SCITEGIC>MOL_PROPERTY
W(PB)
SciTegic.value.DoubleValue
-64.540

@<SCITEGIC>MOL_PROPERTY
W(SA)
SciTegic.value.DoubleValue
2.084

@<SCITEGIC>MOL_PROPERTY
Valence
SciTegic.value.DoubleValue
2.652

@<SCITEGIC>MOL_PROPERTY
Coulomb
SciTegic.value.DoubleValue
5.578

@<SCITEGIC>MOL_PROPERTY
VdW
SciTegic.value.DoubleValue
0.818

@<SCITEGIC>MOL_PROPERTY
VdW6
SciTegic.value.DoubleValue
-4.534

@<SCITEGIC>MOL_PROPERTY
VdW12
SciTegic.value.DoubleValue
5.352

@<SCITEGIC>MOL_PROPERTY
Bond
SciTegic.value.DoubleValue
0.063

@<SCITEGIC>MOL_PROPERTY
Angle
SciTegic.value.DoubleValue
2.579

@<SCITEGIC>MOL_PROPERTY
Pdih
SciTegic.value.DoubleValue
0.010

@<SCITEGIC>MOL_PROPERTY
Idih
SciTegic.value.DoubleValue
0.000

@<SCITEGIC>MOL_PROPERTY
Tether
SciTegic.value.DoubleValue
0.000

@<TRIPOS>MOLECULE
guest-s19_confgen4.mol2 : confsearch ligand conformer 426
          17          16           1
SMALL
USER_CHARGES
 
@<TRIPOS>ATOM
       1    C1      23.180177   18.818520   23.044079 C.2        1 MOL1         0.6173
       2    O1      23.889271   18.651606   22.069544 O.co2      1 MOL1        -0.6755
       3    O2      23.580978   18.680549   24.183389 O.co2      1 MOL1        -0.6755
       4    C2      21.756722   19.210419   22.858733 C.2        1 MOL1        -0.1504
       5    H1      21.178568   19.343564   23.770281 H          1 MOL1         0.0814
       6    C3      21.177566   19.397474   21.650977 C.2        1 MOL1        -0.1394
       7    H2      21.746985   19.264614   20.731257 H          1 MOL1         0.0817
       8    C4      19.728601   19.794225   21.471180 C.3        1 MOL1        -0.1849
       9    H3      19.603580   20.302740   20.505691 H          1 MOL1         0.0736
      10    H4      19.438484   20.517685   22.245290 H          1 MOL1         0.0736
      11    C5      18.797918   18.565742   21.531797 C.3        1 MOL1        -0.1866
      12    H5      19.088685   17.844624   20.755260 H          1 MOL1         0.0738
      13    H6      18.918776   18.058107   22.498885 H          1 MOL1         0.0738
      14    C6      17.319810   18.960677   21.340092 C.3        1 MOL1        -0.2879
      15    H7      17.164970   19.442595   20.365818 H          1 MOL1         0.0750
      16    H8      16.673595   18.074445   21.386219 H          1 MOL1         0.0750
      17    H9      16.994804   19.658147   22.123253 H          1 MOL1         0.0750
@<TRIPOS>BOND
    1     1     2    1
    2     1     3    2
    3     1     4    1
    4     4     5    1
    5     4     6    2
    6     6     7    1
    7     6     8    1
    8     8     9    1
    9     8    10    1
   10     8    11    1
   11    11    12    1
   12    11    13    1
   13    11    14    1
   14    14    15    1
   15    14    16    1
   16    14    17    1
@<TRIPOS>SUBSTRUCTURE
       1 MOL1            1 RESIDUE      1      MOL     
@<SCITEGIC>MOL_PROPERTY
VConf Rank
SciTegic.value.IntegerValue
426

@<SCITEGIC>MOL_PROPERTY
Conf_Id
SciTegic.value.IntegerValue
1

@<SCITEGIC>MOL_PROPERTY
Delta U+W
SciTegic.value.DoubleValue
0.030

@<SCITEGIC>MOL_PROPERTY
U+W
SciTegic.value.DoubleValue
-53.378

@<SCITEGIC>MOL_PROPERTY
Grad RMS
SciTegic.value.DoubleValue
0.000000

@<SCITEGIC>MOL_PROPERTY
U
SciTegic.value.DoubleValue
9.048

@<SCITEGIC>MOL_PROPERTY
W
SciTegic.value.DoubleValue
-62.426

@<SCITEGIC>MOL_PROPERTY
W(PB)
SciTegic.value.DoubleValue
-64.506

@<SCITEGIC>MOL_PROPERTY
W(SA)
SciTegic.value.DoubleValue
2.080

@<SCITEGIC>MOL_PROPERTY
Valence
SciTegic.value.DoubleValue
2.652

@<SCITEGIC>MOL_PROPERTY
Coulomb
SciTegic.value.DoubleValue
5.578

@<SCITEGIC>MOL_PROPERTY
VdW
SciTegic.value.DoubleValue
0.818

@<SCITEGIC>MOL_PROPERTY
VdW6
SciTegic.value.DoubleValue
-4.535

@<SCITEGIC>MOL_PROPERTY
VdW12
SciTegic.value.DoubleValue
5.352

@<SCITEGIC>MOL_PROPERTY
Bond
SciTegic.value.DoubleValue
0.063

@<SCITEGIC>MOL_PROPERTY
Angle
SciTegic.value.DoubleValue
2.579

@<SCITEGIC>MOL_PROPERTY
Pdih
SciTegic.value.DoubleValue
0.010

@<SCITEGIC>MOL_PROPERTY
Idih
SciTegic.value.DoubleValue
0.000

@<SCITEGIC>MOL_PROPERTY
Tether
SciTegic.value.DoubleValue
0.000

@<TRIPOS>MOLECULE
guest-s19_confgen4.mol2 : confsearch ligand conformer 427
          17          16           1
SMALL
USER_CHARGES
 
@<TRIPOS>ATOM
       1    C1      22.181681   18.585869   24.185855 C.2        1 MOL1         0.6173
       2    O1      23.187162   18.767978   23.525335 O.co2      1 MOL1        -0.6755
       3    O2      22.186124   18.561035   25.401246 O.co2      1 MOL1        -0.6755
       4    C2      20.878127   18.378550   23.498937 C.2        1 MOL1        -0.1504
       5    H1      20.019595   18.220488   24.147550 H          1 MOL1         0.0814
       6    C3      20.725368   18.382274   22.155197 C.2        1 MOL1        -0.1394
       7    H2      21.578194   18.543066   21.496084 H          1 MOL1         0.0817
       8    C4      19.394606   18.174407   21.463187 C.3        1 MOL1        -0.1849
       9    H3      18.830711   17.385233   21.978701 H          1 MOL1         0.0736
      10    H4      19.559258   17.813779   20.438916 H          1 MOL1         0.0736
      11    C5      18.543777   19.462933   21.426423 C.3        1 MOL1        -0.1866
      12    H5      17.554165   19.228152   21.010851 H          1 MOL1         0.0738
      13    H6      18.376275   19.825543   22.450085 H          1 MOL1         0.0738
      14    C6      19.194822   20.577619   20.580060 C.3        1 MOL1        -0.2879
      15    H7      19.360270   20.241330   19.548226 H          1 MOL1         0.0750
      16    H8      18.549145   21.464738   20.548009 H          1 MOL1         0.0750
      17    H9      20.162277   20.880804   21.001168 H          1 MOL1         0.0750
@<TRIPOS>BOND
    1     1     2    1
    2     1     3    2
    3     1     4    1
    4     4     5    1
    5     4     6    2
    6     6     7    1
    7     6     8    1
    8     8     9    1
    9     8    10    1
   10     8    11    1
   11    11    12    1
   12    11    13    1
   13    11    14    1
   14    14    15    1
   15    14    16    1
   16    14    17    1
@<TRIPOS>SUBSTRUCTURE
       1 MOL1            1 RESIDUE      1      MOL     
@<SCITEGIC>MOL_PROPERTY
VConf Rank
SciTegic.value.IntegerValue
427

@<SCITEGIC>MOL_PROPERTY
Conf_Id
SciTegic.value.IntegerValue
3

@<SCITEGIC>MOL_PROPERTY
Delta U+W
SciTegic.value.DoubleValue
0.531

@<SCITEGIC>MOL_PROPERTY
U+W
SciTegic.value.DoubleValue
-52.878

@<SCITEGIC>MOL_PROPERTY
Grad RMS
SciTegic.value.DoubleValue
0.000000

@<SCITEGIC>MOL_PROPERTY
U
SciTegic.value.DoubleValue
10.067

@<SCITEGIC>MOL_PROPERTY
W
SciTegic.value.DoubleValue
-62.945

@<SCITEGIC>MOL_PROPERTY
W(PB)
SciTegic.value.DoubleValue
-64.982

@<SCITEGIC>MOL_PROPERTY
W(SA)
SciTegic.value.DoubleValue
2.037

@<SCITEGIC>MOL_PROPERTY
Valence
SciTegic.value.DoubleValue
2.779

@<SCITEGIC>MOL_PROPERTY
Coulomb
SciTegic.value.DoubleValue
6.474

@<SCITEGIC>MOL_PROPERTY
VdW
SciTegic.value.DoubleValue
0.815

@<SCITEGIC>MOL_PROPERTY
VdW6
SciTegic.value.DoubleValue
-5.088

@<SCITEGIC>MOL_PROPERTY
VdW12
SciTegic.value.DoubleValue
5.902

@<SCITEGIC>MOL_PROPERTY
Bond
SciTegic.value.DoubleValue
0.078

@<SCITEGIC>MOL_PROPERTY
Angle
SciTegic.value.DoubleValue
2.651

@<SCITEGIC>MOL_PROPERTY
Pdih
SciTegic.value.DoubleValue
0.050

@<SCITEGIC>MOL_PROPERTY
Idih
SciTegic.value.DoubleValue
0.000

@<SCITEGIC>MOL_PROPERTY
Tether
SciTegic.value.DoubleValue
0.000

@<TRIPOS>MOLECULE
guest-s19_confgen4.mol2 : confsearch ligand conformer 428
          17          16           1
SMALL
USER_CHARGES
 
@<TRIPOS>ATOM
       1    C1      22.690487   18.485997   20.902354 C.2        1 MOL1         0.6173
       2    O1      23.446816   17.564404   21.139871 O.co2      1 MOL1        -0.6755
       3    O2      23.059186   19.529119   20.395989 O.co2      1 MOL1        -0.6755
       4    C2      21.255582   18.305229   21.252270 C.2        1 MOL1        -0.1504
       5    H1      20.994043   17.349905   21.701336 H          1 MOL1         0.0814
       6    C3      20.305498   19.245772   21.046589 C.2        1 MOL1        -0.1394
       7    H2      20.559564   20.207044   20.600579 H          1 MOL1         0.0817
       8    C4      18.845951   19.059830   21.406429 C.3        1 MOL1        -0.1849
       9    H3      18.617140   17.995745   21.555114 H          1 MOL1         0.0736
      10    H4      18.224154   19.390917   20.563957 H          1 MOL1         0.0736
      11    C5      18.446878   19.857487   22.667243 C.3        1 MOL1        -0.1866
      12    H5      18.677879   20.921689   22.520365 H          1 MOL1         0.0738
      13    H6      17.359060   19.788708   22.805517 H          1 MOL1         0.0738
      14    C6      19.149327   19.343700   23.942162 C.3        1 MOL1        -0.2879
      15    H7      20.238677   19.456542   23.867084 H          1 MOL1         0.0750
      16    H8      18.812774   19.907064   24.822060 H          1 MOL1         0.0750
      17    H9      18.925863   18.282568   24.112910 H          1 MOL1         0.0750
@<TRIPOS>BOND
    1     1     2    1
    2     1     3    2
    3     1     4    1
    4     4     5    1
    5     4     6    2
    6     6     7    1
    7     6     8    1
    8     8     9    1
    9     8    10    1
   10     8    11    1
   11    11    12    1
   12    11    13    1
   13    11    14    1
   14    14    15    1
   15    14    16    1
   16    14    17    1
@<TRIPOS>SUBSTRUCTURE
       1 MOL1            1 RESIDUE      1      MOL     
@<SCITEGIC>MOL_PROPERTY
VConf Rank
SciTegic.value.IntegerValue
428

@<SCITEGIC>MOL_PROPERTY
Conf_Id
SciTegic.value.IntegerValue
45

@<SCITEGIC>MOL_PROPERTY
Delta U+W
SciTegic.value.DoubleValue
0.562

@<SCITEGIC>MOL_PROPERTY
U+W
SciTegic.value.DoubleValue
-52.846

@<SCITEGIC>MOL_PROPERTY
Grad RMS
SciTegic.value.DoubleValue
0.000000

@<SCITEGIC>MOL_PROPERTY
U
SciTegic.value.DoubleValue
10.243

@<SCITEGIC>MOL_PROPERTY
W
SciTegic.value.DoubleValue
-63.089

@<SCITEGIC>MOL_PROPERTY
W(PB)
SciTegic.value.DoubleValue
-65.116

@<SCITEGIC>MOL_PROPERTY
W(SA)
SciTegic.value.DoubleValue
2.026

@<SCITEGIC>MOL_PROPERTY
Valence
SciTegic.value.DoubleValue
2.822

@<SCITEGIC>MOL_PROPERTY
Coulomb
SciTegic.value.DoubleValue
6.637

@<SCITEGIC>MOL_PROPERTY
VdW
SciTegic.value.DoubleValue
0.785

@<SCITEGIC>MOL_PROPERTY
VdW6
SciTegic.value.DoubleValue
-5.216

@<SCITEGIC>MOL_PROPERTY
VdW12
SciTegic.value.DoubleValue
6.001

@<SCITEGIC>MOL_PROPERTY
Bond
SciTegic.value.DoubleValue
0.080

@<SCITEGIC>MOL_PROPERTY
Angle
SciTegic.value.DoubleValue
2.678

@<SCITEGIC>MOL_PROPERTY
Pdih
SciTegic.value.DoubleValue
0.064

@<SCITEGIC>MOL_PROPERTY
Idih
SciTegic.value.DoubleValue
0.000

@<SCITEGIC>MOL_PROPERTY
Tether
SciTegic.value.DoubleValue
0.000

@<TRIPOS>MOLECULE
guest-s19_confgen4.mol2 : confsearch ligand conformer 429
          17          16           1
SMALL
USER_CHARGES
 
@<TRIPOS>ATOM
       1    C1      21.086684   16.972026   24.275336 C.2        1 MOL1         0.6173
       2    O1      22.218591   16.778061   24.673917 O.co2      1 MOL1        -0.6755
       3    O2      20.159584   16.226550   24.530576 O.co2      1 MOL1        -0.6755
       4    C2      20.849120   18.181489   23.441716 C.2        1 MOL1        -0.1504
       5    H1      21.719629   18.805043   23.251180 H          1 MOL1         0.0814
       6    C3      19.643424   18.519992   22.931032 C.2        1 MOL1        -0.1394
       7    H2      18.765131   17.901133   23.113753 H          1 MOL1         0.0817
       8    C4      19.410776   19.750741   22.082286 C.3        1 MOL1        -0.1849
       9    H3      20.008415   20.589316   22.464948 H          1 MOL1         0.0736
      10    H4      18.358601   20.056538   22.158463 H          1 MOL1         0.0736
      11    C5      19.766659   19.489605   20.604393 C.3        1 MOL1        -0.1866
      12    H5      20.820316   19.187582   20.525974 H          1 MOL1         0.0738
      13    H6      19.166204   18.651849   20.223360 H          1 MOL1         0.0738
      14    C6      19.523310   20.736636   19.730767 C.3        1 MOL1        -0.2879
      15    H7      18.469154   21.041510   19.765968 H          1 MOL1         0.0750
      16    H8      20.136185   21.581169   20.072211 H          1 MOL1         0.0750
      17    H9      19.781966   20.531796   18.683739 H          1 MOL1         0.0750
@<TRIPOS>BOND
    1     1     2    1
    2     1     3    2
    3     1     4    1
    4     4     5    1
    5     4     6    2
    6     6     7    1
    7     6     8    1
    8     8     9    1
    9     8    10    1
   10     8    11    1
   11    11    12    1
   12    11    13    1
   13    11    14    1
   14    14    15    1
   15    14    16    1
   16    14    17    1
@<TRIPOS>SUBSTRUCTURE
       1 MOL1            1 RESIDUE      1      MOL     
@<SCITEGIC>MOL_PROPERTY
VConf Rank
SciTegic.value.IntegerValue
429

@<SCITEGIC>MOL_PROPERTY
Conf_Id
SciTegic.value.IntegerValue
36

@<SCITEGIC>MOL_PROPERTY
Delta U+W
SciTegic.value.DoubleValue
0.000

@<SCITEGIC>MOL_PROPERTY
U+W
SciTegic.value.DoubleValue
-53.409

@<SCITEGIC>MOL_PROPERTY
Grad RMS
SciTegic.value.DoubleValue
0.000000

@<SCITEGIC>MOL_PROPERTY
U
SciTegic.value.DoubleValue
9.048

@<SCITEGIC>MOL_PROPERTY
W
SciTegic.value.DoubleValue
-62.457

@<SCITEGIC>MOL_PROPERTY
W(PB)
SciTegic.value.DoubleValue
-64.540

@<SCITEGIC>MOL_PROPERTY
W(SA)
SciTegic.value.DoubleValue
2.084

@<SCITEGIC>MOL_PROPERTY
Valence
SciTegic.value.DoubleValue
2.652

@<SCITEGIC>MOL_PROPERTY
Coulomb
SciTegic.value.DoubleValue
5.578

@<SCITEGIC>MOL_PROPERTY
VdW
SciTegic.value.DoubleValue
0.818

@<SCITEGIC>MOL_PROPERTY
VdW6
SciTegic.value.DoubleValue
-4.534

@<SCITEGIC>MOL_PROPERTY
VdW12
SciTegic.value.DoubleValue
5.352

@<SCITEGIC>MOL_PROPERTY
Bond
SciTegic.value.DoubleValue
0.063

@<SCITEGIC>MOL_PROPERTY
Angle
SciTegic.value.DoubleValue
2.579

@<SCITEGIC>MOL_PROPERTY
Pdih
SciTegic.value.DoubleValue
0.010

@<SCITEGIC>MOL_PROPERTY
Idih
SciTegic.value.DoubleValue
0.000

@<SCITEGIC>MOL_PROPERTY
Tether
SciTegic.value.DoubleValue
0.000

@<TRIPOS>MOLECULE
guest-s19_confgen4.mol2 : confsearch ligand conformer 430
          17          16           1
SMALL
USER_CHARGES
 
@<TRIPOS>ATOM
       1    C1      21.422200   22.154136   21.752716 C.2        1 MOL1         0.6173
       2    O1      20.515782   22.951756   21.602375 O.co2      1 MOL1        -0.6755
       3    O2      22.593780   22.456795   21.636506 O.co2      1 MOL1        -0.6755
       4    C2      21.107995   20.740686   22.095638 C.2        1 MOL1        -0.1504
       5    H1      21.963572   20.080095   22.216127 H          1 MOL1         0.0814
       6    C3      19.852003   20.264930   22.254465 C.2        1 MOL1        -0.1394
       7    H2      18.987513   20.917538   22.133910 H          1 MOL1         0.0817
       8    C4      19.541026   18.825434   22.601429 C.3        1 MOL1        -0.1849
       9    H3      18.563119   18.769892   23.098420 H          1 MOL1         0.0736
      10    H4      20.279079   18.444568   23.320474 H          1 MOL1         0.0736
      11    C5      19.531865   17.933478   21.343118 C.3        1 MOL1        -0.1866
      12    H5      18.791428   18.315131   20.626417 H          1 MOL1         0.0738
      13    H6      20.510988   17.984705   20.846878 H          1 MOL1         0.0738
      14    C6      19.206474   16.466083   21.687209 C.3        1 MOL1        -0.2879
      15    H7      18.217459   16.382497   22.156563 H          1 MOL1         0.0750
      16    H8      19.204476   15.847481   20.780315 H          1 MOL1         0.0750
      17    H9      19.950731   16.050526   22.379184 H          1 MOL1         0.0750
@<TRIPOS>BOND
    1     1     2    1
    2     1     3    2
    3     1     4    1
    4     4     5    1
    5     4     6    2
    6     6     7    1
    7     6     8    1
    8     8     9    1
    9     8    10    1
   10     8    11    1
   11    11    12    1
   12    11    13    1
   13    11    14    1
   14    14    15    1
   15    14    16    1
   16    14    17    1
@<TRIPOS>SUBSTRUCTURE
       1 MOL1            1 RESIDUE      1      MOL     
@<SCITEGIC>MOL_PROPERTY
VConf Rank
SciTegic.value.IntegerValue
430

@<SCITEGIC>MOL_PROPERTY
Conf_Id
SciTegic.value.IntegerValue
1

@<SCITEGIC>MOL_PROPERTY
Delta U+W
SciTegic.value.DoubleValue
0.030

@<SCITEGIC>MOL_PROPERTY
U+W
SciTegic.value.DoubleValue
-53.378

@<SCITEGIC>MOL_PROPERTY
Grad RMS
SciTegic.value.DoubleValue
0.000000

@<SCITEGIC>MOL_PROPERTY
U
SciTegic.value.DoubleValue
9.048

@<SCITEGIC>MOL_PROPERTY
W
SciTegic.value.DoubleValue
-62.426

@<SCITEGIC>MOL_PROPERTY
W(PB)
SciTegic.value.DoubleValue
-64.506

@<SCITEGIC>MOL_PROPERTY
W(SA)
SciTegic.value.DoubleValue
2.080

@<SCITEGIC>MOL_PROPERTY
Valence
SciTegic.value.DoubleValue
2.652

@<SCITEGIC>MOL_PROPERTY
Coulomb
SciTegic.value.DoubleValue
5.578

@<SCITEGIC>MOL_PROPERTY
VdW
SciTegic.value.DoubleValue
0.818

@<SCITEGIC>MOL_PROPERTY
VdW6
SciTegic.value.DoubleValue
-4.535

@<SCITEGIC>MOL_PROPERTY
VdW12
SciTegic.value.DoubleValue
5.352

@<SCITEGIC>MOL_PROPERTY
Bond
SciTegic.value.DoubleValue
0.063

@<SCITEGIC>MOL_PROPERTY
Angle
SciTegic.value.DoubleValue
2.579

@<SCITEGIC>MOL_PROPERTY
Pdih
SciTegic.value.DoubleValue
0.010

@<SCITEGIC>MOL_PROPERTY
Idih
SciTegic.value.DoubleValue
0.000

@<SCITEGIC>MOL_PROPERTY
Tether
SciTegic.value.DoubleValue
0.000

@<TRIPOS>MOLECULE
guest-s19_confgen4.mol2 : confsearch ligand conformer 431
          17          16           1
SMALL
USER_CHARGES
 
@<TRIPOS>ATOM
       1    C1      21.162161   21.390640   20.351811 C.2        1 MOL1         0.6173
       2    O1      21.892478   20.768480   19.603482 O.co2      1 MOL1        -0.6755
       3    O2      20.824850   22.539281   20.140490 O.co2      1 MOL1        -0.6755
       4    C2      20.649271   20.740024   21.587826 C.2        1 MOL1        -0.1504
       5    H1      20.002579   21.351505   22.212839 H          1 MOL1         0.0814
       6    C3      20.941271   19.469435   21.947446 C.2        1 MOL1        -0.1394
       7    H2      21.585402   18.846835   21.326912 H          1 MOL1         0.0817
       8    C4      20.412339   18.812619   23.205157 C.3        1 MOL1        -0.1849
       9    H3      20.435978   19.532486   24.034469 H          1 MOL1         0.0736
      10    H4      21.071799   17.985022   23.499251 H          1 MOL1         0.0736
      11    C5      18.970303   18.287212   23.031838 C.3        1 MOL1        -0.1866
      12    H5      18.603392   17.919078   23.999829 H          1 MOL1         0.0738
      13    H6      18.307773   19.113391   22.738734 H          1 MOL1         0.0738
      14    C6      18.875895   17.150932   21.991325 C.3        1 MOL1        -0.2879
      15    H7      19.521244   16.307968   22.270757 H          1 MOL1         0.0750
      16    H8      17.845618   16.779330   21.918176 H          1 MOL1         0.0750
      17    H9      19.179204   17.499560   20.995492 H          1 MOL1         0.0750
@<TRIPOS>BOND
    1     1     2    1
    2     1     3    2
    3     1     4    1
    4     4     5    1
    5     4     6    2
    6     6     7    1
    7     6     8    1
    8     8     9    1
    9     8    10    1
   10     8    11    1
   11    11    12    1
   12    11    13    1
   13    11    14    1
   14    14    15    1
   15    14    16    1
   16    14    17    1
@<TRIPOS>SUBSTRUCTURE
       1 MOL1            1 RESIDUE      1      MOL     
@<SCITEGIC>MOL_PROPERTY
VConf Rank
SciTegic.value.IntegerValue
431

@<SCITEGIC>MOL_PROPERTY
Conf_Id
SciTegic.value.IntegerValue
3

@<SCITEGIC>MOL_PROPERTY
Delta U+W
SciTegic.value.DoubleValue
0.531

@<SCITEGIC>MOL_PROPERTY
U+W
SciTegic.value.DoubleValue
-52.878

@<SCITEGIC>MOL_PROPERTY
Grad RMS
SciTegic.value.DoubleValue
0.000000

@<SCITEGIC>MOL_PROPERTY
U
SciTegic.value.DoubleValue
10.067

@<SCITEGIC>MOL_PROPERTY
W
SciTegic.value.DoubleValue
-62.945

@<SCITEGIC>MOL_PROPERTY
W(PB)
SciTegic.value.DoubleValue
-64.982

@<SCITEGIC>MOL_PROPERTY
W(SA)
SciTegic.value.DoubleValue
2.037

@<SCITEGIC>MOL_PROPERTY
Valence
SciTegic.value.DoubleValue
2.779

@<SCITEGIC>MOL_PROPERTY
Coulomb
SciTegic.value.DoubleValue
6.474

@<SCITEGIC>MOL_PROPERTY
VdW
SciTegic.value.DoubleValue
0.815

@<SCITEGIC>MOL_PROPERTY
VdW6
SciTegic.value.DoubleValue
-5.088

@<SCITEGIC>MOL_PROPERTY
VdW12
SciTegic.value.DoubleValue
5.902

@<SCITEGIC>MOL_PROPERTY
Bond
SciTegic.value.DoubleValue
0.078

@<SCITEGIC>MOL_PROPERTY
Angle
SciTegic.value.DoubleValue
2.651

@<SCITEGIC>MOL_PROPERTY
Pdih
SciTegic.value.DoubleValue
0.050

@<SCITEGIC>MOL_PROPERTY
Idih
SciTegic.value.DoubleValue
0.000

@<SCITEGIC>MOL_PROPERTY
Tether
SciTegic.value.DoubleValue
0.000

@<TRIPOS>MOLECULE
guest-s19_confgen4.mol2 : confsearch ligand conformer 432
          17          16           1
SMALL
USER_CHARGES
 
@<TRIPOS>ATOM
       1    C1      20.931838   21.953041   21.823783 C.2        1 MOL1         0.6173
       2    O1      22.000467   22.442553   22.133927 O.co2      1 MOL1        -0.6755
       3    O2      19.920228   22.613401   21.678803 O.co2      1 MOL1        -0.6755
       4    C2      20.885101   20.480553   21.614813 C.2        1 MOL1        -0.1504
       5    H1      21.823878   19.951228   21.760475 H          1 MOL1         0.0814
       6    C3      19.765969   19.803474   21.270295 C.2        1 MOL1        -0.1394
       7    H2      18.820390   20.325550   21.125952 H          1 MOL1         0.0817
       8    C4      19.720939   18.303979   21.060954 C.3        1 MOL1        -0.1849
       9    H3      20.733990   17.902665   20.921615 H          1 MOL1         0.0736
      10    H4      19.176632   18.088020   20.131922 H          1 MOL1         0.0736
      11    C5      19.028078   17.569543   22.229592 C.3        1 MOL1        -0.1866
      12    H5      18.015550   17.972213   22.371373 H          1 MOL1         0.0738
      13    H6      18.910146   16.509196   21.967002 H          1 MOL1         0.0738
      14    C6      19.819838   17.675437   23.550475 C.3        1 MOL1        -0.2879
      15    H7      19.903071   18.719291   23.879861 H          1 MOL1         0.0750
      16    H8      19.318983   17.110373   24.347164 H          1 MOL1         0.0750
      17    H9      20.833782   17.271204   23.433826 H          1 MOL1         0.0750
@<TRIPOS>BOND
    1     1     2    1
    2     1     3    2
    3     1     4    1
    4     4     5    1
    5     4     6    2
    6     6     7    1
    7     6     8    1
    8     8     9    1
    9     8    10    1
   10     8    11    1
   11    11    12    1
   12    11    13    1
   13    11    14    1
   14    14    15    1
   15    14    16    1
   16    14    17    1
@<TRIPOS>SUBSTRUCTURE
       1 MOL1            1 RESIDUE      1      MOL     
@<SCITEGIC>MOL_PROPERTY
VConf Rank
SciTegic.value.IntegerValue
432

@<SCITEGIC>MOL_PROPERTY
Conf_Id
SciTegic.value.IntegerValue
45

@<SCITEGIC>MOL_PROPERTY
Delta U+W
SciTegic.value.DoubleValue
0.562

@<SCITEGIC>MOL_PROPERTY
U+W
SciTegic.value.DoubleValue
-52.846

@<SCITEGIC>MOL_PROPERTY
Grad RMS
SciTegic.value.DoubleValue
0.000000

@<SCITEGIC>MOL_PROPERTY
U
SciTegic.value.DoubleValue
10.243

@<SCITEGIC>MOL_PROPERTY
W
SciTegic.value.DoubleValue
-63.089

@<SCITEGIC>MOL_PROPERTY
W(PB)
SciTegic.value.DoubleValue
-65.116

@<SCITEGIC>MOL_PROPERTY
W(SA)
SciTegic.value.DoubleValue
2.026

@<SCITEGIC>MOL_PROPERTY
Valence
SciTegic.value.DoubleValue
2.822

@<SCITEGIC>MOL_PROPERTY
Coulomb
SciTegic.value.DoubleValue
6.637

@<SCITEGIC>MOL_PROPERTY
VdW
SciTegic.value.DoubleValue
0.785

@<SCITEGIC>MOL_PROPERTY
VdW6
SciTegic.value.DoubleValue
-5.216

@<SCITEGIC>MOL_PROPERTY
VdW12
SciTegic.value.DoubleValue
6.001

@<SCITEGIC>MOL_PROPERTY
Bond
SciTegic.value.DoubleValue
0.080

@<SCITEGIC>MOL_PROPERTY
Angle
SciTegic.value.DoubleValue
2.678

@<SCITEGIC>MOL_PROPERTY
Pdih
SciTegic.value.DoubleValue
0.064

@<SCITEGIC>MOL_PROPERTY
Idih
SciTegic.value.DoubleValue
0.000

@<SCITEGIC>MOL_PROPERTY
Tether
SciTegic.value.DoubleValue
0.000

@<TRIPOS>MOLECULE
guest-s19_confgen4.mol2 : confsearch ligand conformer 433
          17          16           1
SMALL
USER_CHARGES
 
@<TRIPOS>ATOM
       1    C1      16.907706   17.947268   21.214930 C.2        1 MOL1         0.6173
       2    O1      16.163269   18.238850   20.299235 O.co2      1 MOL1        -0.6755
       3    O2      16.541768   17.315506   22.188254 O.co2      1 MOL1        -0.6755
       4    C2      18.324248   18.392380   21.117756 C.2        1 MOL1        -0.1504
       5    H1      18.585415   18.952400   20.222726 H          1 MOL1         0.0814
       6    C3      19.259965   18.140173   22.061107 C.2        1 MOL1        -0.1394
       7    H2      19.008573   17.582049   22.962812 H          1 MOL1         0.0817
       8    C4      20.698075   18.598365   21.955580 C.3        1 MOL1        -0.1849
       9    H3      21.045385   18.509330   20.917188 H          1 MOL1         0.0736
      10    H4      21.339030   17.939672   22.556985 H          1 MOL1         0.0736
      11    C5      20.860325   20.055159   22.435621 C.3        1 MOL1        -0.1866
      12    H5      20.222803   20.716129   21.832095 H          1 MOL1         0.0738
      13    H6      20.514227   20.141236   23.475032 H          1 MOL1         0.0738
      14    C6      22.325239   20.526780   22.340087 C.3        1 MOL1        -0.2879
      15    H7      22.980660   19.901479   22.960453 H          1 MOL1         0.0750
      16    H8      22.686293   20.479828   21.304292 H          1 MOL1         0.0750
      17    H9      22.420770   21.564431   22.685466 H          1 MOL1         0.0750
@<TRIPOS>BOND
    1     1     2    1
    2     1     3    2
    3     1     4    1
    4     4     5    1
    5     4     6    2
    6     6     7    1
    7     6     8    1
    8     8     9    1
    9     8    10    1
   10     8    11    1
   11    11    12    1
   12    11    13    1
   13    11    14    1
   14    14    15    1
   15    14    16    1
   16    14    17    1
@<TRIPOS>SUBSTRUCTURE
       1 MOL1            1 RESIDUE      1      MOL     
@<SCITEGIC>MOL_PROPERTY
VConf Rank
SciTegic.value.IntegerValue
433

@<SCITEGIC>MOL_PROPERTY
Conf_Id
SciTegic.value.IntegerValue
36

@<SCITEGIC>MOL_PROPERTY
Delta U+W
SciTegic.value.DoubleValue
0.000

@<SCITEGIC>MOL_PROPERTY
U+W
SciTegic.value.DoubleValue
-53.409

@<SCITEGIC>MOL_PROPERTY
Grad RMS
SciTegic.value.DoubleValue
0.000000

@<SCITEGIC>MOL_PROPERTY
U
SciTegic.value.DoubleValue
9.048

@<SCITEGIC>MOL_PROPERTY
W
SciTegic.value.DoubleValue
-62.457

@<SCITEGIC>MOL_PROPERTY
W(PB)
SciTegic.value.DoubleValue
-64.540

@<SCITEGIC>MOL_PROPERTY
W(SA)
SciTegic.value.DoubleValue
2.084

@<SCITEGIC>MOL_PROPERTY
Valence
SciTegic.value.DoubleValue
2.652

@<SCITEGIC>MOL_PROPERTY
Coulomb
SciTegic.value.DoubleValue
5.578

@<SCITEGIC>MOL_PROPERTY
VdW
SciTegic.value.DoubleValue
0.818

@<SCITEGIC>MOL_PROPERTY
VdW6
SciTegic.value.DoubleValue
-4.534

@<SCITEGIC>MOL_PROPERTY
VdW12
SciTegic.value.DoubleValue
5.352

@<SCITEGIC>MOL_PROPERTY
Bond
SciTegic.value.DoubleValue
0.063

@<SCITEGIC>MOL_PROPERTY
Angle
SciTegic.value.DoubleValue
2.579

@<SCITEGIC>MOL_PROPERTY
Pdih
SciTegic.value.DoubleValue
0.010

@<SCITEGIC>MOL_PROPERTY
Idih
SciTegic.value.DoubleValue
0.000

@<SCITEGIC>MOL_PROPERTY
Tether
SciTegic.value.DoubleValue
0.000

@<TRIPOS>MOLECULE
guest-s19_confgen4.mol2 : confsearch ligand conformer 434
          17          16           1
SMALL
USER_CHARGES
 
@<TRIPOS>ATOM
       1    C1      18.615929   21.788145   23.383451 C.2        1 MOL1         0.6173
       2    O1      19.290052   22.750885   23.068673 O.co2      1 MOL1        -0.6755
       3    O2      17.754838   21.837038   24.240095 O.co2      1 MOL1        -0.6755
       4    C2      18.835663   20.483108   22.703189 C.2        1 MOL1        -0.1504
       5    H1      18.200015   19.663871   23.031382 H          1 MOL1         0.0814
       6    C3      19.758256   20.283946   21.734560 C.2        1 MOL1        -0.1394
       7    H2      20.401849   21.097226   21.399691 H          1 MOL1         0.0817
       8    C4      19.976612   18.952913   21.049059 C.3        1 MOL1        -0.1849
       9    H3      20.414741   19.118364   20.055552 H          1 MOL1         0.0736
      10    H4      19.012683   18.451852   20.886008 H          1 MOL1         0.0736
      11    C5      20.904340   18.040068   21.876738 C.3        1 MOL1        -0.1866
      12    H5      21.868492   18.542473   22.036636 H          1 MOL1         0.0738
      13    H6      20.465411   17.870173   22.869732 H          1 MOL1         0.0738
      14    C6      21.139389   16.684652   21.180229 C.3        1 MOL1        -0.2879
      15    H7      21.607383   16.824052   20.196877 H          1 MOL1         0.0750
      16    H8      21.801130   16.049499   21.783393 H          1 MOL1         0.0750
      17    H9      20.192707   16.147470   21.036477 H          1 MOL1         0.0750
@<TRIPOS>BOND
    1     1     2    1
    2     1     3    2
    3     1     4    1
    4     4     5    1
    5     4     6    2
    6     6     7    1
    7     6     8    1
    8     8     9    1
    9     8    10    1
   10     8    11    1
   11    11    12    1
   12    11    13    1
   13    11    14    1
   14    14    15    1
   15    14    16    1
   16    14    17    1
@<TRIPOS>SUBSTRUCTURE
       1 MOL1            1 RESIDUE      1      MOL     
@<SCITEGIC>MOL_PROPERTY
VConf Rank
SciTegic.value.IntegerValue
434

@<SCITEGIC>MOL_PROPERTY
Conf_Id
SciTegic.value.IntegerValue
1

@<SCITEGIC>MOL_PROPERTY
Delta U+W
SciTegic.value.DoubleValue
0.030

@<SCITEGIC>MOL_PROPERTY
U+W
SciTegic.value.DoubleValue
-53.378

@<SCITEGIC>MOL_PROPERTY
Grad RMS
SciTegic.value.DoubleValue
0.000000

@<SCITEGIC>MOL_PROPERTY
U
SciTegic.value.DoubleValue
9.048

@<SCITEGIC>MOL_PROPERTY
W
SciTegic.value.DoubleValue
-62.426

@<SCITEGIC>MOL_PROPERTY
W(PB)
SciTegic.value.DoubleValue
-64.506

@<SCITEGIC>MOL_PROPERTY
W(SA)
SciTegic.value.DoubleValue
2.080

@<SCITEGIC>MOL_PROPERTY
Valence
SciTegic.value.DoubleValue
2.652

@<SCITEGIC>MOL_PROPERTY
Coulomb
SciTegic.value.DoubleValue
5.578

@<SCITEGIC>MOL_PROPERTY
VdW
SciTegic.value.DoubleValue
0.818

@<SCITEGIC>MOL_PROPERTY
VdW6
SciTegic.value.DoubleValue
-4.535

@<SCITEGIC>MOL_PROPERTY
VdW12
SciTegic.value.DoubleValue
5.352

@<SCITEGIC>MOL_PROPERTY
Bond
SciTegic.value.DoubleValue
0.063

@<SCITEGIC>MOL_PROPERTY
Angle
SciTegic.value.DoubleValue
2.579

@<SCITEGIC>MOL_PROPERTY
Pdih
SciTegic.value.DoubleValue
0.010

@<SCITEGIC>MOL_PROPERTY
Idih
SciTegic.value.DoubleValue
0.000

@<SCITEGIC>MOL_PROPERTY
Tether
SciTegic.value.DoubleValue
0.000

@<TRIPOS>MOLECULE
guest-s19_confgen4.mol2 : confsearch ligand conformer 435
          17          16           1
SMALL
USER_CHARGES
 
@<TRIPOS>ATOM
       1    C1      19.137271   21.582580   20.468120 C.2        1 MOL1         0.6173
       2    O1      20.158801   21.822599   19.852239 O.co2      1 MOL1        -0.6755
       3    O2      18.061418   22.067490   20.176207 O.co2      1 MOL1        -0.6755
       4    C2      19.181769   20.661061   21.635559 C.2        1 MOL1        -0.1504
       5    H1      18.234561   20.490272   22.141908 H          1 MOL1         0.0814
       6    C3      20.307063   20.050388   22.071194 C.2        1 MOL1        -0.1394
       7    H2      21.260788   20.211768   21.569235 H          1 MOL1         0.0817
       8    C4      20.343922   19.110568   23.257951 C.3        1 MOL1        -0.1849
       9    H3      19.705842   19.505194   24.060229 H          1 MOL1         0.0736
      10    H4      21.361604   19.068552   23.668867 H          1 MOL1         0.0736
      11    C5      19.875056   17.684832   22.893256 C.3        1 MOL1        -0.1866
      12    H5      19.821891   17.079136   23.808384 H          1 MOL1         0.0738
      13    H6      18.856452   17.723495   22.482917 H          1 MOL1         0.0738
      14    C6      20.816092   16.992761   21.884196 C.3        1 MOL1        -0.2879
      15    H7      21.838594   16.931558   22.279023 H          1 MOL1         0.0750
      16    H8      20.472387   15.971760   21.673648 H          1 MOL1         0.0750
      17    H9      20.848042   17.539784   20.932899 H          1 MOL1         0.0750
@<TRIPOS>BOND
    1     1     2    1
    2     1     3    2
    3     1     4    1
    4     4     5    1
    5     4     6    2
    6     6     7    1
    7     6     8    1
    8     8     9    1
    9     8    10    1
   10     8    11    1
   11    11    12    1
   12    11    13    1
   13    11    14    1
   14    14    15    1
   15    14    16    1
   16    14    17    1
@<TRIPOS>SUBSTRUCTURE
       1 MOL1            1 RESIDUE      1      MOL     
@<SCITEGIC>MOL_PROPERTY
VConf Rank
SciTegic.value.IntegerValue
435

@<SCITEGIC>MOL_PROPERTY
Conf_Id
SciTegic.value.IntegerValue
3

@<SCITEGIC>MOL_PROPERTY
Delta U+W
SciTegic.value.DoubleValue
0.531

@<SCITEGIC>MOL_PROPERTY
U+W
SciTegic.value.DoubleValue
-52.878

@<SCITEGIC>MOL_PROPERTY
Grad RMS
SciTegic.value.DoubleValue
0.000000

@<SCITEGIC>MOL_PROPERTY
U
SciTegic.value.DoubleValue
10.067

@<SCITEGIC>MOL_PROPERTY
W
SciTegic.value.DoubleValue
-62.945

@<SCITEGIC>MOL_PROPERTY
W(PB)
SciTegic.value.DoubleValue
-64.982

@<SCITEGIC>MOL_PROPERTY
W(SA)
SciTegic.value.DoubleValue
2.037

@<SCITEGIC>MOL_PROPERTY
Valence
SciTegic.value.DoubleValue
2.779

@<SCITEGIC>MOL_PROPERTY
Coulomb
SciTegic.value.DoubleValue
6.474

@<SCITEGIC>MOL_PROPERTY
VdW
SciTegic.value.DoubleValue
0.815

@<SCITEGIC>MOL_PROPERTY
VdW6
SciTegic.value.DoubleValue
-5.088

@<SCITEGIC>MOL_PROPERTY
VdW12
SciTegic.value.DoubleValue
5.902

@<SCITEGIC>MOL_PROPERTY
Bond
SciTegic.value.DoubleValue
0.078

@<SCITEGIC>MOL_PROPERTY
Angle
SciTegic.value.DoubleValue
2.651

@<SCITEGIC>MOL_PROPERTY
Pdih
SciTegic.value.DoubleValue
0.050

@<SCITEGIC>MOL_PROPERTY
Idih
SciTegic.value.DoubleValue
0.000

@<SCITEGIC>MOL_PROPERTY
Tether
SciTegic.value.DoubleValue
0.000

@<TRIPOS>MOLECULE
guest-s19_confgen4.mol2 : confsearch ligand conformer 436
          17          16           1
SMALL
USER_CHARGES
 
@<TRIPOS>ATOM
       1    C1      22.409811   17.974475   23.467241 C.2        1 MOL1         0.6173
       2    O1      23.586326   18.089150   23.183617 O.co2      1 MOL1        -0.6755
       3    O2      21.984898   17.078947   24.172880 O.co2      1 MOL1        -0.6755
       4    C2      21.468478   18.987575   22.918066 C.2        1 MOL1        -0.1504
       5    H1      21.913985   19.760116   22.295643 H          1 MOL1         0.0814
       6    C3      20.135807   18.981525   23.149445 C.2        1 MOL1        -0.1394
       7    H2      19.680728   18.209049   23.768881 H          1 MOL1         0.0817
       8    C4      19.179649   20.012733   22.586677 C.3        1 MOL1        -0.1849
       9    H3      19.727195   20.901867   22.245543 H          1 MOL1         0.0736
      10    H4      18.510063   20.355032   23.386987 H          1 MOL1         0.0736
      11    C5      18.328007   19.451228   21.427115 C.3        1 MOL1        -0.1866
      12    H5      17.781971   18.560196   21.766769 H          1 MOL1         0.0738
      13    H6      17.570167   20.195414   21.145930 H          1 MOL1         0.0738
      14    C6      19.174005   19.100770   20.184418 C.3        1 MOL1        -0.2879
      15    H7      19.902283   18.311200   20.410793 H          1 MOL1         0.0750
      16    H8      18.532333   18.742619   19.369034 H          1 MOL1         0.0750
      17    H9      19.723173   19.979823   19.822792 H          1 MOL1         0.0750
@<TRIPOS>BOND
    1     1     2    1
    2     1     3    2
    3     1     4    1
    4     4     5    1
    5     4     6    2
    6     6     7    1
    7     6     8    1
    8     8     9    1
    9     8    10    1
   10     8    11    1
   11    11    12    1
   12    11    13    1
   13    11    14    1
   14    14    15    1
   15    14    16    1
   16    14    17    1
@<TRIPOS>SUBSTRUCTURE
       1 MOL1            1 RESIDUE      1      MOL     
@<SCITEGIC>MOL_PROPERTY
VConf Rank
SciTegic.value.IntegerValue
436

@<SCITEGIC>MOL_PROPERTY
Conf_Id
SciTegic.value.IntegerValue
45

@<SCITEGIC>MOL_PROPERTY
Delta U+W
SciTegic.value.DoubleValue
0.562

@<SCITEGIC>MOL_PROPERTY
U+W
SciTegic.value.DoubleValue
-52.846

@<SCITEGIC>MOL_PROPERTY
Grad RMS
SciTegic.value.DoubleValue
0.000000

@<SCITEGIC>MOL_PROPERTY
U
SciTegic.value.DoubleValue
10.243

@<SCITEGIC>MOL_PROPERTY
W
SciTegic.value.DoubleValue
-63.089

@<SCITEGIC>MOL_PROPERTY
W(PB)
SciTegic.value.DoubleValue
-65.116

@<SCITEGIC>MOL_PROPERTY
W(SA)
SciTegic.value.DoubleValue
2.026

@<SCITEGIC>MOL_PROPERTY
Valence
SciTegic.value.DoubleValue
2.822

@<SCITEGIC>MOL_PROPERTY
Coulomb
SciTegic.value.DoubleValue
6.637

@<SCITEGIC>MOL_PROPERTY
VdW
SciTegic.value.DoubleValue
0.785

@<SCITEGIC>MOL_PROPERTY
VdW6
SciTegic.value.DoubleValue
-5.216

@<SCITEGIC>MOL_PROPERTY
VdW12
SciTegic.value.DoubleValue
6.001

@<SCITEGIC>MOL_PROPERTY
Bond
SciTegic.value.DoubleValue
0.080

@<SCITEGIC>MOL_PROPERTY
Angle
SciTegic.value.DoubleValue
2.678

@<SCITEGIC>MOL_PROPERTY
Pdih
SciTegic.value.DoubleValue
0.064

@<SCITEGIC>MOL_PROPERTY
Idih
SciTegic.value.DoubleValue
0.000

@<SCITEGIC>MOL_PROPERTY
Tether
SciTegic.value.DoubleValue
0.000

@<TRIPOS>MOLECULE
guest-s19_confgen4.mol2 : confsearch ligand conformer 437
          17          16           1
SMALL
USER_CHARGES
 
@<TRIPOS>ATOM
       1    C1      17.418078   19.252951   19.738964 C.2        1 MOL1         0.6173
       2    O1      17.280992   19.947834   18.751012 O.co2      1 MOL1        -0.6755
       3    O2      16.502626   18.625347   20.237416 O.co2      1 MOL1        -0.6755
       4    C2      18.774523   19.181623   20.346527 C.2        1 MOL1        -0.1504
       5    H1      19.547261   19.765995   19.852266 H          1 MOL1         0.0814
       6    C3      19.070824   18.450699   21.445181 C.2        1 MOL1        -0.1394
       7    H2      18.303730   17.863426   21.949613 H          1 MOL1         0.0817
       8    C4      20.452614   18.385315   22.058058 C.3        1 MOL1        -0.1849
       9    H3      21.214177   18.369076   21.266497 H          1 MOL1         0.0736
      10    H4      20.562958   17.446338   22.617104 H          1 MOL1         0.0736
      11    C5      20.706512   19.579828   23.000230 C.3        1 MOL1        -0.1866
      12    H5      20.600619   20.520075   22.441407 H          1 MOL1         0.0738
      13    H6      19.944812   19.592740   23.792200 H          1 MOL1         0.0738
      14    C6      22.109596   19.515558   23.636430 C.3        1 MOL1        -0.2879
      15    H7      22.231187   18.598746   24.228125 H          1 MOL1         0.0750
      16    H8      22.891489   19.532678   22.865855 H          1 MOL1         0.0750
      17    H9      22.271753   20.372806   24.302733 H          1 MOL1         0.0750
@<TRIPOS>BOND
    1     1     2    1
    2     1     3    2
    3     1     4    1
    4     4     5    1
    5     4     6    2
    6     6     7    1
    7     6     8    1
    8     8     9    1
    9     8    10    1
   10     8    11    1
   11    11    12    1
   12    11    13    1
   13    11    14    1
   14    14    15    1
   15    14    16    1
   16    14    17    1
@<TRIPOS>SUBSTRUCTURE
       1 MOL1            1 RESIDUE      1      MOL     
@<SCITEGIC>MOL_PROPERTY
VConf Rank
SciTegic.value.IntegerValue
437

@<SCITEGIC>MOL_PROPERTY
Conf_Id
SciTegic.value.IntegerValue
36

@<SCITEGIC>MOL_PROPERTY
Delta U+W
SciTegic.value.DoubleValue
0.000

@<SCITEGIC>MOL_PROPERTY
U+W
SciTegic.value.DoubleValue
-53.409

@<SCITEGIC>MOL_PROPERTY
Grad RMS
SciTegic.value.DoubleValue
0.000000

@<SCITEGIC>MOL_PROPERTY
U
SciTegic.value.DoubleValue
9.048

@<SCITEGIC>MOL_PROPERTY
W
SciTegic.value.DoubleValue
-62.457

@<SCITEGIC>MOL_PROPERTY
W(PB)
SciTegic.value.DoubleValue
-64.540

@<SCITEGIC>MOL_PROPERTY
W(SA)
SciTegic.value.DoubleValue
2.084

@<SCITEGIC>MOL_PROPERTY
Valence
SciTegic.value.DoubleValue
2.652

@<SCITEGIC>MOL_PROPERTY
Coulomb
SciTegic.value.DoubleValue
5.578

@<SCITEGIC>MOL_PROPERTY
VdW
SciTegic.value.DoubleValue
0.818

@<SCITEGIC>MOL_PROPERTY
VdW6
SciTegic.value.DoubleValue
-4.534

@<SCITEGIC>MOL_PROPERTY
VdW12
SciTegic.value.DoubleValue
5.352

@<SCITEGIC>MOL_PROPERTY
Bond
SciTegic.value.DoubleValue
0.063

@<SCITEGIC>MOL_PROPERTY
Angle
SciTegic.value.DoubleValue
2.579

@<SCITEGIC>MOL_PROPERTY
Pdih
SciTegic.value.DoubleValue
0.010

@<SCITEGIC>MOL_PROPERTY
Idih
SciTegic.value.DoubleValue
0.000

@<SCITEGIC>MOL_PROPERTY
Tether
SciTegic.value.DoubleValue
0.000

@<TRIPOS>MOLECULE
guest-s19_confgen4.mol2 : confsearch ligand conformer 438
          17          16           1
SMALL
USER_CHARGES
 
@<TRIPOS>ATOM
       1    C1      22.211387   21.606138   21.428926 C.2        1 MOL1         0.6173
       2    O1      21.595087   22.518385   20.910878 O.co2      1 MOL1        -0.6755
       3    O2      23.423560   21.596315   21.519729 O.co2      1 MOL1        -0.6755
       4    C2      21.470874   20.441053   21.984248 C.2        1 MOL1        -0.1504
       5    H1      22.081354   19.660912   22.433251 H          1 MOL1         0.0814
       6    C3      20.124381   20.318675   21.951627 C.2        1 MOL1        -0.1394
       7    H2      19.503284   21.093313   21.502239 H          1 MOL1         0.0817
       8    C4      19.379144   19.129497   22.517062 C.3        1 MOL1        -0.1849
       9    H3      18.355230   19.427994   22.779524 H          1 MOL1         0.0736
      10    H4      19.855951   18.795901   23.448822 H          1 MOL1         0.0736
      11    C5      19.334299   17.963186   21.508733 C.3        1 MOL1        -0.1866
      12    H5      18.855062   18.298673   20.578493 H          1 MOL1         0.0738
      13    H6      20.358064   17.660567   21.248180 H          1 MOL1         0.0738
      14    C6      18.568255   16.750315   22.074104 C.3        1 MOL1        -0.2879
      15    H7      17.530709   17.017714   22.313743 H          1 MOL1         0.0750
      16    H8      18.546923   15.931446   21.343263 H          1 MOL1         0.0750
      17    H9      19.045927   16.375648   22.988920 H          1 MOL1         0.0750
@<TRIPOS>BOND
    1     1     2    1
    2     1     3    2
    3     1     4    1
    4     4     5    1
    5     4     6    2
    6     6     7    1
    7     6     8    1
    8     8     9    1
    9     8    10    1
   10     8    11    1
   11    11    12    1
   12    11    13    1
   13    11    14    1
   14    14    15    1
   15    14    16    1
   16    14    17    1
@<TRIPOS>SUBSTRUCTURE
       1 MOL1            1 RESIDUE      1      MOL     
@<SCITEGIC>MOL_PROPERTY
VConf Rank
SciTegic.value.IntegerValue
438

@<SCITEGIC>MOL_PROPERTY
Conf_Id
SciTegic.value.IntegerValue
1

@<SCITEGIC>MOL_PROPERTY
Delta U+W
SciTegic.value.DoubleValue
0.030

@<SCITEGIC>MOL_PROPERTY
U+W
SciTegic.value.DoubleValue
-53.378

@<SCITEGIC>MOL_PROPERTY
Grad RMS
SciTegic.value.DoubleValue
0.000000

@<SCITEGIC>MOL_PROPERTY
U
SciTegic.value.DoubleValue
9.048

@<SCITEGIC>MOL_PROPERTY
W
SciTegic.value.DoubleValue
-62.426

@<SCITEGIC>MOL_PROPERTY
W(PB)
SciTegic.value.DoubleValue
-64.506

@<SCITEGIC>MOL_PROPERTY
W(SA)
SciTegic.value.DoubleValue
2.080

@<SCITEGIC>MOL_PROPERTY
Valence
SciTegic.value.DoubleValue
2.652

@<SCITEGIC>MOL_PROPERTY
Coulomb
SciTegic.value.DoubleValue
5.578

@<SCITEGIC>MOL_PROPERTY
VdW
SciTegic.value.DoubleValue
0.818

@<SCITEGIC>MOL_PROPERTY
VdW6
SciTegic.value.DoubleValue
-4.535

@<SCITEGIC>MOL_PROPERTY
VdW12
SciTegic.value.DoubleValue
5.352

@<SCITEGIC>MOL_PROPERTY
Bond
SciTegic.value.DoubleValue
0.063

@<SCITEGIC>MOL_PROPERTY
Angle
SciTegic.value.DoubleValue
2.579

@<SCITEGIC>MOL_PROPERTY
Pdih
SciTegic.value.DoubleValue
0.010

@<SCITEGIC>MOL_PROPERTY
Idih
SciTegic.value.DoubleValue
0.000

@<SCITEGIC>MOL_PROPERTY
Tether
SciTegic.value.DoubleValue
0.000

@<TRIPOS>MOLECULE
guest-s19_confgen4.mol2 : confsearch ligand conformer 439
          17          16           1
SMALL
USER_CHARGES
 
@<TRIPOS>ATOM
       1    C1      20.972387   16.354741   23.107019 C.2        1 MOL1         0.6173
       2    O1      22.118210   16.350246   22.697741 O.co2      1 MOL1        -0.6755
       3    O2      20.574512   15.588872   23.963145 O.co2      1 MOL1        -0.6755
       4    C2      19.995778   17.328480   22.548306 C.2        1 MOL1        -0.1504
       5    H1      18.989102   17.278653   22.956818 H          1 MOL1         0.0814
       6    C3      20.299717   18.237536   21.594250 C.2        1 MOL1        -0.1394
       7    H2      21.306018   18.298405   21.180425 H          1 MOL1         0.0817
       8    C4      19.301290   19.228149   21.033138 C.3        1 MOL1        -0.1849
       9    H3      18.331184   18.732928   20.891090 H          1 MOL1         0.0736
      10    H4      19.624473   19.559763   20.037207 H          1 MOL1         0.0736
      11    C5      19.113143   20.456412   21.950488 C.3        1 MOL1        -0.1866
      12    H5      18.305991   21.084387   21.548857 H          1 MOL1         0.0738
      13    H6      18.788533   20.127823   22.947526 H          1 MOL1         0.0738
      14    C6      20.397272   21.303901   22.074929 C.3        1 MOL1        -0.2879
      15    H7      20.733517   21.654232   21.090371 H          1 MOL1         0.0750
      16    H8      20.218755   22.184645   22.705270 H          1 MOL1         0.0750
      17    H9      21.211674   20.724625   22.529253 H          1 MOL1         0.0750
@<TRIPOS>BOND
    1     1     2    1
    2     1     3    2
    3     1     4    1
    4     4     5    1
    5     4     6    2
    6     6     7    1
    7     6     8    1
    8     8     9    1
    9     8    10    1
   10     8    11    1
   11    11    12    1
   12    11    13    1
   13    11    14    1
   14    14    15    1
   15    14    16    1
   16    14    17    1
@<TRIPOS>SUBSTRUCTURE
       1 MOL1            1 RESIDUE      1      MOL     
@<SCITEGIC>MOL_PROPERTY
VConf Rank
SciTegic.value.IntegerValue
439

@<SCITEGIC>MOL_PROPERTY
Conf_Id
SciTegic.value.IntegerValue
3

@<SCITEGIC>MOL_PROPERTY
Delta U+W
SciTegic.value.DoubleValue
0.531

@<SCITEGIC>MOL_PROPERTY
U+W
SciTegic.value.DoubleValue
-52.878

@<SCITEGIC>MOL_PROPERTY
Grad RMS
SciTegic.value.DoubleValue
0.000000

@<SCITEGIC>MOL_PROPERTY
U
SciTegic.value.DoubleValue
10.067

@<SCITEGIC>MOL_PROPERTY
W
SciTegic.value.DoubleValue
-62.945

@<SCITEGIC>MOL_PROPERTY
W(PB)
SciTegic.value.DoubleValue
-64.982

@<SCITEGIC>MOL_PROPERTY
W(SA)
SciTegic.value.DoubleValue
2.037

@<SCITEGIC>MOL_PROPERTY
Valence
SciTegic.value.DoubleValue
2.779

@<SCITEGIC>MOL_PROPERTY
Coulomb
SciTegic.value.DoubleValue
6.474

@<SCITEGIC>MOL_PROPERTY
VdW
SciTegic.value.DoubleValue
0.815

@<SCITEGIC>MOL_PROPERTY
VdW6
SciTegic.value.DoubleValue
-5.088

@<SCITEGIC>MOL_PROPERTY
VdW12
SciTegic.value.DoubleValue
5.902

@<SCITEGIC>MOL_PROPERTY
Bond
SciTegic.value.DoubleValue
0.078

@<SCITEGIC>MOL_PROPERTY
Angle
SciTegic.value.DoubleValue
2.651

@<SCITEGIC>MOL_PROPERTY
Pdih
SciTegic.value.DoubleValue
0.050

@<SCITEGIC>MOL_PROPERTY
Idih
SciTegic.value.DoubleValue
0.000

@<SCITEGIC>MOL_PROPERTY
Tether
SciTegic.value.DoubleValue
0.000

@<TRIPOS>MOLECULE
guest-s19_confgen4.mol2 : confsearch ligand conformer 440
          17          16           1
SMALL
USER_CHARGES
 
@<TRIPOS>ATOM
       1    C1      17.160914   18.622584   23.056625 C.2        1 MOL1         0.6173
       2    O1      16.398757   19.381920   23.622582 O.co2      1 MOL1        -0.6755
       3    O2      17.042728   17.412477   23.102664 O.co2      1 MOL1        -0.6755
       4    C2      18.277143   19.223357   22.277410 C.2        1 MOL1        -0.1504
       5    H1      18.324465   20.309850   22.277984 H          1 MOL1         0.0814
       6    C3      19.198972   18.500261   21.601431 C.2        1 MOL1        -0.1394
       7    H2      19.161080   17.411190   21.598625 H          1 MOL1         0.0817
       8    C4      20.335839   19.114722   20.811300 C.3        1 MOL1        -0.1849
       9    H3      20.136143   20.175682   20.608260 H          1 MOL1         0.0736
      10    H4      20.398100   18.622883   19.831389 H          1 MOL1         0.0736
      11    C5      21.694698   18.970978   21.531026 C.3        1 MOL1        -0.1866
      12    H5      21.894019   17.910151   21.736881 H          1 MOL1         0.0738
      13    H6      22.493759   19.316013   20.860466 H          1 MOL1         0.0738
      14    C6      21.758583   19.777113   22.845901 C.3        1 MOL1        -0.2879
      15    H7      21.014585   19.416660   23.568115 H          1 MOL1         0.0750
      16    H8      22.749480   19.683050   23.308654 H          1 MOL1         0.0750
      17    H9      21.569613   20.842831   22.662518 H          1 MOL1         0.0750
@<TRIPOS>BOND
    1     1     2    1
    2     1     3    2
    3     1     4    1
    4     4     5    1
    5     4     6    2
    6     6     7    1
    7     6     8    1
    8     8     9    1
    9     8    10    1
   10     8    11    1
   11    11    12    1
   12    11    13    1
   13    11    14    1
   14    14    15    1
   15    14    16    1
   16    14    17    1
@<TRIPOS>SUBSTRUCTURE
       1 MOL1            1 RESIDUE      1      MOL     
@<SCITEGIC>MOL_PROPERTY
VConf Rank
SciTegic.value.IntegerValue
440

@<SCITEGIC>MOL_PROPERTY
Conf_Id
SciTegic.value.IntegerValue
45

@<SCITEGIC>MOL_PROPERTY
Delta U+W
SciTegic.value.DoubleValue
0.562

@<SCITEGIC>MOL_PROPERTY
U+W
SciTegic.value.DoubleValue
-52.846

@<SCITEGIC>MOL_PROPERTY
Grad RMS
SciTegic.value.DoubleValue
0.000000

@<SCITEGIC>MOL_PROPERTY
U
SciTegic.value.DoubleValue
10.243

@<SCITEGIC>MOL_PROPERTY
W
SciTegic.value.DoubleValue
-63.089

@<SCITEGIC>MOL_PROPERTY
W(PB)
SciTegic.value.DoubleValue
-65.116

@<SCITEGIC>MOL_PROPERTY
W(SA)
SciTegic.value.DoubleValue
2.026

@<SCITEGIC>MOL_PROPERTY
Valence
SciTegic.value.DoubleValue
2.822

@<SCITEGIC>MOL_PROPERTY
Coulomb
SciTegic.value.DoubleValue
6.637

@<SCITEGIC>MOL_PROPERTY
VdW
SciTegic.value.DoubleValue
0.785

@<SCITEGIC>MOL_PROPERTY
VdW6
SciTegic.value.DoubleValue
-5.216

@<SCITEGIC>MOL_PROPERTY
VdW12
SciTegic.value.DoubleValue
6.001

@<SCITEGIC>MOL_PROPERTY
Bond
SciTegic.value.DoubleValue
0.080

@<SCITEGIC>MOL_PROPERTY
Angle
SciTegic.value.DoubleValue
2.678

@<SCITEGIC>MOL_PROPERTY
Pdih
SciTegic.value.DoubleValue
0.064

@<SCITEGIC>MOL_PROPERTY
Idih
SciTegic.value.DoubleValue
0.000

@<SCITEGIC>MOL_PROPERTY
Tether
SciTegic.value.DoubleValue
0.000

@<TRIPOS>MOLECULE
guest-s19_confgen4.mol2 : confsearch ligand conformer 441
          17          16           1
SMALL
USER_CHARGES
 
@<TRIPOS>ATOM
       1    C1      23.128842   19.292748   20.682713 C.2        1 MOL1         0.6173
       2    O1      24.189168   19.115864   21.250273 O.co2      1 MOL1        -0.6755
       3    O2      23.046524   19.798683   19.579242 O.co2      1 MOL1        -0.6755
       4    C2      21.891328   18.862152   21.387914 C.2        1 MOL1        -0.1504
       5    H1      22.035034   18.417626   22.370082 H          1 MOL1         0.0814
       6    C3      20.646493   18.998689   20.877201 C.2        1 MOL1        -0.1394
       7    H2      20.490913   19.444858   19.895111 H          1 MOL1         0.0817
       8    C4      19.392853   18.560083   21.601941 C.3        1 MOL1        -0.1849
       9    H3      19.578060   17.618402   22.136493 H          1 MOL1         0.0736
      10    H4      18.598880   18.353817   20.871565 H          1 MOL1         0.0736
      11    C5      18.912556   19.637164   22.596037 C.3        1 MOL1        -0.1866
      12    H5      19.704315   19.841695   23.330096 H          1 MOL1         0.0738
      13    H6      18.726035   20.577426   22.058743 H          1 MOL1         0.0738
      14    C6      17.629592   19.201646   23.332144 C.3        1 MOL1        -0.2879
      15    H7      16.811429   19.021172   22.622587 H          1 MOL1         0.0750
      16    H8      17.798201   18.279129   23.903080 H          1 MOL1         0.0750
      17    H9      17.303529   19.979883   24.034399 H          1 MOL1         0.0750
@<TRIPOS>BOND
    1     1     2    1
    2     1     3    2
    3     1     4    1
    4     4     5    1
    5     4     6    2
    6     6     7    1
    7     6     8    1
    8     8     9    1
    9     8    10    1
   10     8    11    1
   11    11    12    1
   12    11    13    1
   13    11    14    1
   14    14    15    1
   15    14    16    1
   16    14    17    1
@<TRIPOS>SUBSTRUCTURE
       1 MOL1            1 RESIDUE      1      MOL     
@<SCITEGIC>MOL_PROPERTY
VConf Rank
SciTegic.value.IntegerValue
441

@<SCITEGIC>MOL_PROPERTY
Conf_Id
SciTegic.value.IntegerValue
36

@<SCITEGIC>MOL_PROPERTY
Delta U+W
SciTegic.value.DoubleValue
0.000

@<SCITEGIC>MOL_PROPERTY
U+W
SciTegic.value.DoubleValue
-53.409

@<SCITEGIC>MOL_PROPERTY
Grad RMS
SciTegic.value.DoubleValue
0.000000

@<SCITEGIC>MOL_PROPERTY
U
SciTegic.value.DoubleValue
9.048

@<SCITEGIC>MOL_PROPERTY
W
SciTegic.value.DoubleValue
-62.457

@<SCITEGIC>MOL_PROPERTY
W(PB)
SciTegic.value.DoubleValue
-64.540

@<SCITEGIC>MOL_PROPERTY
W(SA)
SciTegic.value.DoubleValue
2.084

@<SCITEGIC>MOL_PROPERTY
Valence
SciTegic.value.DoubleValue
2.652

@<SCITEGIC>MOL_PROPERTY
Coulomb
SciTegic.value.DoubleValue
5.578

@<SCITEGIC>MOL_PROPERTY
VdW
SciTegic.value.DoubleValue
0.818

@<SCITEGIC>MOL_PROPERTY
VdW6
SciTegic.value.DoubleValue
-4.534

@<SCITEGIC>MOL_PROPERTY
VdW12
SciTegic.value.DoubleValue
5.352

@<SCITEGIC>MOL_PROPERTY
Bond
SciTegic.value.DoubleValue
0.063

@<SCITEGIC>MOL_PROPERTY
Angle
SciTegic.value.DoubleValue
2.579

@<SCITEGIC>MOL_PROPERTY
Pdih
SciTegic.value.DoubleValue
0.010

@<SCITEGIC>MOL_PROPERTY
Idih
SciTegic.value.DoubleValue
0.000

@<SCITEGIC>MOL_PROPERTY
Tether
SciTegic.value.DoubleValue
0.000

@<TRIPOS>MOLECULE
guest-s19_confgen4.mol2 : confsearch ligand conformer 442
          17          16           1
SMALL
USER_CHARGES
 
@<TRIPOS>ATOM
       1    C1      23.193379   20.135241   22.342524 C.2        1 MOL1         0.6173
       2    O1      23.539579   20.650913   21.296282 O.co2      1 MOL1        -0.6755
       3    O2      23.969806   19.885454   23.243897 O.co2      1 MOL1        -0.6755
       4    C2      21.761889   19.787173   22.551922 C.2        1 MOL1        -0.1504
       5    H1      21.519779   19.329324   23.508303 H          1 MOL1         0.0814
       6    C3      20.791046   20.006871   21.636343 C.2        1 MOL1        -0.1394
       7    H2      21.022894   20.462976   20.674060 H          1 MOL1         0.0817
       8    C4      19.337743   19.648155   21.856507 C.3        1 MOL1        -0.1849
       9    H3      18.702178   20.285196   21.226728 H          1 MOL1         0.0736
      10    H4      19.053455   19.854697   22.897338 H          1 MOL1         0.0736
      11    C5      19.068945   18.165315   21.527948 C.3        1 MOL1        -0.1866
      12    H5      19.352022   17.961723   20.485842 H          1 MOL1         0.0738
      13    H6      19.701146   17.526400   22.160141 H          1 MOL1         0.0738
      14    C6      17.587653   17.793944   21.740982 C.3        1 MOL1        -0.2879
      15    H7      16.934688   18.397009   21.096484 H          1 MOL1         0.0750
      16    H8      17.415940   16.736247   21.502399 H          1 MOL1         0.0750
      17    H9      17.287349   17.959095   22.784044 H          1 MOL1         0.0750
@<TRIPOS>BOND
    1     1     2    1
    2     1     3    2
    3     1     4    1
    4     4     5    1
    5     4     6    2
    6     6     7    1
    7     6     8    1
    8     8     9    1
    9     8    10    1
   10     8    11    1
   11    11    12    1
   12    11    13    1
   13    11    14    1
   14    14    15    1
   15    14    16    1
   16    14    17    1
@<TRIPOS>SUBSTRUCTURE
       1 MOL1            1 RESIDUE      1      MOL     
@<SCITEGIC>MOL_PROPERTY
VConf Rank
SciTegic.value.IntegerValue
442

@<SCITEGIC>MOL_PROPERTY
Conf_Id
SciTegic.value.IntegerValue
1

@<SCITEGIC>MOL_PROPERTY
Delta U+W
SciTegic.value.DoubleValue
0.030

@<SCITEGIC>MOL_PROPERTY
U+W
SciTegic.value.DoubleValue
-53.378

@<SCITEGIC>MOL_PROPERTY
Grad RMS
SciTegic.value.DoubleValue
0.000000

@<SCITEGIC>MOL_PROPERTY
U
SciTegic.value.DoubleValue
9.048

@<SCITEGIC>MOL_PROPERTY
W
SciTegic.value.DoubleValue
-62.426

@<SCITEGIC>MOL_PROPERTY
W(PB)
SciTegic.value.DoubleValue
-64.506

@<SCITEGIC>MOL_PROPERTY
W(SA)
SciTegic.value.DoubleValue
2.080

@<SCITEGIC>MOL_PROPERTY
Valence
SciTegic.value.DoubleValue
2.652

@<SCITEGIC>MOL_PROPERTY
Coulomb
SciTegic.value.DoubleValue
5.578

@<SCITEGIC>MOL_PROPERTY
VdW
SciTegic.value.DoubleValue
0.818

@<SCITEGIC>MOL_PROPERTY
VdW6
SciTegic.value.DoubleValue
-4.535

@<SCITEGIC>MOL_PROPERTY
VdW12
SciTegic.value.DoubleValue
5.352

@<SCITEGIC>MOL_PROPERTY
Bond
SciTegic.value.DoubleValue
0.063

@<SCITEGIC>MOL_PROPERTY
Angle
SciTegic.value.DoubleValue
2.579

@<SCITEGIC>MOL_PROPERTY
Pdih
SciTegic.value.DoubleValue
0.010

@<SCITEGIC>MOL_PROPERTY
Idih
SciTegic.value.DoubleValue
0.000

@<SCITEGIC>MOL_PROPERTY
Tether
SciTegic.value.DoubleValue
0.000

@<TRIPOS>MOLECULE
guest-s19_confgen4.mol2 : confsearch ligand conformer 443
          17          16           1
SMALL
USER_CHARGES
 
@<TRIPOS>ATOM
       1    C1      17.979669   16.818006   21.604317 C.2        1 MOL1         0.6173
       2    O1      17.470586   16.760595   22.707939 O.co2      1 MOL1        -0.6755
       3    O2      17.483331   16.303414   20.621131 O.co2      1 MOL1        -0.6755
       4    C2      19.267806   17.541044   21.425405 C.2        1 MOL1        -0.1504
       5    H1      19.668649   17.553719   20.414502 H          1 MOL1         0.0814
       6    C3      19.930190   18.160211   22.428832 C.2        1 MOL1        -0.1394
       7    H2      19.535891   18.156602   23.444762 H          1 MOL1         0.0817
       8    C4      21.239028   18.897562   22.238382 C.3        1 MOL1        -0.1849
       9    H3      21.884977   18.330661   21.554350 H          1 MOL1         0.0736
      10    H4      21.778354   18.952733   23.193566 H          1 MOL1         0.0736
      11    C5      21.034754   20.322164   21.677718 C.3        1 MOL1        -0.1866
      12    H5      22.015783   20.767252   21.461774 H          1 MOL1         0.0738
      13    H6      20.496377   20.270127   20.721230 H          1 MOL1         0.0738
      14    C6      20.269306   21.238618   22.655937 C.3        1 MOL1        -0.2879
      15    H7      20.796344   21.315624   23.615857 H          1 MOL1         0.0750
      16    H8      20.171633   22.250069   22.240805 H          1 MOL1         0.0750
      17    H9      19.258878   20.855398   22.849325 H          1 MOL1         0.0750
@<TRIPOS>BOND
    1     1     2    1
    2     1     3    2
    3     1     4    1
    4     4     5    1
    5     4     6    2
    6     6     7    1
    7     6     8    1
    8     8     9    1
    9     8    10    1
   10     8    11    1
   11    11    12    1
   12    11    13    1
   13    11    14    1
   14    14    15    1
   15    14    16    1
   16    14    17    1
@<TRIPOS>SUBSTRUCTURE
       1 MOL1            1 RESIDUE      1      MOL     
@<SCITEGIC>MOL_PROPERTY
VConf Rank
SciTegic.value.IntegerValue
443

@<SCITEGIC>MOL_PROPERTY
Conf_Id
SciTegic.value.IntegerValue
3

@<SCITEGIC>MOL_PROPERTY
Delta U+W
SciTegic.value.DoubleValue
0.531

@<SCITEGIC>MOL_PROPERTY
U+W
SciTegic.value.DoubleValue
-52.878

@<SCITEGIC>MOL_PROPERTY
Grad RMS
SciTegic.value.DoubleValue
0.000000

@<SCITEGIC>MOL_PROPERTY
U
SciTegic.value.DoubleValue
10.067

@<SCITEGIC>MOL_PROPERTY
W
SciTegic.value.DoubleValue
-62.945

@<SCITEGIC>MOL_PROPERTY
W(PB)
SciTegic.value.DoubleValue
-64.982

@<SCITEGIC>MOL_PROPERTY
W(SA)
SciTegic.value.DoubleValue
2.037

@<SCITEGIC>MOL_PROPERTY
Valence
SciTegic.value.DoubleValue
2.779

@<SCITEGIC>MOL_PROPERTY
Coulomb
SciTegic.value.DoubleValue
6.474

@<SCITEGIC>MOL_PROPERTY
VdW
SciTegic.value.DoubleValue
0.815

@<SCITEGIC>MOL_PROPERTY
VdW6
SciTegic.value.DoubleValue
-5.088

@<SCITEGIC>MOL_PROPERTY
VdW12
SciTegic.value.DoubleValue
5.902

@<SCITEGIC>MOL_PROPERTY
Bond
SciTegic.value.DoubleValue
0.078

@<SCITEGIC>MOL_PROPERTY
Angle
SciTegic.value.DoubleValue
2.651

@<SCITEGIC>MOL_PROPERTY
Pdih
SciTegic.value.DoubleValue
0.050

@<SCITEGIC>MOL_PROPERTY
Idih
SciTegic.value.DoubleValue
0.000

@<SCITEGIC>MOL_PROPERTY
Tether
SciTegic.value.DoubleValue
0.000

@<TRIPOS>MOLECULE
guest-s19_confgen4.mol2 : confsearch ligand conformer 444
          17          16           1
SMALL
USER_CHARGES
 
@<TRIPOS>ATOM
       1    C1      22.565093   19.671022   20.629730 C.2        1 MOL1         0.6173
       2    O1      22.749120   20.205888   19.553704 O.co2      1 MOL1        -0.6755
       3    O2      23.388569   18.946535   21.156469 O.co2      1 MOL1        -0.6755
       4    C2      21.269905   19.931657   21.314295 C.2        1 MOL1        -0.1504
       5    H1      20.579815   20.587723   20.788882 H          1 MOL1         0.0814
       6    C3      20.930529   19.402092   22.511780 C.2        1 MOL1        -0.1394
       7    H2      21.614518   18.740880   23.043265 H          1 MOL1         0.0817
       8    C4      19.610041   19.667115   23.204898 C.3        1 MOL1        -0.1849
       9    H3      19.120802   20.553399   22.778419 H          1 MOL1         0.0736
      10    H4      19.800262   19.901857   24.260701 H          1 MOL1         0.0736
      11    C5      18.653153   18.457486   23.125344 C.3        1 MOL1        -0.1866
      12    H5      19.142772   17.569826   23.549365 H          1 MOL1         0.0738
      13    H6      17.770661   18.656933   23.748743 H          1 MOL1         0.0738
      14    C6      18.192544   18.158416   21.682698 C.3        1 MOL1        -0.2879
      15    H7      19.043294   17.890751   21.042673 H          1 MOL1         0.0750
      16    H8      17.484798   17.319496   21.669494 H          1 MOL1         0.0750
      17    H9      17.693003   19.030645   21.241371 H          1 MOL1         0.0750
@<TRIPOS>BOND
    1     1     2    1
    2     1     3    2
    3     1     4    1
    4     4     5    1
    5     4     6    2
    6     6     7    1
    7     6     8    1
    8     8     9    1
    9     8    10    1
   10     8    11    1
   11    11    12    1
   12    11    13    1
   13    11    14    1
   14    14    15    1
   15    14    16    1
   16    14    17    1
@<TRIPOS>SUBSTRUCTURE
       1 MOL1            1 RESIDUE      1      MOL     
@<SCITEGIC>MOL_PROPERTY
VConf Rank
SciTegic.value.IntegerValue
444

@<SCITEGIC>MOL_PROPERTY
Conf_Id
SciTegic.value.IntegerValue
45

@<SCITEGIC>MOL_PROPERTY
Delta U+W
SciTegic.value.DoubleValue
0.562

@<SCITEGIC>MOL_PROPERTY
U+W
SciTegic.value.DoubleValue
-52.846

@<SCITEGIC>MOL_PROPERTY
Grad RMS
SciTegic.value.DoubleValue
0.000000

@<SCITEGIC>MOL_PROPERTY
U
SciTegic.value.DoubleValue
10.243

@<SCITEGIC>MOL_PROPERTY
W
SciTegic.value.DoubleValue
-63.089

@<SCITEGIC>MOL_PROPERTY
W(PB)
SciTegic.value.DoubleValue
-65.116

@<SCITEGIC>MOL_PROPERTY
W(SA)
SciTegic.value.DoubleValue
2.026

@<SCITEGIC>MOL_PROPERTY
Valence
SciTegic.value.DoubleValue
2.822

@<SCITEGIC>MOL_PROPERTY
Coulomb
SciTegic.value.DoubleValue
6.637

@<SCITEGIC>MOL_PROPERTY
VdW
SciTegic.value.DoubleValue
0.785

@<SCITEGIC>MOL_PROPERTY
VdW6
SciTegic.value.DoubleValue
-5.216

@<SCITEGIC>MOL_PROPERTY
VdW12
SciTegic.value.DoubleValue
6.001

@<SCITEGIC>MOL_PROPERTY
Bond
SciTegic.value.DoubleValue
0.080

@<SCITEGIC>MOL_PROPERTY
Angle
SciTegic.value.DoubleValue
2.678

@<SCITEGIC>MOL_PROPERTY
Pdih
SciTegic.value.DoubleValue
0.064

@<SCITEGIC>MOL_PROPERTY
Idih
SciTegic.value.DoubleValue
0.000

@<SCITEGIC>MOL_PROPERTY
Tether
SciTegic.value.DoubleValue
0.000

@<TRIPOS>MOLECULE
guest-s19_confgen4.mol2 : confsearch ligand conformer 445
          17          16           1
SMALL
USER_CHARGES
 
@<TRIPOS>ATOM
       1    C1      18.968374   19.767687   25.060779 C.2        1 MOL1         0.6173
       2    O1      19.426746   19.374659   26.115828 O.co2      1 MOL1        -0.6755
       3    O2      17.881856   20.308215   24.973020 O.co2      1 MOL1        -0.6755
       4    C2      19.791344   19.569046   23.837086 C.2        1 MOL1        -0.1504
       5    H1      20.751451   19.079963   23.985074 H          1 MOL1         0.0814
       6    C3      19.406671   19.954817   22.599228 C.2        1 MOL1        -0.1394
       7    H2      18.445761   20.443534   22.439285 H          1 MOL1         0.0817
       8    C4      20.248767   19.747087   21.359486 C.3        1 MOL1        -0.1849
       9    H3      21.308947   19.915196   21.593082 H          1 MOL1         0.0736
      10    H4      19.974452   20.491201   20.599597 H          1 MOL1         0.0736
      11    C5      20.061155   18.328414   20.784002 C.3        1 MOL1        -0.1866
      12    H5      20.339220   17.582676   21.541706 H          1 MOL1         0.0738
      13    H6      19.000384   18.163401   20.549260 H          1 MOL1         0.0738
      14    C6      20.909087   18.111739   19.514518 C.3        1 MOL1        -0.2879
      15    H7      20.628841   18.824972   18.728267 H          1 MOL1         0.0750
      16    H8      21.978041   18.240627   19.729371 H          1 MOL1         0.0750
      17    H9      20.762655   17.097802   19.120031 H          1 MOL1         0.0750
@<TRIPOS>BOND
    1     1     2    1
    2     1     3    2
    3     1     4    1
    4     4     5    1
    5     4     6    2
    6     6     7    1
    7     6     8    1
    8     8     9    1
    9     8    10    1
   10     8    11    1
   11    11    12    1
   12    11    13    1
   13    11    14    1
   14    14    15    1
   15    14    16    1
   16    14    17    1
@<TRIPOS>SUBSTRUCTURE
       1 MOL1            1 RESIDUE      1      MOL     
@<SCITEGIC>MOL_PROPERTY
VConf Rank
SciTegic.value.IntegerValue
445

@<SCITEGIC>MOL_PROPERTY
Conf_Id
SciTegic.value.IntegerValue
36

@<SCITEGIC>MOL_PROPERTY
Delta U+W
SciTegic.value.DoubleValue
0.000

@<SCITEGIC>MOL_PROPERTY
U+W
SciTegic.value.DoubleValue
-53.409

@<SCITEGIC>MOL_PROPERTY
Grad RMS
SciTegic.value.DoubleValue
0.000000

@<SCITEGIC>MOL_PROPERTY
U
SciTegic.value.DoubleValue
9.048

@<SCITEGIC>MOL_PROPERTY
W
SciTegic.value.DoubleValue
-62.457

@<SCITEGIC>MOL_PROPERTY
W(PB)
SciTegic.value.DoubleValue
-64.540

@<SCITEGIC>MOL_PROPERTY
W(SA)
SciTegic.value.DoubleValue
2.084

@<SCITEGIC>MOL_PROPERTY
Valence
SciTegic.value.DoubleValue
2.652

@<SCITEGIC>MOL_PROPERTY
Coulomb
SciTegic.value.DoubleValue
5.578

@<SCITEGIC>MOL_PROPERTY
VdW
SciTegic.value.DoubleValue
0.818

@<SCITEGIC>MOL_PROPERTY
VdW6
SciTegic.value.DoubleValue
-4.534

@<SCITEGIC>MOL_PROPERTY
VdW12
SciTegic.value.DoubleValue
5.352

@<SCITEGIC>MOL_PROPERTY
Bond
SciTegic.value.DoubleValue
0.063

@<SCITEGIC>MOL_PROPERTY
Angle
SciTegic.value.DoubleValue
2.579

@<SCITEGIC>MOL_PROPERTY
Pdih
SciTegic.value.DoubleValue
0.010

@<SCITEGIC>MOL_PROPERTY
Idih
SciTegic.value.DoubleValue
0.000

@<SCITEGIC>MOL_PROPERTY
Tether
SciTegic.value.DoubleValue
0.000

@<TRIPOS>MOLECULE
guest-s19_confgen4.mol2 : confsearch ligand conformer 446
          17          16           1
SMALL
USER_CHARGES
 
@<TRIPOS>ATOM
       1    C1      21.440034   22.148096   21.802772 C.2        1 MOL1         0.6173
       2    O1      20.791763   22.866763   22.540102 O.co2      1 MOL1        -0.6755
       3    O2      22.286015   22.574987   21.041335 O.co2      1 MOL1        -0.6755
       4    C2      21.206088   20.678661   21.816637 C.2        1 MOL1        -0.1504
       5    H1      21.818602   20.094107   21.133971 H          1 MOL1         0.0814
       6    C3      20.297602   20.067530   22.610524 C.2        1 MOL1        -0.1394
       7    H2      19.677147   20.643812   23.296606 H          1 MOL1         0.0817
       8    C4      20.064596   18.572571   22.617127 C.3        1 MOL1        -0.1849
       9    H3      19.648343   18.269485   23.587313 H          1 MOL1         0.0736
      10    H4      21.020860   18.042954   22.508172 H          1 MOL1         0.0736
      11    C5      19.103200   18.148699   21.487937 C.3        1 MOL1        -0.1866
      12    H5      18.146799   18.678070   21.600315 H          1 MOL1         0.0738
      13    H6      19.520170   18.447590   20.516156 H          1 MOL1         0.0738
      14    C6      18.853210   16.627187   21.493612 C.3        1 MOL1        -0.2879
      15    H7      18.406381   16.305877   22.443631 H          1 MOL1         0.0750
      16    H8      18.167546   16.344893   20.684103 H          1 MOL1         0.0750
      17    H9      19.791135   16.074451   21.351432 H          1 MOL1         0.0750
@<TRIPOS>BOND
    1     1     2    1
    2     1     3    2
    3     1     4    1
    4     4     5    1
    5     4     6    2
    6     6     7    1
    7     6     8    1
    8     8     9    1
    9     8    10    1
   10     8    11    1
   11    11    12    1
   12    11    13    1
   13    11    14    1
   14    14    15    1
   15    14    16    1
   16    14    17    1
@<TRIPOS>SUBSTRUCTURE
       1 MOL1            1 RESIDUE      1      MOL     
@<SCITEGIC>MOL_PROPERTY
VConf Rank
SciTegic.value.IntegerValue
446

@<SCITEGIC>MOL_PROPERTY
Conf_Id
SciTegic.value.IntegerValue
1

@<SCITEGIC>MOL_PROPERTY
Delta U+W
SciTegic.value.DoubleValue
0.030

@<SCITEGIC>MOL_PROPERTY
U+W
SciTegic.value.DoubleValue
-53.378

@<SCITEGIC>MOL_PROPERTY
Grad RMS
SciTegic.value.DoubleValue
0.000000

@<SCITEGIC>MOL_PROPERTY
U
SciTegic.value.DoubleValue
9.048

@<SCITEGIC>MOL_PROPERTY
W
SciTegic.value.DoubleValue
-62.426

@<SCITEGIC>MOL_PROPERTY
W(PB)
SciTegic.value.DoubleValue
-64.506

@<SCITEGIC>MOL_PROPERTY
W(SA)
SciTegic.value.DoubleValue
2.080

@<SCITEGIC>MOL_PROPERTY
Valence
SciTegic.value.DoubleValue
2.652

@<SCITEGIC>MOL_PROPERTY
Coulomb
SciTegic.value.DoubleValue
5.578

@<SCITEGIC>MOL_PROPERTY
VdW
SciTegic.value.DoubleValue
0.818

@<SCITEGIC>MOL_PROPERTY
VdW6
SciTegic.value.DoubleValue
-4.535

@<SCITEGIC>MOL_PROPERTY
VdW12
SciTegic.value.DoubleValue
5.352

@<SCITEGIC>MOL_PROPERTY
Bond
SciTegic.value.DoubleValue
0.063

@<SCITEGIC>MOL_PROPERTY
Angle
SciTegic.value.DoubleValue
2.579

@<SCITEGIC>MOL_PROPERTY
Pdih
SciTegic.value.DoubleValue
0.010

@<SCITEGIC>MOL_PROPERTY
Idih
SciTegic.value.DoubleValue
0.000

@<SCITEGIC>MOL_PROPERTY
Tether
SciTegic.value.DoubleValue
0.000

@<TRIPOS>MOLECULE
guest-s19_confgen4.mol2 : confsearch ligand conformer 447
          17          16           1
SMALL
USER_CHARGES
 
@<TRIPOS>ATOM
       1    C1      17.093874   18.227703   21.583260 C.2        1 MOL1         0.6173
       2    O1      17.009708   17.302364   22.368821 O.co2      1 MOL1        -0.6755
       3    O2      16.121634   18.759484   21.083492 O.co2      1 MOL1        -0.6755
       4    C2      18.434509   18.746609   21.199166 C.2        1 MOL1        -0.1504
       5    H1      18.438959   19.573520   20.492796 H          1 MOL1         0.0814
       6    C3      19.599156   18.252542   21.677161 C.2        1 MOL1        -0.1394
       7    H2      19.606141   17.426444   22.387873 H          1 MOL1         0.0817
       8    C4      20.959928   18.788443   21.284574 C.3        1 MOL1        -0.1849
       9    H3      20.972124   19.010105   20.208821 H          1 MOL1         0.0736
      10    H4      21.725300   18.017658   21.447024 H          1 MOL1         0.0736
      11    C5      21.337558   20.064435   22.068667 C.3        1 MOL1        -0.1866
      12    H5      22.279702   20.465275   21.670113 H          1 MOL1         0.0738
      13    H6      20.574115   20.838043   21.907073 H          1 MOL1         0.0738
      14    C6      21.500445   19.802704   23.581174 C.3        1 MOL1        -0.2879
      15    H7      22.268529   19.040785   23.767378 H          1 MOL1         0.0750
      16    H8      21.801050   20.721264   24.101550 H          1 MOL1         0.0750
      17    H9      20.558826   19.456420   24.026889 H          1 MOL1         0.0750
@<TRIPOS>BOND
    1     1     2    1
    2     1     3    2
    3     1     4    1
    4     4     5    1
    5     4     6    2
    6     6     7    1
    7     6     8    1
    8     8     9    1
    9     8    10    1
   10     8    11    1
   11    11    12    1
   12    11    13    1
   13    11    14    1
   14    14    15    1
   15    14    16    1
   16    14    17    1
@<TRIPOS>SUBSTRUCTURE
       1 MOL1            1 RESIDUE      1      MOL     
@<SCITEGIC>MOL_PROPERTY
VConf Rank
SciTegic.value.IntegerValue
447

@<SCITEGIC>MOL_PROPERTY
Conf_Id
SciTegic.value.IntegerValue
3

@<SCITEGIC>MOL_PROPERTY
Delta U+W
SciTegic.value.DoubleValue
0.531

@<SCITEGIC>MOL_PROPERTY
U+W
SciTegic.value.DoubleValue
-52.878

@<SCITEGIC>MOL_PROPERTY
Grad RMS
SciTegic.value.DoubleValue
0.000000

@<SCITEGIC>MOL_PROPERTY
U
SciTegic.value.DoubleValue
10.067

@<SCITEGIC>MOL_PROPERTY
W
SciTegic.value.DoubleValue
-62.945

@<SCITEGIC>MOL_PROPERTY
W(PB)
SciTegic.value.DoubleValue
-64.982

@<SCITEGIC>MOL_PROPERTY
W(SA)
SciTegic.value.DoubleValue
2.037

@<SCITEGIC>MOL_PROPERTY
Valence
SciTegic.value.DoubleValue
2.779

@<SCITEGIC>MOL_PROPERTY
Coulomb
SciTegic.value.DoubleValue
6.474

@<SCITEGIC>MOL_PROPERTY
VdW
SciTegic.value.DoubleValue
0.815

@<SCITEGIC>MOL_PROPERTY
VdW6
SciTegic.value.DoubleValue
-5.088

@<SCITEGIC>MOL_PROPERTY
VdW12
SciTegic.value.DoubleValue
5.902

@<SCITEGIC>MOL_PROPERTY
Bond
SciTegic.value.DoubleValue
0.078

@<SCITEGIC>MOL_PROPERTY
Angle
SciTegic.value.DoubleValue
2.651

@<SCITEGIC>MOL_PROPERTY
Pdih
SciTegic.value.DoubleValue
0.050

@<SCITEGIC>MOL_PROPERTY
Idih
SciTegic.value.DoubleValue
0.000

@<SCITEGIC>MOL_PROPERTY
Tether
SciTegic.value.DoubleValue
0.000

@<TRIPOS>MOLECULE
guest-s19_confgen4.mol2 : confsearch ligand conformer 448
          17          16           1
SMALL
USER_CHARGES
 
@<TRIPOS>ATOM
       1    C1      22.049495   21.292670   21.962340 C.2        1 MOL1         0.6173
       2    O1      21.918039   22.468841   21.684628 O.co2      1 MOL1        -0.6755
       3    O2      23.118392   20.714783   21.899465 O.co2      1 MOL1        -0.6755
       4    C2      20.836346   20.549681   22.398582 C.2        1 MOL1        -0.1504
       5    H1      19.914560   21.125752   22.432648 H          1 MOL1         0.0814
       6    C3      20.835436   19.239587   22.735092 C.2        1 MOL1        -0.1394
       7    H2      21.753863   18.654102   22.700219 H          1 MOL1         0.0817
       8    C4      19.598194   18.485263   23.176187 C.3        1 MOL1        -0.1849
       9    H3      18.806095   19.184421   23.477013 H          1 MOL1         0.0736
      10    H4      19.838650   17.893697   24.069629 H          1 MOL1         0.0736
      11    C5      19.065661   17.539342   22.077639 C.3        1 MOL1        -0.1866
      12    H5      19.858233   16.841314   21.774249 H          1 MOL1         0.0738
      13    H6      18.252274   16.928947   22.493594 H          1 MOL1         0.0738
      14    C6      18.541426   18.300576   20.841301 C.3        1 MOL1        -0.2879
      15    H7      19.344146   18.873326   20.358962 H          1 MOL1         0.0750
      16    H8      18.135937   17.600040   20.099887 H          1 MOL1         0.0750
      17    H9      17.742131   18.999378   21.120396 H          1 MOL1         0.0750
@<TRIPOS>BOND
    1     1     2    1
    2     1     3    2
    3     1     4    1
    4     4     5    1
    5     4     6    2
    6     6     7    1
    7     6     8    1
    8     8     9    1
    9     8    10    1
   10     8    11    1
   11    11    12    1
   12    11    13    1
   13    11    14    1
   14    14    15    1
   15    14    16    1
   16    14    17    1
@<TRIPOS>SUBSTRUCTURE
       1 MOL1            1 RESIDUE      1      MOL     
@<SCITEGIC>MOL_PROPERTY
VConf Rank
SciTegic.value.IntegerValue
448

@<SCITEGIC>MOL_PROPERTY
Conf_Id
SciTegic.value.IntegerValue
45

@<SCITEGIC>MOL_PROPERTY
Delta U+W
SciTegic.value.DoubleValue
0.562

@<SCITEGIC>MOL_PROPERTY
U+W
SciTegic.value.DoubleValue
-52.846

@<SCITEGIC>MOL_PROPERTY
Grad RMS
SciTegic.value.DoubleValue
0.000000

@<SCITEGIC>MOL_PROPERTY
U
SciTegic.value.DoubleValue
10.243

@<SCITEGIC>MOL_PROPERTY
W
SciTegic.value.DoubleValue
-63.089

@<SCITEGIC>MOL_PROPERTY
W(PB)
SciTegic.value.DoubleValue
-65.116

@<SCITEGIC>MOL_PROPERTY
W(SA)
SciTegic.value.DoubleValue
2.026

@<SCITEGIC>MOL_PROPERTY
Valence
SciTegic.value.DoubleValue
2.822

@<SCITEGIC>MOL_PROPERTY
Coulomb
SciTegic.value.DoubleValue
6.637

@<SCITEGIC>MOL_PROPERTY
VdW
SciTegic.value.DoubleValue
0.785

@<SCITEGIC>MOL_PROPERTY
VdW6
SciTegic.value.DoubleValue
-5.216

@<SCITEGIC>MOL_PROPERTY
VdW12
SciTegic.value.DoubleValue
6.001

@<SCITEGIC>MOL_PROPERTY
Bond
SciTegic.value.DoubleValue
0.080

@<SCITEGIC>MOL_PROPERTY
Angle
SciTegic.value.DoubleValue
2.678

@<SCITEGIC>MOL_PROPERTY
Pdih
SciTegic.value.DoubleValue
0.064

@<SCITEGIC>MOL_PROPERTY
Idih
SciTegic.value.DoubleValue
0.000

@<SCITEGIC>MOL_PROPERTY
Tether
SciTegic.value.DoubleValue
0.000

@<TRIPOS>MOLECULE
guest-s19_confgen4.mol2 : confsearch ligand conformer 449
          17          16           1
SMALL
USER_CHARGES
 
@<TRIPOS>ATOM
       1    C1      22.457713   20.779485   20.318996 C.2        1 MOL1         0.6173
       2    O1      23.525319   20.365931   19.910471 O.co2      1 MOL1        -0.6755
       3    O2      22.199661   21.965013   20.410257 O.co2      1 MOL1        -0.6755
       4    C2      21.437297   19.772469   20.717533 C.2        1 MOL1        -0.1504
       5    H1      21.731678   18.730853   20.611308 H          1 MOL1         0.0814
       6    C3      20.210023   20.089075   21.189384 C.2        1 MOL1        -0.1394
       7    H2      19.905609   21.129465   21.302055 H          1 MOL1         0.0817
       8    C4      19.178801   19.058711   21.594561 C.3        1 MOL1        -0.1849
       9    H3      19.207837   18.206018   20.902549 H          1 MOL1         0.0736
      10    H4      18.173245   19.493022   21.513213 H          1 MOL1         0.0736
      11    C5      19.413189   18.566379   23.037366 C.3        1 MOL1        -0.1866
      12    H5      20.417374   18.127700   23.119426 H          1 MOL1         0.0738
      13    H6      19.381657   19.420687   23.727824 H          1 MOL1         0.0738
      14    C6      18.360405   17.522645   23.461383 C.3        1 MOL1        -0.2879
      15    H7      17.348202   17.945820   23.418965 H          1 MOL1         0.0750
      16    H8      18.392335   16.643325   22.804714 H          1 MOL1         0.0750
      17    H9      18.543405   17.184438   24.489613 H          1 MOL1         0.0750
@<TRIPOS>BOND
    1     1     2    1
    2     1     3    2
    3     1     4    1
    4     4     5    1
    5     4     6    2
    6     6     7    1
    7     6     8    1
    8     8     9    1
    9     8    10    1
   10     8    11    1
   11    11    12    1
   12    11    13    1
   13    11    14    1
   14    14    15    1
   15    14    16    1
   16    14    17    1
@<TRIPOS>SUBSTRUCTURE
       1 MOL1            1 RESIDUE      1      MOL     
@<SCITEGIC>MOL_PROPERTY
VConf Rank
SciTegic.value.IntegerValue
449

@<SCITEGIC>MOL_PROPERTY
Conf_Id
SciTegic.value.IntegerValue
36

@<SCITEGIC>MOL_PROPERTY
Delta U+W
SciTegic.value.DoubleValue
0.000

@<SCITEGIC>MOL_PROPERTY
U+W
SciTegic.value.DoubleValue
-53.409

@<SCITEGIC>MOL_PROPERTY
Grad RMS
SciTegic.value.DoubleValue
0.000000

@<SCITEGIC>MOL_PROPERTY
U
SciTegic.value.DoubleValue
9.048

@<SCITEGIC>MOL_PROPERTY
W
SciTegic.value.DoubleValue
-62.457

@<SCITEGIC>MOL_PROPERTY
W(PB)
SciTegic.value.DoubleValue
-64.540

@<SCITEGIC>MOL_PROPERTY
W(SA)
SciTegic.value.DoubleValue
2.084

@<SCITEGIC>MOL_PROPERTY
Valence
SciTegic.value.DoubleValue
2.652

@<SCITEGIC>MOL_PROPERTY
Coulomb
SciTegic.value.DoubleValue
5.578

@<SCITEGIC>MOL_PROPERTY
VdW
SciTegic.value.DoubleValue
0.818

@<SCITEGIC>MOL_PROPERTY
VdW6
SciTegic.value.DoubleValue
-4.534

@<SCITEGIC>MOL_PROPERTY
VdW12
SciTegic.value.DoubleValue
5.352

@<SCITEGIC>MOL_PROPERTY
Bond
SciTegic.value.DoubleValue
0.063

@<SCITEGIC>MOL_PROPERTY
Angle
SciTegic.value.DoubleValue
2.579

@<SCITEGIC>MOL_PROPERTY
Pdih
SciTegic.value.DoubleValue
0.010

@<SCITEGIC>MOL_PROPERTY
Idih
SciTegic.value.DoubleValue
0.000

@<SCITEGIC>MOL_PROPERTY
Tether
SciTegic.value.DoubleValue
0.000

@<TRIPOS>MOLECULE
guest-s19_confgen4.mol2 : confsearch ligand conformer 450
          17          16           1
SMALL
USER_CHARGES
 
@<TRIPOS>ATOM
       1    C1      22.794820   19.170406   23.821276 C.2        1 MOL1         0.6173
       2    O1      23.689328   18.676479   23.160757 O.co2      1 MOL1        -0.6755
       3    O2      22.908267   19.417234   25.006144 O.co2      1 MOL1        -0.6755
       4    C2      21.496223   19.496857   23.172247 C.2        1 MOL1        -0.1504
       5    H1      20.739761   19.936046   23.818610 H          1 MOL1         0.0814
       6    C3      21.230444   19.275739   21.864747 C.2        1 MOL1        -0.1394
       7    H2      21.980350   18.834197   21.208656 H          1 MOL1         0.0817
       8    C4      19.906331   19.608973   21.212889 C.3        1 MOL1        -0.1849
       9    H3      20.055613   19.765715   20.136073 H          1 MOL1         0.0736
      10    H4      19.516987   20.554135   21.615241 H          1 MOL1         0.0736
      11    C5      18.873230   18.484919   21.432483 C.3        1 MOL1        -0.1866
      12    H5      19.263986   17.541139   21.027322 H          1 MOL1         0.0738
      13    H6      18.719633   18.329600   22.509443 H          1 MOL1         0.0738
      14    C6      17.523450   18.812846   20.763091 C.3        1 MOL1        -0.2879
      15    H7      17.643317   18.941997   19.679402 H          1 MOL1         0.0750
      16    H8      16.802008   18.002409   20.929952 H          1 MOL1         0.0750
      17    H9      17.095744   19.737043   21.173411 H          1 MOL1         0.0750
@<TRIPOS>BOND
    1     1     2    1
    2     1     3    2
    3     1     4    1
    4     4     5    1
    5     4     6    2
    6     6     7    1
    7     6     8    1
    8     8     9    1
    9     8    10    1
   10     8    11    1
   11    11    12    1
   12    11    13    1
   13    11    14    1
   14    14    15    1
   15    14    16    1
   16    14    17    1
@<TRIPOS>SUBSTRUCTURE
       1 MOL1            1 RESIDUE      1      MOL     
@<SCITEGIC>MOL_PROPERTY
VConf Rank
SciTegic.value.IntegerValue
450

@<SCITEGIC>MOL_PROPERTY
Conf_Id
SciTegic.value.IntegerValue
1

@<SCITEGIC>MOL_PROPERTY
Delta U+W
SciTegic.value.DoubleValue
0.030

@<SCITEGIC>MOL_PROPERTY
U+W
SciTegic.value.DoubleValue
-53.378

@<SCITEGIC>MOL_PROPERTY
Grad RMS
SciTegic.value.DoubleValue
0.000000

@<SCITEGIC>MOL_PROPERTY
U
SciTegic.value.DoubleValue
9.048

@<SCITEGIC>MOL_PROPERTY
W
SciTegic.value.DoubleValue
-62.426

@<SCITEGIC>MOL_PROPERTY
W(PB)
SciTegic.value.DoubleValue
-64.506

@<SCITEGIC>MOL_PROPERTY
W(SA)
SciTegic.value.DoubleValue
2.080

@<SCITEGIC>MOL_PROPERTY
Valence
SciTegic.value.DoubleValue
2.652

@<SCITEGIC>MOL_PROPERTY
Coulomb
SciTegic.value.DoubleValue
5.578

@<SCITEGIC>MOL_PROPERTY
VdW
SciTegic.value.DoubleValue
0.818

@<SCITEGIC>MOL_PROPERTY
VdW6
SciTegic.value.DoubleValue
-4.535

@<SCITEGIC>MOL_PROPERTY
VdW12
SciTegic.value.DoubleValue
5.352

@<SCITEGIC>MOL_PROPERTY
Bond
SciTegic.value.DoubleValue
0.063

@<SCITEGIC>MOL_PROPERTY
Angle
SciTegic.value.DoubleValue
2.579

@<SCITEGIC>MOL_PROPERTY
Pdih
SciTegic.value.DoubleValue
0.010

@<SCITEGIC>MOL_PROPERTY
Idih
SciTegic.value.DoubleValue
0.000

@<SCITEGIC>MOL_PROPERTY
Tether
SciTegic.value.DoubleValue
0.000

@<TRIPOS>MOLECULE
guest-s19_confgen4.mol2 : confsearch ligand conformer 451
          17          16           1
SMALL
USER_CHARGES
 
@<TRIPOS>ATOM
       1    C1      19.827187   16.019825   22.277036 C.2        1 MOL1         0.6173
       2    O1      19.933138   15.706747   21.106054 O.co2      1 MOL1        -0.6755
       3    O2      19.962757   15.225542   23.187281 O.co2      1 MOL1        -0.6755
       4    C2      19.515021   17.429735   22.635918 C.2        1 MOL1        -0.1504
       5    H1      19.433159   17.641905   23.699423 H          1 MOL1         0.0814
       6    C3      19.339777   18.417238   21.728662 C.2        1 MOL1        -0.1394
       7    H2      19.422891   18.216449   20.660779 H          1 MOL1         0.0817
       8    C4      19.026060   19.850939   22.101618 C.3        1 MOL1        -0.1849
       9    H3      18.304754   19.866650   22.929868 H          1 MOL1         0.0736
      10    H4      18.535695   20.356686   21.258970 H          1 MOL1         0.0736
      11    C5      20.287858   20.640388   22.514167 C.3        1 MOL1        -0.1866
      12    H5      19.988116   21.634620   22.873069 H          1 MOL1         0.0738
      13    H6      20.780071   20.137376   23.358046 H          1 MOL1         0.0738
      14    C6      21.289303   20.804689   21.351057 C.3        1 MOL1        -0.2879
      15    H7      20.822078   21.317072   20.499994 H          1 MOL1         0.0750
      16    H8      22.156390   21.397800   21.669313 H          1 MOL1         0.0750
      17    H9      21.657302   19.830137   21.004579 H          1 MOL1         0.0750
@<TRIPOS>BOND
    1     1     2    1
    2     1     3    2
    3     1     4    1
    4     4     5    1
    5     4     6    2
    6     6     7    1
    7     6     8    1
    8     8     9    1
    9     8    10    1
   10     8    11    1
   11    11    12    1
   12    11    13    1
   13    11    14    1
   14    14    15    1
   15    14    16    1
   16    14    17    1
@<TRIPOS>SUBSTRUCTURE
       1 MOL1            1 RESIDUE      1      MOL     
@<SCITEGIC>MOL_PROPERTY
VConf Rank
SciTegic.value.IntegerValue
451

@<SCITEGIC>MOL_PROPERTY
Conf_Id
SciTegic.value.IntegerValue
3

@<SCITEGIC>MOL_PROPERTY
Delta U+W
SciTegic.value.DoubleValue
0.531

@<SCITEGIC>MOL_PROPERTY
U+W
SciTegic.value.DoubleValue
-52.878

@<SCITEGIC>MOL_PROPERTY
Grad RMS
SciTegic.value.DoubleValue
0.000000

@<SCITEGIC>MOL_PROPERTY
U
SciTegic.value.DoubleValue
10.067

@<SCITEGIC>MOL_PROPERTY
W
SciTegic.value.DoubleValue
-62.945

@<SCITEGIC>MOL_PROPERTY
W(PB)
SciTegic.value.DoubleValue
-64.982

@<SCITEGIC>MOL_PROPERTY
W(SA)
SciTegic.value.DoubleValue
2.037

@<SCITEGIC>MOL_PROPERTY
Valence
SciTegic.value.DoubleValue
2.779

@<SCITEGIC>MOL_PROPERTY
Coulomb
SciTegic.value.DoubleValue
6.474

@<SCITEGIC>MOL_PROPERTY
VdW
SciTegic.value.DoubleValue
0.815

@<SCITEGIC>MOL_PROPERTY
VdW6
SciTegic.value.DoubleValue
-5.088

@<SCITEGIC>MOL_PROPERTY
VdW12
SciTegic.value.DoubleValue
5.902

@<SCITEGIC>MOL_PROPERTY
Bond
SciTegic.value.DoubleValue
0.078

@<SCITEGIC>MOL_PROPERTY
Angle
SciTegic.value.DoubleValue
2.651

@<SCITEGIC>MOL_PROPERTY
Pdih
SciTegic.value.DoubleValue
0.050

@<SCITEGIC>MOL_PROPERTY
Idih
SciTegic.value.DoubleValue
0.000

@<SCITEGIC>MOL_PROPERTY
Tether
SciTegic.value.DoubleValue
0.000

@<TRIPOS>MOLECULE
guest-s19_confgen4.mol2 : confsearch ligand conformer 452
          17          16           1
SMALL
USER_CHARGES
 
@<TRIPOS>ATOM
       1    C1      17.967860   20.562895   23.791267 C.2        1 MOL1         0.6173
       2    O1      16.975236   21.183087   23.462879 O.co2      1 MOL1        -0.6755
       3    O2      18.523801   20.724945   24.861369 O.co2      1 MOL1        -0.6755
       4    C2      18.505538   19.565516   22.826792 C.2        1 MOL1        -0.1504
       5    H1      17.961141   19.470858   21.890107 H          1 MOL1         0.0814
       6    C3      19.601930   18.808071   23.058706 C.2        1 MOL1        -0.1394
       7    H2      20.155399   18.899197   23.992990 H          1 MOL1         0.0817
       8    C4      20.148494   17.795477   22.073689 C.3        1 MOL1        -0.1849
       9    H3      19.391416   17.543155   21.318767 H          1 MOL1         0.0736
      10    H4      20.371393   16.861428   22.606489 H          1 MOL1         0.0736
      11    C5      21.432976   18.292034   21.374616 C.3        1 MOL1        -0.1866
      12    H5      22.189937   18.547174   22.129185 H          1 MOL1         0.0738
      13    H6      21.852811   17.474041   20.773098 H          1 MOL1         0.0738
      14    C6      21.178813   19.509447   20.460210 C.3        1 MOL1        -0.2879
      15    H7      20.818334   20.370445   21.037955 H          1 MOL1         0.0750
      16    H8      22.103756   19.809640   19.951064 H          1 MOL1         0.0750
      17    H9      20.430043   19.274311   19.692650 H          1 MOL1         0.0750
@<TRIPOS>BOND
    1     1     2    1
    2     1     3    2
    3     1     4    1
    4     4     5    1
    5     4     6    2
    6     6     7    1
    7     6     8    1
    8     8     9    1
    9     8    10    1
   10     8    11    1
   11    11    12    1
   12    11    13    1
   13    11    14    1
   14    14    15    1
   15    14    16    1
   16    14    17    1
@<TRIPOS>SUBSTRUCTURE
       1 MOL1            1 RESIDUE      1      MOL     
@<SCITEGIC>MOL_PROPERTY
VConf Rank
SciTegic.value.IntegerValue
452

@<SCITEGIC>MOL_PROPERTY
Conf_Id
SciTegic.value.IntegerValue
45

@<SCITEGIC>MOL_PROPERTY
Delta U+W
SciTegic.value.DoubleValue
0.562

@<SCITEGIC>MOL_PROPERTY
U+W
SciTegic.value.DoubleValue
-52.846

@<SCITEGIC>MOL_PROPERTY
Grad RMS
SciTegic.value.DoubleValue
0.000000

@<SCITEGIC>MOL_PROPERTY
U
SciTegic.value.DoubleValue
10.243

@<SCITEGIC>MOL_PROPERTY
W
SciTegic.value.DoubleValue
-63.089

@<SCITEGIC>MOL_PROPERTY
W(PB)
SciTegic.value.DoubleValue
-65.116

@<SCITEGIC>MOL_PROPERTY
W(SA)
SciTegic.value.DoubleValue
2.026

@<SCITEGIC>MOL_PROPERTY
Valence
SciTegic.value.DoubleValue
2.822

@<SCITEGIC>MOL_PROPERTY
Coulomb
SciTegic.value.DoubleValue
6.637

@<SCITEGIC>MOL_PROPERTY
VdW
SciTegic.value.DoubleValue
0.785

@<SCITEGIC>MOL_PROPERTY
VdW6
SciTegic.value.DoubleValue
-5.216

@<SCITEGIC>MOL_PROPERTY
VdW12
SciTegic.value.DoubleValue
6.001

@<SCITEGIC>MOL_PROPERTY
Bond
SciTegic.value.DoubleValue
0.080

@<SCITEGIC>MOL_PROPERTY
Angle
SciTegic.value.DoubleValue
2.678

@<SCITEGIC>MOL_PROPERTY
Pdih
SciTegic.value.DoubleValue
0.064

@<SCITEGIC>MOL_PROPERTY
Idih
SciTegic.value.DoubleValue
0.000

@<SCITEGIC>MOL_PROPERTY
Tether
SciTegic.value.DoubleValue
0.000

@<TRIPOS>MOLECULE
guest-s19_confgen4.mol2 : confsearch ligand conformer 453
          17          16           1
SMALL
USER_CHARGES
 
@<TRIPOS>ATOM
       1    C1      19.270406   17.966492   25.000627 C.2        1 MOL1         0.6173
       2    O1      20.018621   17.736031   25.930554 O.co2      1 MOL1        -0.6755
       3    O2      18.113687   17.590047   24.974450 O.co2      1 MOL1        -0.6755
       4    C2      19.815602   18.746066   23.856429 C.2        1 MOL1        -0.1504
       5    H1      20.855767   19.051761   23.943133 H          1 MOL1         0.0814
       6    C3      19.098413   19.073455   22.757547 C.2        1 MOL1        -0.1394
       7    H2      18.056211   18.770248   22.659295 H          1 MOL1         0.0817
       8    C4      19.661146   19.864778   21.597213 C.3        1 MOL1        -0.1849
       9    H3      20.331732   20.651404   21.969159 H          1 MOL1         0.0736
      10    H4      18.844126   20.374645   21.069101 H          1 MOL1         0.0736
      11    C5      20.422902   18.953936   20.612779 C.3        1 MOL1        -0.1866
      12    H5      21.243388   18.446214   21.138688 H          1 MOL1         0.0738
      13    H6      19.749596   18.169262   20.240604 H          1 MOL1         0.0738
      14    C6      20.991664   19.751600   19.422079 C.3        1 MOL1        -0.2879
      15    H7      20.187923   20.244158   18.859212 H          1 MOL1         0.0750
      16    H8      21.692815   20.523565   19.765435 H          1 MOL1         0.0750
      17    H9      21.529750   19.087374   18.733314 H          1 MOL1         0.0750
@<TRIPOS>BOND
    1     1     2    1
    2     1     3    2
    3     1     4    1
    4     4     5    1
    5     4     6    2
    6     6     7    1
    7     6     8    1
    8     8     9    1
    9     8    10    1
   10     8    11    1
   11    11    12    1
   12    11    13    1
   13    11    14    1
   14    14    15    1
   15    14    16    1
   16    14    17    1
@<TRIPOS>SUBSTRUCTURE
       1 MOL1            1 RESIDUE      1      MOL     
@<SCITEGIC>MOL_PROPERTY
VConf Rank
SciTegic.value.IntegerValue
453

@<SCITEGIC>MOL_PROPERTY
Conf_Id
SciTegic.value.IntegerValue
36

@<SCITEGIC>MOL_PROPERTY
Delta U+W
SciTegic.value.DoubleValue
0.000

@<SCITEGIC>MOL_PROPERTY
U+W
SciTegic.value.DoubleValue
-53.409

@<SCITEGIC>MOL_PROPERTY
Grad RMS
SciTegic.value.DoubleValue
0.000000

@<SCITEGIC>MOL_PROPERTY
U
SciTegic.value.DoubleValue
9.048

@<SCITEGIC>MOL_PROPERTY
W
SciTegic.value.DoubleValue
-62.457

@<SCITEGIC>MOL_PROPERTY
W(PB)
SciTegic.value.DoubleValue
-64.540

@<SCITEGIC>MOL_PROPERTY
W(SA)
SciTegic.value.DoubleValue
2.084

@<SCITEGIC>MOL_PROPERTY
Valence
SciTegic.value.DoubleValue
2.652

@<SCITEGIC>MOL_PROPERTY
Coulomb
SciTegic.value.DoubleValue
5.578

@<SCITEGIC>MOL_PROPERTY
VdW
SciTegic.value.DoubleValue
0.818

@<SCITEGIC>MOL_PROPERTY
VdW6
SciTegic.value.DoubleValue
-4.534

@<SCITEGIC>MOL_PROPERTY
VdW12
SciTegic.value.DoubleValue
5.352

@<SCITEGIC>MOL_PROPERTY
Bond
SciTegic.value.DoubleValue
0.063

@<SCITEGIC>MOL_PROPERTY
Angle
SciTegic.value.DoubleValue
2.579

@<SCITEGIC>MOL_PROPERTY
Pdih
SciTegic.value.DoubleValue
0.010

@<SCITEGIC>MOL_PROPERTY
Idih
SciTegic.value.DoubleValue
0.000

@<SCITEGIC>MOL_PROPERTY
Tether
SciTegic.value.DoubleValue
0.000

@<TRIPOS>MOLECULE
guest-s19_confgen4.mol2 : confsearch ligand conformer 454
          17          16           1
SMALL
USER_CHARGES
 
@<TRIPOS>ATOM
       1    C1      17.906920   17.966557   24.294361 C.2        1 MOL1         0.6173
       2    O1      16.944050   17.495482   23.718720 O.co2      1 MOL1        -0.6755
       3    O2      17.930502   18.156116   25.494868 O.co2      1 MOL1        -0.6755
       4    C2      19.121187   18.333341   23.516422 C.2        1 MOL1        -0.1504
       5    H1      19.945593   18.748916   24.091366 H          1 MOL1         0.0814
       6    C3      19.233876   18.178516   22.177610 C.2        1 MOL1        -0.1394
       7    H2      18.413240   17.765182   21.591534 H          1 MOL1         0.0817
       8    C4      20.471773   18.555857   21.393732 C.3        1 MOL1        -0.1849
       9    H3      20.516919   17.963456   20.469930 H          1 MOL1         0.0736
      10    H4      21.372473   18.304721   21.970339 H          1 MOL1         0.0736
      11    C5      20.479435   20.058156   21.044365 C.3        1 MOL1        -0.1866
      12    H5      19.578741   20.306433   20.465854 H          1 MOL1         0.0738
      13    H6      20.438438   20.652380   21.967824 H          1 MOL1         0.0738
      14    C6      21.733712   20.449057   20.237202 C.3        1 MOL1        -0.2879
      15    H7      21.782649   19.891659   19.292563 H          1 MOL1         0.0750
      16    H8      21.721418   21.520429   19.998157 H          1 MOL1         0.0750
      17    H9      22.648565   20.239475   20.806899 H          1 MOL1         0.0750
@<TRIPOS>BOND
    1     1     2    1
    2     1     3    2
    3     1     4    1
    4     4     5    1
    5     4     6    2
    6     6     7    1
    7     6     8    1
    8     8     9    1
    9     8    10    1
   10     8    11    1
   11    11    12    1
   12    11    13    1
   13    11    14    1
   14    14    15    1
   15    14    16    1
   16    14    17    1
@<TRIPOS>SUBSTRUCTURE
       1 MOL1            1 RESIDUE      1      MOL     
@<SCITEGIC>MOL_PROPERTY
VConf Rank
SciTegic.value.IntegerValue
454

@<SCITEGIC>MOL_PROPERTY
Conf_Id
SciTegic.value.IntegerValue
1

@<SCITEGIC>MOL_PROPERTY
Delta U+W
SciTegic.value.DoubleValue
0.030

@<SCITEGIC>MOL_PROPERTY
U+W
SciTegic.value.DoubleValue
-53.378

@<SCITEGIC>MOL_PROPERTY
Grad RMS
SciTegic.value.DoubleValue
0.000000

@<SCITEGIC>MOL_PROPERTY
U
SciTegic.value.DoubleValue
9.048

@<SCITEGIC>MOL_PROPERTY
W
SciTegic.value.DoubleValue
-62.426

@<SCITEGIC>MOL_PROPERTY
W(PB)
SciTegic.value.DoubleValue
-64.506

@<SCITEGIC>MOL_PROPERTY
W(SA)
SciTegic.value.DoubleValue
2.080

@<SCITEGIC>MOL_PROPERTY
Valence
SciTegic.value.DoubleValue
2.652

@<SCITEGIC>MOL_PROPERTY
Coulomb
SciTegic.value.DoubleValue
5.578

@<SCITEGIC>MOL_PROPERTY
VdW
SciTegic.value.DoubleValue
0.818

@<SCITEGIC>MOL_PROPERTY
VdW6
SciTegic.value.DoubleValue
-4.535

@<SCITEGIC>MOL_PROPERTY
VdW12
SciTegic.value.DoubleValue
5.352

@<SCITEGIC>MOL_PROPERTY
Bond
SciTegic.value.DoubleValue
0.063

@<SCITEGIC>MOL_PROPERTY
Angle
SciTegic.value.DoubleValue
2.579

@<SCITEGIC>MOL_PROPERTY
Pdih
SciTegic.value.DoubleValue
0.010

@<SCITEGIC>MOL_PROPERTY
Idih
SciTegic.value.DoubleValue
0.000

@<SCITEGIC>MOL_PROPERTY
Tether
SciTegic.value.DoubleValue
0.000

@<TRIPOS>MOLECULE
guest-s19_confgen4.mol2 : confsearch ligand conformer 455
          17          16           1
SMALL
USER_CHARGES
 
@<TRIPOS>ATOM
       1    C1      22.860125   17.926823   21.792900 C.2        1 MOL1         0.6173
       2    O1      22.692594   17.136954   20.882691 O.co2      1 MOL1        -0.6755
       3    O2      23.961663   18.289268   22.157672 O.co2      1 MOL1        -0.6755
       4    C2      21.680984   18.484923   22.508611 C.2        1 MOL1        -0.1504
       5    H1      21.900583   19.184266   23.312014 H          1 MOL1         0.0814
       6    C3      20.399898   18.171819   22.208992 C.2        1 MOL1        -0.1394
       7    H2      20.168419   17.474915   21.403796 H          1 MOL1         0.0817
       8    C4      19.204582   18.746910   22.939405 C.3        1 MOL1        -0.1849
       9    H3      19.417555   18.791936   24.016040 H          1 MOL1         0.0736
      10    H4      18.340955   18.077914   22.825883 H          1 MOL1         0.0736
      11    C5      18.832989   20.159510   22.437367 C.3        1 MOL1        -0.1866
      12    H5      18.032306   20.566493   23.070159 H          1 MOL1         0.0738
      13    H6      19.694890   20.831578   22.550851 H          1 MOL1         0.0738
      14    C6      18.363396   20.160059   20.966927 C.3        1 MOL1        -0.2879
      15    H7      17.493696   19.503846   20.832192 H          1 MOL1         0.0750
      16    H8      18.076019   21.172190   20.654017 H          1 MOL1         0.0750
      17    H9      19.160902   19.814396   20.296314 H          1 MOL1         0.0750
@<TRIPOS>BOND
    1     1     2    1
    2     1     3    2
    3     1     4    1
    4     4     5    1
    5     4     6    2
    6     6     7    1
    7     6     8    1
    8     8     9    1
    9     8    10    1
   10     8    11    1
   11    11    12    1
   12    11    13    1
   13    11    14    1
   14    14    15    1
   15    14    16    1
   16    14    17    1
@<TRIPOS>SUBSTRUCTURE
       1 MOL1            1 RESIDUE      1      MOL     
@<SCITEGIC>MOL_PROPERTY
VConf Rank
SciTegic.value.IntegerValue
455

@<SCITEGIC>MOL_PROPERTY
Conf_Id
SciTegic.value.IntegerValue
3

@<SCITEGIC>MOL_PROPERTY
Delta U+W
SciTegic.value.DoubleValue
0.531

@<SCITEGIC>MOL_PROPERTY
U+W
SciTegic.value.DoubleValue
-52.878

@<SCITEGIC>MOL_PROPERTY
Grad RMS
SciTegic.value.DoubleValue
0.000000

@<SCITEGIC>MOL_PROPERTY
U
SciTegic.value.DoubleValue
10.067

@<SCITEGIC>MOL_PROPERTY
W
SciTegic.value.DoubleValue
-62.945

@<SCITEGIC>MOL_PROPERTY
W(PB)
SciTegic.value.DoubleValue
-64.982

@<SCITEGIC>MOL_PROPERTY
W(SA)
SciTegic.value.DoubleValue
2.037

@<SCITEGIC>MOL_PROPERTY
Valence
SciTegic.value.DoubleValue
2.779

@<SCITEGIC>MOL_PROPERTY
Coulomb
SciTegic.value.DoubleValue
6.474

@<SCITEGIC>MOL_PROPERTY
VdW
SciTegic.value.DoubleValue
0.815

@<SCITEGIC>MOL_PROPERTY
VdW6
SciTegic.value.DoubleValue
-5.088

@<SCITEGIC>MOL_PROPERTY
VdW12
SciTegic.value.DoubleValue
5.902

@<SCITEGIC>MOL_PROPERTY
Bond
SciTegic.value.DoubleValue
0.078

@<SCITEGIC>MOL_PROPERTY
Angle
SciTegic.value.DoubleValue
2.651

@<SCITEGIC>MOL_PROPERTY
Pdih
SciTegic.value.DoubleValue
0.050

@<SCITEGIC>MOL_PROPERTY
Idih
SciTegic.value.DoubleValue
0.000

@<SCITEGIC>MOL_PROPERTY
Tether
SciTegic.value.DoubleValue
0.000

@<TRIPOS>MOLECULE
guest-s19_confgen4.mol2 : confsearch ligand conformer 456
          17          16           1
SMALL
USER_CHARGES
 
@<TRIPOS>ATOM
       1    C1      22.928713   18.692430   21.586798 C.2        1 MOL1         0.6173
       2    O1      23.514299   18.437701   20.552398 O.co2      1 MOL1        -0.6755
       3    O2      23.404831   18.476642   22.685523 O.co2      1 MOL1        -0.6755
       4    C2      21.573373   19.296898   21.478438 C.2        1 MOL1        -0.1504
       5    H1      21.208074   19.463127   20.467681 H          1 MOL1         0.0814
       6    C3      20.808822   19.628606   22.543810 C.2        1 MOL1        -0.1394
       7    H2      21.165641   19.462049   23.559909 H          1 MOL1         0.0817
       8    C4      19.428230   20.241311   22.430256 C.3        1 MOL1        -0.1849
       9    H3      19.269781   20.653141   21.424259 H          1 MOL1         0.0736
      10    H4      19.354961   21.090501   23.122728 H          1 MOL1         0.0736
      11    C5      18.308939   19.229182   22.758812 C.3        1 MOL1        -0.1866
      12    H5      18.468162   18.814748   23.763974 H          1 MOL1         0.0738
      13    H6      17.345420   19.756532   22.785848 H          1 MOL1         0.0738
      14    C6      18.225305   18.081410   21.730000 C.3        1 MOL1        -0.2879
      15    H7      19.149972   17.489842   21.720410 H          1 MOL1         0.0750
      16    H8      17.395797   17.404842   21.972981 H          1 MOL1         0.0750
      17    H9      18.058560   18.472762   20.718005 H          1 MOL1         0.0750
@<TRIPOS>BOND
    1     1     2    1
    2     1     3    2
    3     1     4    1
    4     4     5    1
    5     4     6    2
    6     6     7    1
    7     6     8    1
    8     8     9    1
    9     8    10    1
   10     8    11    1
   11    11    12    1
   12    11    13    1
   13    11    14    1
   14    14    15    1
   15    14    16    1
   16    14    17    1
@<TRIPOS>SUBSTRUCTURE
       1 MOL1            1 RESIDUE      1      MOL     
@<SCITEGIC>MOL_PROPERTY
VConf Rank
SciTegic.value.IntegerValue
456

@<SCITEGIC>MOL_PROPERTY
Conf_Id
SciTegic.value.IntegerValue
45

@<SCITEGIC>MOL_PROPERTY
Delta U+W
SciTegic.value.DoubleValue
0.562

@<SCITEGIC>MOL_PROPERTY
U+W
SciTegic.value.DoubleValue
-52.846

@<SCITEGIC>MOL_PROPERTY
Grad RMS
SciTegic.value.DoubleValue
0.000000

@<SCITEGIC>MOL_PROPERTY
U
SciTegic.value.DoubleValue
10.243

@<SCITEGIC>MOL_PROPERTY
W
SciTegic.value.DoubleValue
-63.089

@<SCITEGIC>MOL_PROPERTY
W(PB)
SciTegic.value.DoubleValue
-65.116

@<SCITEGIC>MOL_PROPERTY
W(SA)
SciTegic.value.DoubleValue
2.026

@<SCITEGIC>MOL_PROPERTY
Valence
SciTegic.value.DoubleValue
2.822

@<SCITEGIC>MOL_PROPERTY
Coulomb
SciTegic.value.DoubleValue
6.637

@<SCITEGIC>MOL_PROPERTY
VdW
SciTegic.value.DoubleValue
0.785

@<SCITEGIC>MOL_PROPERTY
VdW6
SciTegic.value.DoubleValue
-5.216

@<SCITEGIC>MOL_PROPERTY
VdW12
SciTegic.value.DoubleValue
6.001

@<SCITEGIC>MOL_PROPERTY
Bond
SciTegic.value.DoubleValue
0.080

@<SCITEGIC>MOL_PROPERTY
Angle
SciTegic.value.DoubleValue
2.678

@<SCITEGIC>MOL_PROPERTY
Pdih
SciTegic.value.DoubleValue
0.064

@<SCITEGIC>MOL_PROPERTY
Idih
SciTegic.value.DoubleValue
0.000

@<SCITEGIC>MOL_PROPERTY
Tether
SciTegic.value.DoubleValue
0.000

@<TRIPOS>MOLECULE
guest-s19_confgen4.mol2 : confsearch ligand conformer 457
          17          16           1
SMALL
USER_CHARGES
 
@<TRIPOS>ATOM
       1    C1      19.432568   20.830976   19.062467 C.2        1 MOL1         0.6173
       2    O1      19.285389   22.026597   18.899577 O.co2      1 MOL1        -0.6755
       3    O2      19.169443   20.009952   18.203934 O.co2      1 MOL1        -0.6755
       4    C2      19.960347   20.376053   20.377251 C.2        1 MOL1        -0.1504
       5    H1      20.174973   21.160325   21.099581 H          1 MOL1         0.0814
       6    C3      20.172339   19.079024   20.696405 C.2        1 MOL1        -0.1394
       7    H2      19.958478   18.285065   19.981097 H          1 MOL1         0.0817
       8    C4      20.707360   18.624632   22.036748 C.3        1 MOL1        -0.1849
       9    H3      21.475984   19.324867   22.391288 H          1 MOL1         0.0736
      10    H4      21.200711   17.649751   21.924509 H          1 MOL1         0.0736
      11    C5      19.580158   18.515135   23.083859 C.3        1 MOL1        -0.1866
      12    H5      19.088224   19.490825   23.200436 H          1 MOL1         0.0738
      13    H6      18.813674   17.812719   22.727935 H          1 MOL1         0.0738
      14    C6      20.115903   18.043360   24.450582 C.3        1 MOL1        -0.2879
      15    H7      20.585346   17.054260   24.368510 H          1 MOL1         0.0750
      16    H8      20.862563   18.745847   24.843580 H          1 MOL1         0.0750
      17    H9      19.300292   17.971648   25.181859 H          1 MOL1         0.0750
@<TRIPOS>BOND
    1     1     2    1
    2     1     3    2
    3     1     4    1
    4     4     5    1
    5     4     6    2
    6     6     7    1
    7     6     8    1
    8     8     9    1
    9     8    10    1
   10     8    11    1
   11    11    12    1
   12    11    13    1
   13    11    14    1
   14    14    15    1
   15    14    16    1
   16    14    17    1
@<TRIPOS>SUBSTRUCTURE
       1 MOL1            1 RESIDUE      1      MOL     
@<SCITEGIC>MOL_PROPERTY
VConf Rank
SciTegic.value.IntegerValue
457

@<SCITEGIC>MOL_PROPERTY
Conf_Id
SciTegic.value.IntegerValue
36

@<SCITEGIC>MOL_PROPERTY
Delta U+W
SciTegic.value.DoubleValue
0.000

@<SCITEGIC>MOL_PROPERTY
U+W
SciTegic.value.DoubleValue
-53.409

@<SCITEGIC>MOL_PROPERTY
Grad RMS
SciTegic.value.DoubleValue
0.000000

@<SCITEGIC>MOL_PROPERTY
U
SciTegic.value.DoubleValue
9.048

@<SCITEGIC>MOL_PROPERTY
W
SciTegic.value.DoubleValue
-62.457

@<SCITEGIC>MOL_PROPERTY
W(PB)
SciTegic.value.DoubleValue
-64.540

@<SCITEGIC>MOL_PROPERTY
W(SA)
SciTegic.value.DoubleValue
2.084

@<SCITEGIC>MOL_PROPERTY
Valence
SciTegic.value.DoubleValue
2.652

@<SCITEGIC>MOL_PROPERTY
Coulomb
SciTegic.value.DoubleValue
5.578

@<SCITEGIC>MOL_PROPERTY
VdW
SciTegic.value.DoubleValue
0.818

@<SCITEGIC>MOL_PROPERTY
VdW6
SciTegic.value.DoubleValue
-4.534

@<SCITEGIC>MOL_PROPERTY
VdW12
SciTegic.value.DoubleValue
5.352

@<SCITEGIC>MOL_PROPERTY
Bond
SciTegic.value.DoubleValue
0.063

@<SCITEGIC>MOL_PROPERTY
Angle
SciTegic.value.DoubleValue
2.579

@<SCITEGIC>MOL_PROPERTY
Pdih
SciTegic.value.DoubleValue
0.010

@<SCITEGIC>MOL_PROPERTY
Idih
SciTegic.value.DoubleValue
0.000

@<SCITEGIC>MOL_PROPERTY
Tether
SciTegic.value.DoubleValue
0.000

@<TRIPOS>MOLECULE
guest-s19_confgen4.mol2 : confsearch ligand conformer 458
          17          16           1
SMALL
USER_CHARGES
 
@<TRIPOS>ATOM
       1    C1      22.250804   20.204028   19.646286 C.2        1 MOL1         0.6173
       2    O1      23.319057   20.297173   20.221224 O.co2      1 MOL1        -0.6755
       3    O2      22.059465   20.651817   18.532472 O.co2      1 MOL1        -0.6755
       4    C2      21.114044   19.514864   20.314860 C.2        1 MOL1        -0.1504
       5    H1      20.188029   19.466196   19.746496 H          1 MOL1         0.0814
       6    C3      21.184137   18.971291   21.551266 C.2        1 MOL1        -0.1394
       7    H2      22.106313   19.016291   22.130352 H          1 MOL1         0.0817
       8    C4      20.022686   18.273710   22.224802 C.3        1 MOL1        -0.1849
       9    H3      20.403149   17.560252   22.968181 H          1 MOL1         0.0736
      10    H4      19.458910   17.685982   21.487551 H          1 MOL1         0.0736
      11    C5      19.082855   19.284480   22.913337 C.3        1 MOL1        -0.1866
      12    H5      19.648517   19.869582   23.651747 H          1 MOL1         0.0738
      13    H6      18.698044   19.996626   22.170149 H          1 MOL1         0.0738
      14    C6      17.901195   18.580528   23.610226 C.3        1 MOL1        -0.2879
      15    H7      18.257529   17.884975   24.381370 H          1 MOL1         0.0750
      16    H8      17.244241   19.315062   24.093963 H          1 MOL1         0.0750
      17    H9      17.300515   18.012874   22.887461 H          1 MOL1         0.0750
@<TRIPOS>BOND
    1     1     2    1
    2     1     3    2
    3     1     4    1
    4     4     5    1
    5     4     6    2
    6     6     7    1
    7     6     8    1
    8     8     9    1
    9     8    10    1
   10     8    11    1
   11    11    12    1
   12    11    13    1
   13    11    14    1
   14    14    15    1
   15    14    16    1
   16    14    17    1
@<TRIPOS>SUBSTRUCTURE
       1 MOL1            1 RESIDUE      1      MOL     
@<SCITEGIC>MOL_PROPERTY
VConf Rank
SciTegic.value.IntegerValue
458

@<SCITEGIC>MOL_PROPERTY
Conf_Id
SciTegic.value.IntegerValue
1

@<SCITEGIC>MOL_PROPERTY
Delta U+W
SciTegic.value.DoubleValue
0.030

@<SCITEGIC>MOL_PROPERTY
U+W
SciTegic.value.DoubleValue
-53.378

@<SCITEGIC>MOL_PROPERTY
Grad RMS
SciTegic.value.DoubleValue
0.000000

@<SCITEGIC>MOL_PROPERTY
U
SciTegic.value.DoubleValue
9.048

@<SCITEGIC>MOL_PROPERTY
W
SciTegic.value.DoubleValue
-62.426

@<SCITEGIC>MOL_PROPERTY
W(PB)
SciTegic.value.DoubleValue
-64.506

@<SCITEGIC>MOL_PROPERTY
W(SA)
SciTegic.value.DoubleValue
2.080

@<SCITEGIC>MOL_PROPERTY
Valence
SciTegic.value.DoubleValue
2.652

@<SCITEGIC>MOL_PROPERTY
Coulomb
SciTegic.value.DoubleValue
5.578

@<SCITEGIC>MOL_PROPERTY
VdW
SciTegic.value.DoubleValue
0.818

@<SCITEGIC>MOL_PROPERTY
VdW6
SciTegic.value.DoubleValue
-4.535

@<SCITEGIC>MOL_PROPERTY
VdW12
SciTegic.value.DoubleValue
5.352

@<SCITEGIC>MOL_PROPERTY
Bond
SciTegic.value.DoubleValue
0.063

@<SCITEGIC>MOL_PROPERTY
Angle
SciTegic.value.DoubleValue
2.579

@<SCITEGIC>MOL_PROPERTY
Pdih
SciTegic.value.DoubleValue
0.010

@<SCITEGIC>MOL_PROPERTY
Idih
SciTegic.value.DoubleValue
0.000

@<SCITEGIC>MOL_PROPERTY
Tether
SciTegic.value.DoubleValue
0.000

@<TRIPOS>MOLECULE
guest-s19_confgen4.mol2 : confsearch ligand conformer 459
          17          16           1
SMALL
USER_CHARGES
 
@<TRIPOS>ATOM
       1    C1      18.353683   19.145534   24.644888 C.2        1 MOL1         0.6173
       2    O1      18.131026   20.338258   24.735844 O.co2      1 MOL1        -0.6755
       3    O2      17.739825   18.309471   25.278913 O.co2      1 MOL1        -0.6755
       4    C2      19.421422   18.664713   23.726828 C.2        1 MOL1        -0.1504
       5    H1      19.569549   17.587809   23.693704 H          1 MOL1         0.0814
       6    C3      20.180963   19.480824   22.961291 C.2        1 MOL1        -0.1394
       7    H2      20.038704   20.561026   22.984169 H          1 MOL1         0.0817
       8    C4      21.263396   18.983843   22.026217 C.3        1 MOL1        -0.1849
       9    H3      21.821509   18.169907   22.508446 H          1 MOL1         0.0736
      10    H4      21.991028   19.784937   21.838884 H          1 MOL1         0.0736
      11    C5      20.693050   18.479695   20.682304 C.3        1 MOL1        -0.1866
      12    H5      21.505989   18.036604   20.090734 H          1 MOL1         0.0738
      13    H6      19.965486   17.677094   20.866453 H          1 MOL1         0.0738
      14    C6      20.028302   19.605878   19.862223 C.3        1 MOL1        -0.2879
      15    H7      20.741503   20.414354   19.655206 H          1 MOL1         0.0750
      16    H8      19.664772   19.220204   18.900969 H          1 MOL1         0.0750
      17    H9      19.171351   20.033649   20.398758 H          1 MOL1         0.0750
@<TRIPOS>BOND
    1     1     2    1
    2     1     3    2
    3     1     4    1
    4     4     5    1
    5     4     6    2
    6     6     7    1
    7     6     8    1
    8     8     9    1
    9     8    10    1
   10     8    11    1
   11    11    12    1
   12    11    13    1
   13    11    14    1
   14    14    15    1
   15    14    16    1
   16    14    17    1
@<TRIPOS>SUBSTRUCTURE
       1 MOL1            1 RESIDUE      1      MOL     
@<SCITEGIC>MOL_PROPERTY
VConf Rank
SciTegic.value.IntegerValue
459

@<SCITEGIC>MOL_PROPERTY
Conf_Id
SciTegic.value.IntegerValue
3

@<SCITEGIC>MOL_PROPERTY
Delta U+W
SciTegic.value.DoubleValue
0.531

@<SCITEGIC>MOL_PROPERTY
U+W
SciTegic.value.DoubleValue
-52.878

@<SCITEGIC>MOL_PROPERTY
Grad RMS
SciTegic.value.DoubleValue
0.000000

@<SCITEGIC>MOL_PROPERTY
U
SciTegic.value.DoubleValue
10.067

@<SCITEGIC>MOL_PROPERTY
W
SciTegic.value.DoubleValue
-62.945

@<SCITEGIC>MOL_PROPERTY
W(PB)
SciTegic.value.DoubleValue
-64.982

@<SCITEGIC>MOL_PROPERTY
W(SA)
SciTegic.value.DoubleValue
2.037

@<SCITEGIC>MOL_PROPERTY
Valence
SciTegic.value.DoubleValue
2.779

@<SCITEGIC>MOL_PROPERTY
Coulomb
SciTegic.value.DoubleValue
6.474

@<SCITEGIC>MOL_PROPERTY
VdW
SciTegic.value.DoubleValue
0.815

@<SCITEGIC>MOL_PROPERTY
VdW6
SciTegic.value.DoubleValue
-5.088

@<SCITEGIC>MOL_PROPERTY
VdW12
SciTegic.value.DoubleValue
5.902

@<SCITEGIC>MOL_PROPERTY
Bond
SciTegic.value.DoubleValue
0.078

@<SCITEGIC>MOL_PROPERTY
Angle
SciTegic.value.DoubleValue
2.651

@<SCITEGIC>MOL_PROPERTY
Pdih
SciTegic.value.DoubleValue
0.050

@<SCITEGIC>MOL_PROPERTY
Idih
SciTegic.value.DoubleValue
0.000

@<SCITEGIC>MOL_PROPERTY
Tether
SciTegic.value.DoubleValue
0.000

@<TRIPOS>MOLECULE
guest-s19_confgen4.mol2 : confsearch ligand conformer 460
          17          16           1
SMALL
USER_CHARGES
 
@<TRIPOS>ATOM
       1    C1      22.392706   17.906175   20.713300 C.2        1 MOL1         0.6173
       2    O1      22.519818   17.507486   19.571954 O.co2      1 MOL1        -0.6755
       3    O2      23.129228   17.562421   21.618737 O.co2      1 MOL1        -0.6755
       4    C2      21.282608   18.857783   20.989336 C.2        1 MOL1        -0.1504
       5    H1      20.662732   19.123141   20.136081 H          1 MOL1         0.0814
       6    C3      21.023012   19.379135   22.210150 C.2        1 MOL1        -0.1394
       7    H2      21.636848   19.115742   23.071166 H          1 MOL1         0.0817
       8    C4      19.890407   20.345581   22.488584 C.3        1 MOL1        -0.1849
       9    H3      19.523716   20.790830   21.553688 H          1 MOL1         0.0736
      10    H4      20.270917   21.178560   23.094692 H          1 MOL1         0.0736
      11    C5      18.718628   19.674956   23.238492 C.3        1 MOL1        -0.1866
      12    H5      19.085073   19.226995   24.172573 H          1 MOL1         0.0738
      13    H6      17.988865   20.444789   23.524851 H          1 MOL1         0.0738
      14    C6      18.007952   18.599419   22.389381 C.3        1 MOL1        -0.2879
      15    H7      18.691477   17.778289   22.137204 H          1 MOL1         0.0750
      16    H8      17.158445   18.173158   22.938477 H          1 MOL1         0.0750
      17    H9      17.626449   19.027262   21.453166 H          1 MOL1         0.0750
@<TRIPOS>BOND
    1     1     2    1
    2     1     3    2
    3     1     4    1
    4     4     5    1
    5     4     6    2
    6     6     7    1
    7     6     8    1
    8     8     9    1
    9     8    10    1
   10     8    11    1
   11    11    12    1
   12    11    13    1
   13    11    14    1
   14    14    15    1
   15    14    16    1
   16    14    17    1
@<TRIPOS>SUBSTRUCTURE
       1 MOL1            1 RESIDUE      1      MOL     
@<SCITEGIC>MOL_PROPERTY
VConf Rank
SciTegic.value.IntegerValue
460

@<SCITEGIC>MOL_PROPERTY
Conf_Id
SciTegic.value.IntegerValue
45

@<SCITEGIC>MOL_PROPERTY
Delta U+W
SciTegic.value.DoubleValue
0.562

@<SCITEGIC>MOL_PROPERTY
U+W
SciTegic.value.DoubleValue
-52.846

@<SCITEGIC>MOL_PROPERTY
Grad RMS
SciTegic.value.DoubleValue
0.000000

@<SCITEGIC>MOL_PROPERTY
U
SciTegic.value.DoubleValue
10.243

@<SCITEGIC>MOL_PROPERTY
W
SciTegic.value.DoubleValue
-63.089

@<SCITEGIC>MOL_PROPERTY
W(PB)
SciTegic.value.DoubleValue
-65.116

@<SCITEGIC>MOL_PROPERTY
W(SA)
SciTegic.value.DoubleValue
2.026

@<SCITEGIC>MOL_PROPERTY
Valence
SciTegic.value.DoubleValue
2.822

@<SCITEGIC>MOL_PROPERTY
Coulomb
SciTegic.value.DoubleValue
6.637

@<SCITEGIC>MOL_PROPERTY
VdW
SciTegic.value.DoubleValue
0.785

@<SCITEGIC>MOL_PROPERTY
VdW6
SciTegic.value.DoubleValue
-5.216

@<SCITEGIC>MOL_PROPERTY
VdW12
SciTegic.value.DoubleValue
6.001

@<SCITEGIC>MOL_PROPERTY
Bond
SciTegic.value.DoubleValue
0.080

@<SCITEGIC>MOL_PROPERTY
Angle
SciTegic.value.DoubleValue
2.678

@<SCITEGIC>MOL_PROPERTY
Pdih
SciTegic.value.DoubleValue
0.064

@<SCITEGIC>MOL_PROPERTY
Idih
SciTegic.value.DoubleValue
0.000

@<SCITEGIC>MOL_PROPERTY
Tether
SciTegic.value.DoubleValue
0.000

@<TRIPOS>MOLECULE
guest-s19_confgen4.mol2 : confsearch ligand conformer 461
          17          16           1
SMALL
USER_CHARGES
 
@<TRIPOS>ATOM
       1    C1      21.106564   20.040337   18.866037 C.2        1 MOL1         0.6173
       2    O1      22.123542   19.712148   18.286598 O.co2      1 MOL1        -0.6755
       3    O2      20.409296   20.968743   18.502343 O.co2      1 MOL1        -0.6755
       4    C2      20.717338   19.256290   20.069339 C.2        1 MOL1        -0.1504
       5    H1      21.383517   18.440298   20.340025 H          1 MOL1         0.0814
       6    C3      19.614564   19.510013   20.810013 C.2        1 MOL1        -0.1394
       7    H2      18.941547   20.326575   20.549157 H          1 MOL1         0.0817
       8    C4      19.227029   18.709090   22.033769 C.3        1 MOL1        -0.1849
       9    H3      19.446147   17.644981   21.871074 H          1 MOL1         0.0736
      10    H4      18.143032   18.783907   22.194200 H          1 MOL1         0.0736
      11    C5      19.970309   19.207445   23.290030 C.3        1 MOL1        -0.1866
      12    H5      21.055074   19.129306   23.132737 H          1 MOL1         0.0738
      13    H6      19.747967   20.271379   23.451819 H          1 MOL1         0.0738
      14    C6      19.573678   18.402196   24.543738 C.3        1 MOL1        -0.2879
      15    H7      18.497426   18.489316   24.742541 H          1 MOL1         0.0750
      16    H8      19.814530   17.338222   24.419697 H          1 MOL1         0.0750
      17    H9      20.112192   18.770790   25.426502 H          1 MOL1         0.0750
@<TRIPOS>BOND
    1     1     2    1
    2     1     3    2
    3     1     4    1
    4     4     5    1
    5     4     6    2
    6     6     7    1
    7     6     8    1
    8     8     9    1
    9     8    10    1
   10     8    11    1
   11    11    12    1
   12    11    13    1
   13    11    14    1
   14    14    15    1
   15    14    16    1
   16    14    17    1
@<TRIPOS>SUBSTRUCTURE
       1 MOL1            1 RESIDUE      1      MOL     
@<SCITEGIC>MOL_PROPERTY
VConf Rank
SciTegic.value.IntegerValue
461

@<SCITEGIC>MOL_PROPERTY
Conf_Id
SciTegic.value.IntegerValue
36

@<SCITEGIC>MOL_PROPERTY
Delta U+W
SciTegic.value.DoubleValue
0.000

@<SCITEGIC>MOL_PROPERTY
U+W
SciTegic.value.DoubleValue
-53.409

@<SCITEGIC>MOL_PROPERTY
Grad RMS
SciTegic.value.DoubleValue
0.000000

@<SCITEGIC>MOL_PROPERTY
U
SciTegic.value.DoubleValue
9.048

@<SCITEGIC>MOL_PROPERTY
W
SciTegic.value.DoubleValue
-62.457

@<SCITEGIC>MOL_PROPERTY
W(PB)
SciTegic.value.DoubleValue
-64.540

@<SCITEGIC>MOL_PROPERTY
W(SA)
SciTegic.value.DoubleValue
2.084

@<SCITEGIC>MOL_PROPERTY
Valence
SciTegic.value.DoubleValue
2.652

@<SCITEGIC>MOL_PROPERTY
Coulomb
SciTegic.value.DoubleValue
5.578

@<SCITEGIC>MOL_PROPERTY
VdW
SciTegic.value.DoubleValue
0.818

@<SCITEGIC>MOL_PROPERTY
VdW6
SciTegic.value.DoubleValue
-4.534

@<SCITEGIC>MOL_PROPERTY
VdW12
SciTegic.value.DoubleValue
5.352

@<SCITEGIC>MOL_PROPERTY
Bond
SciTegic.value.DoubleValue
0.063

@<SCITEGIC>MOL_PROPERTY
Angle
SciTegic.value.DoubleValue
2.579

@<SCITEGIC>MOL_PROPERTY
Pdih
SciTegic.value.DoubleValue
0.010

@<SCITEGIC>MOL_PROPERTY
Idih
SciTegic.value.DoubleValue
0.000

@<SCITEGIC>MOL_PROPERTY
Tether
SciTegic.value.DoubleValue
0.000

@<TRIPOS>MOLECULE
guest-s19_confgen4.mol2 : confsearch ligand conformer 462
          17          16           1
SMALL
USER_CHARGES
 
@<TRIPOS>ATOM
       1    C1      18.876478   16.089554   20.883580 C.2        1 MOL1         0.6173
       2    O1      17.923634   16.303388   20.157800 O.co2      1 MOL1        -0.6755
       3    O2      19.163564   14.978976   21.285954 O.co2      1 MOL1        -0.6755
       4    C2      19.744125   17.220799   21.309767 C.2        1 MOL1        -0.1504
       5    H1      20.578211   16.961232   21.957713 H          1 MOL1         0.0814
       6    C3      19.542809   18.505999   20.939874 C.2        1 MOL1        -0.1394
       7    H2      18.708961   18.777500   20.292760 H          1 MOL1         0.0817
       8    C4      20.428947   19.650941   21.379313 C.3        1 MOL1        -0.1849
       9    H3      20.363884   20.467974   20.648141 H          1 MOL1         0.0736
      10    H4      21.478994   19.328510   21.395012 H          1 MOL1         0.0736
      11    C5      20.023610   20.172259   22.773209 C.3        1 MOL1        -0.1866
      12    H5      18.973700   20.496145   22.754401 H          1 MOL1         0.0738
      13    H6      20.092104   19.356962   23.506803 H          1 MOL1         0.0738
      14    C6      20.916340   21.345690   23.224450 C.3        1 MOL1        -0.2879
      15    H7      20.842007   22.187966   22.524110 H          1 MOL1         0.0750
      16    H8      20.613105   21.702800   24.217249 H          1 MOL1         0.0750
      17    H9      21.969019   21.039037   23.281609 H          1 MOL1         0.0750
@<TRIPOS>BOND
    1     1     2    1
    2     1     3    2
    3     1     4    1
    4     4     5    1
    5     4     6    2
    6     6     7    1
    7     6     8    1
    8     8     9    1
    9     8    10    1
   10     8    11    1
   11    11    12    1
   12    11    13    1
   13    11    14    1
   14    14    15    1
   15    14    16    1
   16    14    17    1
@<TRIPOS>SUBSTRUCTURE
       1 MOL1            1 RESIDUE      1      MOL     
@<SCITEGIC>MOL_PROPERTY
VConf Rank
SciTegic.value.IntegerValue
462

@<SCITEGIC>MOL_PROPERTY
Conf_Id
SciTegic.value.IntegerValue
1

@<SCITEGIC>MOL_PROPERTY
Delta U+W
SciTegic.value.DoubleValue
0.030

@<SCITEGIC>MOL_PROPERTY
U+W
SciTegic.value.DoubleValue
-53.378

@<SCITEGIC>MOL_PROPERTY
Grad RMS
SciTegic.value.DoubleValue
0.000000

@<SCITEGIC>MOL_PROPERTY
U
SciTegic.value.DoubleValue
9.048

@<SCITEGIC>MOL_PROPERTY
W
SciTegic.value.DoubleValue
-62.426

@<SCITEGIC>MOL_PROPERTY
W(PB)
SciTegic.value.DoubleValue
-64.506

@<SCITEGIC>MOL_PROPERTY
W(SA)
SciTegic.value.DoubleValue
2.080

@<SCITEGIC>MOL_PROPERTY
Valence
SciTegic.value.DoubleValue
2.652

@<SCITEGIC>MOL_PROPERTY
Coulomb
SciTegic.value.DoubleValue
5.578

@<SCITEGIC>MOL_PROPERTY
VdW
SciTegic.value.DoubleValue
0.818

@<SCITEGIC>MOL_PROPERTY
VdW6
SciTegic.value.DoubleValue
-4.535

@<SCITEGIC>MOL_PROPERTY
VdW12
SciTegic.value.DoubleValue
5.352

@<SCITEGIC>MOL_PROPERTY
Bond
SciTegic.value.DoubleValue
0.063

@<SCITEGIC>MOL_PROPERTY
Angle
SciTegic.value.DoubleValue
2.579

@<SCITEGIC>MOL_PROPERTY
Pdih
SciTegic.value.DoubleValue
0.010

@<SCITEGIC>MOL_PROPERTY
Idih
SciTegic.value.DoubleValue
0.000

@<SCITEGIC>MOL_PROPERTY
Tether
SciTegic.value.DoubleValue
0.000

@<TRIPOS>MOLECULE
guest-s19_confgen4.mol2 : confsearch ligand conformer 463
          17          16           1
SMALL
USER_CHARGES
 
@<TRIPOS>ATOM
       1    C1      18.039478   21.260146   22.984428 C.2        1 MOL1         0.6173
       2    O1      18.497728   21.515933   24.082162 O.co2      1 MOL1        -0.6755
       3    O2      17.239668   21.980266   22.419146 O.co2      1 MOL1        -0.6755
       4    C2      18.458263   20.015618   22.284529 C.2        1 MOL1        -0.1504
       5    H1      18.010690   19.846697   21.307848 H          1 MOL1         0.0814
       6    C3      19.339836   19.125107   22.793257 C.2        1 MOL1        -0.1394
       7    H2      19.796817   19.286189   23.769381 H          1 MOL1         0.0817
       8    C4      19.764295   17.862378   22.073282 C.3        1 MOL1        -0.1849
       9    H3      18.892308   17.405327   21.586177 H          1 MOL1         0.0736
      10    H4      20.131078   17.124477   22.799413 H          1 MOL1         0.0736
      11    C5      20.854766   18.129073   21.012477 C.3        1 MOL1        -0.1866
      12    H5      21.045898   17.202907   20.453158 H          1 MOL1         0.0738
      13    H6      20.490174   18.866213   20.283692 H          1 MOL1         0.0738
      14    C6      22.177412   18.624246   21.635473 C.3        1 MOL1        -0.2879
      15    H7      22.567456   17.896428   22.358862 H          1 MOL1         0.0750
      16    H8      22.938713   18.771186   20.858468 H          1 MOL1         0.0750
      17    H9      22.036976   19.581609   22.154080 H          1 MOL1         0.0750
@<TRIPOS>BOND
    1     1     2    1
    2     1     3    2
    3     1     4    1
    4     4     5    1
    5     4     6    2
    6     6     7    1
    7     6     8    1
    8     8     9    1
    9     8    10    1
   10     8    11    1
   11    11    12    1
   12    11    13    1
   13    11    14    1
   14    14    15    1
   15    14    16    1
   16    14    17    1
@<TRIPOS>SUBSTRUCTURE
       1 MOL1            1 RESIDUE      1      MOL     
@<SCITEGIC>MOL_PROPERTY
VConf Rank
SciTegic.value.IntegerValue
463

@<SCITEGIC>MOL_PROPERTY
Conf_Id
SciTegic.value.IntegerValue
3

@<SCITEGIC>MOL_PROPERTY
Delta U+W
SciTegic.value.DoubleValue
0.531

@<SCITEGIC>MOL_PROPERTY
U+W
SciTegic.value.DoubleValue
-52.878

@<SCITEGIC>MOL_PROPERTY
Grad RMS
SciTegic.value.DoubleValue
0.000000

@<SCITEGIC>MOL_PROPERTY
U
SciTegic.value.DoubleValue
10.067

@<SCITEGIC>MOL_PROPERTY
W
SciTegic.value.DoubleValue
-62.945

@<SCITEGIC>MOL_PROPERTY
W(PB)
SciTegic.value.DoubleValue
-64.982

@<SCITEGIC>MOL_PROPERTY
W(SA)
SciTegic.value.DoubleValue
2.037

@<SCITEGIC>MOL_PROPERTY
Valence
SciTegic.value.DoubleValue
2.779

@<SCITEGIC>MOL_PROPERTY
Coulomb
SciTegic.value.DoubleValue
6.474

@<SCITEGIC>MOL_PROPERTY
VdW
SciTegic.value.DoubleValue
0.815

@<SCITEGIC>MOL_PROPERTY
VdW6
SciTegic.value.DoubleValue
-5.088

@<SCITEGIC>MOL_PROPERTY
VdW12
SciTegic.value.DoubleValue
5.902

@<SCITEGIC>MOL_PROPERTY
Bond
SciTegic.value.DoubleValue
0.078

@<SCITEGIC>MOL_PROPERTY
Angle
SciTegic.value.DoubleValue
2.651

@<SCITEGIC>MOL_PROPERTY
Pdih
SciTegic.value.DoubleValue
0.050

@<SCITEGIC>MOL_PROPERTY
Idih
SciTegic.value.DoubleValue
0.000

@<SCITEGIC>MOL_PROPERTY
Tether
SciTegic.value.DoubleValue
0.000

@<TRIPOS>MOLECULE
guest-s19_confgen4.mol2 : confsearch ligand conformer 464
          17          16           1
SMALL
USER_CHARGES
 
@<TRIPOS>ATOM
       1    C1      17.201076   19.911981   21.209146 C.2        1 MOL1         0.6173
       2    O1      16.579253   20.927452   21.453960 O.co2      1 MOL1        -0.6755
       3    O2      16.665079   18.878527   20.855412 O.co2      1 MOL1        -0.6755
       4    C2      18.681314   19.961004   21.352556 C.2        1 MOL1        -0.1504
       5    H1      19.095145   20.914687   21.671837 H          1 MOL1         0.0814
       6    C3      19.496615   18.907959   21.115990 C.2        1 MOL1        -0.1394
       7    H2      19.089984   17.947807   20.799325 H          1 MOL1         0.0817
       8    C4      21.003017   18.960190   21.265533 C.3        1 MOL1        -0.1849
       9    H3      21.353825   20.001052   21.282230 H          1 MOL1         0.0736
      10    H4      21.466867   18.495849   20.385056 H          1 MOL1         0.0736
      11    C5      21.491866   18.227457   22.534113 C.3        1 MOL1        -0.1866
      12    H5      21.139137   17.186867   22.519493 H          1 MOL1         0.0738
      13    H6      22.589791   18.186778   22.523919 H          1 MOL1         0.0738
      14    C6      21.026239   18.916480   23.834601 C.3        1 MOL1        -0.2879
      15    H7      19.931192   18.918762   23.911542 H          1 MOL1         0.0750
      16    H8      21.423945   18.392088   24.713071 H          1 MOL1         0.0750
      17    H9      21.374534   19.956782   23.874046 H          1 MOL1         0.0750
@<TRIPOS>BOND
    1     1     2    1
    2     1     3    2
    3     1     4    1
    4     4     5    1
    5     4     6    2
    6     6     7    1
    7     6     8    1
    8     8     9    1
    9     8    10    1
   10     8    11    1
   11    11    12    1
   12    11    13    1
   13    11    14    1
   14    14    15    1
   15    14    16    1
   16    14    17    1
@<TRIPOS>SUBSTRUCTURE
       1 MOL1            1 RESIDUE      1      MOL     
@<SCITEGIC>MOL_PROPERTY
VConf Rank
SciTegic.value.IntegerValue
464

@<SCITEGIC>MOL_PROPERTY
Conf_Id
SciTegic.value.IntegerValue
45

@<SCITEGIC>MOL_PROPERTY
Delta U+W
SciTegic.value.DoubleValue
0.562

@<SCITEGIC>MOL_PROPERTY
U+W
SciTegic.value.DoubleValue
-52.846

@<SCITEGIC>MOL_PROPERTY
Grad RMS
SciTegic.value.DoubleValue
0.000000

@<SCITEGIC>MOL_PROPERTY
U
SciTegic.value.DoubleValue
10.243

@<SCITEGIC>MOL_PROPERTY
W
SciTegic.value.DoubleValue
-63.089

@<SCITEGIC>MOL_PROPERTY
W(PB)
SciTegic.value.DoubleValue
-65.116

@<SCITEGIC>MOL_PROPERTY
W(SA)
SciTegic.value.DoubleValue
2.026

@<SCITEGIC>MOL_PROPERTY
Valence
SciTegic.value.DoubleValue
2.822

@<SCITEGIC>MOL_PROPERTY
Coulomb
SciTegic.value.DoubleValue
6.637

@<SCITEGIC>MOL_PROPERTY
VdW
SciTegic.value.DoubleValue
0.785

@<SCITEGIC>MOL_PROPERTY
VdW6
SciTegic.value.DoubleValue
-5.216

@<SCITEGIC>MOL_PROPERTY
VdW12
SciTegic.value.DoubleValue
6.001

@<SCITEGIC>MOL_PROPERTY
Bond
SciTegic.value.DoubleValue
0.080

@<SCITEGIC>MOL_PROPERTY
Angle
SciTegic.value.DoubleValue
2.678

@<SCITEGIC>MOL_PROPERTY
Pdih
SciTegic.value.DoubleValue
0.064

@<SCITEGIC>MOL_PROPERTY
Idih
SciTegic.value.DoubleValue
0.000

@<SCITEGIC>MOL_PROPERTY
Tether
SciTegic.value.DoubleValue
0.000

@<TRIPOS>MOLECULE
guest-s19_confgen4.mol2 : confsearch ligand conformer 465
          17          16           1
SMALL
USER_CHARGES
 
@<TRIPOS>ATOM
       1    C1      21.539516   19.203459   18.916940 C.2        1 MOL1         0.6173
       2    O1      22.486872   19.875819   18.558954 O.co2      1 MOL1        -0.6755
       3    O2      20.835364   18.587170   18.139283 O.co2      1 MOL1        -0.6755
       4    C2      21.249111   19.146044   20.375202 C.2        1 MOL1        -0.1504
       5    H1      21.916328   19.719190   21.014916 H          1 MOL1         0.0814
       6    C3      20.228678   18.440173   20.913299 C.2        1 MOL1        -0.1394
       7    H2      19.552747   17.864359   20.281374 H          1 MOL1         0.0817
       8    C4      19.938891   18.388825   22.397423 C.3        1 MOL1        -0.1849
       9    H3      20.880099   18.354792   22.962912 H          1 MOL1         0.0736
      10    H4      19.398134   17.462736   22.634758 H          1 MOL1         0.0736
      11    C5      19.103826   19.604357   22.849266 C.3        1 MOL1        -0.1866
      12    H5      19.645388   20.531721   22.616313 H          1 MOL1         0.0738
      13    H6      18.162115   19.635073   22.283752 H          1 MOL1         0.0738
      14    C6      18.796096   19.554651   24.359351 C.3        1 MOL1        -0.2879
      15    H7      18.226526   18.651461   24.614831 H          1 MOL1         0.0750
      16    H8      19.722134   19.554446   24.949174 H          1 MOL1         0.0750
      17    H9      18.201925   20.426759   24.661871 H          1 MOL1         0.0750
@<TRIPOS>BOND
    1     1     2    1
    2     1     3    2
    3     1     4    1
    4     4     5    1
    5     4     6    2
    6     6     7    1
    7     6     8    1
    8     8     9    1
    9     8    10    1
   10     8    11    1
   11    11    12    1
   12    11    13    1
   13    11    14    1
   14    14    15    1
   15    14    16    1
   16    14    17    1
@<TRIPOS>SUBSTRUCTURE
       1 MOL1            1 RESIDUE      1      MOL     
@<SCITEGIC>MOL_PROPERTY
VConf Rank
SciTegic.value.IntegerValue
465

@<SCITEGIC>MOL_PROPERTY
Conf_Id
SciTegic.value.IntegerValue
36

@<SCITEGIC>MOL_PROPERTY
Delta U+W
SciTegic.value.DoubleValue
0.000

@<SCITEGIC>MOL_PROPERTY
U+W
SciTegic.value.DoubleValue
-53.409

@<SCITEGIC>MOL_PROPERTY
Grad RMS
SciTegic.value.DoubleValue
0.000000

@<SCITEGIC>MOL_PROPERTY
U
SciTegic.value.DoubleValue
9.048

@<SCITEGIC>MOL_PROPERTY
W
SciTegic.value.DoubleValue
-62.457

@<SCITEGIC>MOL_PROPERTY
W(PB)
SciTegic.value.DoubleValue
-64.540

@<SCITEGIC>MOL_PROPERTY
W(SA)
SciTegic.value.DoubleValue
2.084

@<SCITEGIC>MOL_PROPERTY
Valence
SciTegic.value.DoubleValue
2.652

@<SCITEGIC>MOL_PROPERTY
Coulomb
SciTegic.value.DoubleValue
5.578

@<SCITEGIC>MOL_PROPERTY
VdW
SciTegic.value.DoubleValue
0.818

@<SCITEGIC>MOL_PROPERTY
VdW6
SciTegic.value.DoubleValue
-4.534

@<SCITEGIC>MOL_PROPERTY
VdW12
SciTegic.value.DoubleValue
5.352

@<SCITEGIC>MOL_PROPERTY
Bond
SciTegic.value.DoubleValue
0.063

@<SCITEGIC>MOL_PROPERTY
Angle
SciTegic.value.DoubleValue
2.579

@<SCITEGIC>MOL_PROPERTY
Pdih
SciTegic.value.DoubleValue
0.010

@<SCITEGIC>MOL_PROPERTY
Idih
SciTegic.value.DoubleValue
0.000

@<SCITEGIC>MOL_PROPERTY
Tether
SciTegic.value.DoubleValue
0.000

@<TRIPOS>MOLECULE
guest-s19_confgen4.mol2 : confsearch ligand conformer 466
          17          16           1
SMALL
USER_CHARGES
 
@<TRIPOS>ATOM
       1    C1      20.651459   15.781980   21.832470 C.2        1 MOL1         0.6173
       2    O1      19.580716   15.220027   21.697891 O.co2      1 MOL1        -0.6755
       3    O2      21.678825   15.189565   22.099432 O.co2      1 MOL1        -0.6755
       4    C2      20.732498   17.258475   21.666461 C.2        1 MOL1        -0.1504
       5    H1      21.718518   17.697652   21.799859 H          1 MOL1         0.0814
       6    C3      19.671364   18.043070   21.370670 C.2        1 MOL1        -0.1394
       7    H2      18.678583   17.613762   21.237054 H          1 MOL1         0.0817
       8    C4      19.762034   19.544300   21.205366 C.3        1 MOL1        -0.1849
       9    H3      18.942770   19.893702   20.562628 H          1 MOL1         0.0736
      10    H4      20.696551   19.809898   20.692588 H          1 MOL1         0.0736
      11    C5      19.692708   20.264815   22.567375 C.3        1 MOL1        -0.1866
      12    H5      18.756222   19.999307   23.077341 H          1 MOL1         0.0738
      13    H6      20.514235   19.919352   23.210267 H          1 MOL1         0.0738
      14    C6      19.775177   21.796130   22.406760 C.3        1 MOL1        -0.2879
      15    H7      18.945844   22.172178   21.793387 H          1 MOL1         0.0750
      16    H8      19.724271   22.290939   23.385383 H          1 MOL1         0.0750
      17    H9      20.717718   22.090581   21.926812 H          1 MOL1         0.0750
@<TRIPOS>BOND
    1     1     2    1
    2     1     3    2
    3     1     4    1
    4     4     5    1
    5     4     6    2
    6     6     7    1
    7     6     8    1
    8     8     9    1
    9     8    10    1
   10     8    11    1
   11    11    12    1
   12    11    13    1
   13    11    14    1
   14    14    15    1
   15    14    16    1
   16    14    17    1
@<TRIPOS>SUBSTRUCTURE
       1 MOL1            1 RESIDUE      1      MOL     
@<SCITEGIC>MOL_PROPERTY
VConf Rank
SciTegic.value.IntegerValue
466

@<SCITEGIC>MOL_PROPERTY
Conf_Id
SciTegic.value.IntegerValue
1

@<SCITEGIC>MOL_PROPERTY
Delta U+W
SciTegic.value.DoubleValue
0.030

@<SCITEGIC>MOL_PROPERTY
U+W
SciTegic.value.DoubleValue
-53.378

@<SCITEGIC>MOL_PROPERTY
Grad RMS
SciTegic.value.DoubleValue
0.000000

@<SCITEGIC>MOL_PROPERTY
U
SciTegic.value.DoubleValue
9.048

@<SCITEGIC>MOL_PROPERTY
W
SciTegic.value.DoubleValue
-62.426

@<SCITEGIC>MOL_PROPERTY
W(PB)
SciTegic.value.DoubleValue
-64.506

@<SCITEGIC>MOL_PROPERTY
W(SA)
SciTegic.value.DoubleValue
2.080

@<SCITEGIC>MOL_PROPERTY
Valence
SciTegic.value.DoubleValue
2.652

@<SCITEGIC>MOL_PROPERTY
Coulomb
SciTegic.value.DoubleValue
5.578

@<SCITEGIC>MOL_PROPERTY
VdW
SciTegic.value.DoubleValue
0.818

@<SCITEGIC>MOL_PROPERTY
VdW6
SciTegic.value.DoubleValue
-4.535

@<SCITEGIC>MOL_PROPERTY
VdW12
SciTegic.value.DoubleValue
5.352

@<SCITEGIC>MOL_PROPERTY
Bond
SciTegic.value.DoubleValue
0.063

@<SCITEGIC>MOL_PROPERTY
Angle
SciTegic.value.DoubleValue
2.579

@<SCITEGIC>MOL_PROPERTY
Pdih
SciTegic.value.DoubleValue
0.010

@<SCITEGIC>MOL_PROPERTY
Idih
SciTegic.value.DoubleValue
0.000

@<SCITEGIC>MOL_PROPERTY
Tether
SciTegic.value.DoubleValue
0.000

@<TRIPOS>MOLECULE
guest-s19_confgen4.mol2 : confsearch ligand conformer 467
          17          16           1
SMALL
USER_CHARGES
 
@<TRIPOS>ATOM
       1    C1      22.210452   16.947622   21.724243 C.2        1 MOL1         0.6173
       2    O1      22.867019   17.441957   20.827028 O.co2      1 MOL1        -0.6755
       3    O2      22.622813   16.041082   22.421348 O.co2      1 MOL1        -0.6755
       4    C2      20.838701   17.455346   21.997388 C.2        1 MOL1        -0.1504
       5    H1      20.306133   16.969606   22.811751 H          1 MOL1         0.0814
       6    C3      20.254118   18.458048   21.303244 C.2        1 MOL1        -0.1394
       7    H2      20.779929   18.953941   20.487639 H          1 MOL1         0.0817
       8    C4      18.858859   18.972145   21.589551 C.3        1 MOL1        -0.1849
       9    H3      18.192386   18.126706   21.807663 H          1 MOL1         0.0736
      10    H4      18.450610   19.460863   20.694687 H          1 MOL1         0.0736
      11    C5      18.828618   19.959915   22.776546 C.3        1 MOL1        -0.1866
      12    H5      17.784697   20.215814   23.004355 H          1 MOL1         0.0738
      13    H6      19.235414   19.473292   23.673843 H          1 MOL1         0.0738
      14    C6      19.614263   21.256698   22.487014 C.3        1 MOL1        -0.2879
      15    H7      19.216367   21.767230   21.600345 H          1 MOL1         0.0750
      16    H8      19.543849   21.948326   23.336484 H          1 MOL1         0.0750
      17    H9      20.677329   21.045207   22.312703 H          1 MOL1         0.0750
@<TRIPOS>BOND
    1     1     2    1
    2     1     3    2
    3     1     4    1
    4     4     5    1
    5     4     6    2
    6     6     7    1
    7     6     8    1
    8     8     9    1
    9     8    10    1
   10     8    11    1
   11    11    12    1
   12    11    13    1
   13    11    14    1
   14    14    15    1
   15    14    16    1
   16    14    17    1
@<TRIPOS>SUBSTRUCTURE
       1 MOL1            1 RESIDUE      1      MOL     
@<SCITEGIC>MOL_PROPERTY
VConf Rank
SciTegic.value.IntegerValue
467

@<SCITEGIC>MOL_PROPERTY
Conf_Id
SciTegic.value.IntegerValue
3

@<SCITEGIC>MOL_PROPERTY
Delta U+W
SciTegic.value.DoubleValue
0.531

@<SCITEGIC>MOL_PROPERTY
U+W
SciTegic.value.DoubleValue
-52.878

@<SCITEGIC>MOL_PROPERTY
Grad RMS
SciTegic.value.DoubleValue
0.000000

@<SCITEGIC>MOL_PROPERTY
U
SciTegic.value.DoubleValue
10.067

@<SCITEGIC>MOL_PROPERTY
W
SciTegic.value.DoubleValue
-62.945

@<SCITEGIC>MOL_PROPERTY
W(PB)
SciTegic.value.DoubleValue
-64.982

@<SCITEGIC>MOL_PROPERTY
W(SA)
SciTegic.value.DoubleValue
2.037

@<SCITEGIC>MOL_PROPERTY
Valence
SciTegic.value.DoubleValue
2.779

@<SCITEGIC>MOL_PROPERTY
Coulomb
SciTegic.value.DoubleValue
6.474

@<SCITEGIC>MOL_PROPERTY
VdW
SciTegic.value.DoubleValue
0.815

@<SCITEGIC>MOL_PROPERTY
VdW6
SciTegic.value.DoubleValue
-5.088

@<SCITEGIC>MOL_PROPERTY
VdW12
SciTegic.value.DoubleValue
5.902

@<SCITEGIC>MOL_PROPERTY
Bond
SciTegic.value.DoubleValue
0.078

@<SCITEGIC>MOL_PROPERTY
Angle
SciTegic.value.DoubleValue
2.651

@<SCITEGIC>MOL_PROPERTY
Pdih
SciTegic.value.DoubleValue
0.050

@<SCITEGIC>MOL_PROPERTY
Idih
SciTegic.value.DoubleValue
0.000

@<SCITEGIC>MOL_PROPERTY
Tether
SciTegic.value.DoubleValue
0.000

@<TRIPOS>MOLECULE
guest-s19_confgen4.mol2 : confsearch ligand conformer 468
          17          16           1
SMALL
USER_CHARGES
 
@<TRIPOS>ATOM
       1    C1      17.640410   17.767794   23.449590 C.2        1 MOL1         0.6173
       2    O1      17.204394   17.933915   24.572120 O.co2      1 MOL1        -0.6755
       3    O2      17.420330   16.764423   22.797470 O.co2      1 MOL1        -0.6755
       4    C2      18.474224   18.854496   22.868293 C.2        1 MOL1        -0.1504
       5    H1      18.631496   19.722733   23.504011 H          1 MOL1         0.0814
       6    C3      19.024846   18.803522   21.633870 C.2        1 MOL1        -0.1394
       7    H2      18.875328   17.935808   20.991815 H          1 MOL1         0.0817
       8    C4      19.875552   19.910291   21.045909 C.3        1 MOL1        -0.1849
       9    H3      19.729398   20.846626   21.601478 H          1 MOL1         0.0736
      10    H4      19.543541   20.110068   20.018355 H          1 MOL1         0.0736
      11    C5      21.376690   19.547879   21.025637 C.3        1 MOL1        -0.1866
      12    H5      21.523481   18.609929   20.472318 H          1 MOL1         0.0738
      13    H6      21.925742   20.325274   20.476640 H          1 MOL1         0.0738
      14    C6      21.974864   19.415258   22.442475 C.3        1 MOL1        -0.2879
      15    H7      21.493421   18.602208   23.001238 H          1 MOL1         0.0750
      16    H8      23.049157   19.196387   22.389044 H          1 MOL1         0.0750
      17    H9      21.846005   20.345109   23.011567 H          1 MOL1         0.0750
@<TRIPOS>BOND
    1     1     2    1
    2     1     3    2
    3     1     4    1
    4     4     5    1
    5     4     6    2
    6     6     7    1
    7     6     8    1
    8     8     9    1
    9     8    10    1
   10     8    11    1
   11    11    12    1
   12    11    13    1
   13    11    14    1
   14    14    15    1
   15    14    16    1
   16    14    17    1
@<TRIPOS>SUBSTRUCTURE
       1 MOL1            1 RESIDUE      1      MOL     
@<SCITEGIC>MOL_PROPERTY
VConf Rank
SciTegic.value.IntegerValue
468

@<SCITEGIC>MOL_PROPERTY
Conf_Id
SciTegic.value.IntegerValue
45

@<SCITEGIC>MOL_PROPERTY
Delta U+W
SciTegic.value.DoubleValue
0.562

@<SCITEGIC>MOL_PROPERTY
U+W
SciTegic.value.DoubleValue
-52.846

@<SCITEGIC>MOL_PROPERTY
Grad RMS
SciTegic.value.DoubleValue
0.000000

@<SCITEGIC>MOL_PROPERTY
U
SciTegic.value.DoubleValue
10.243

@<SCITEGIC>MOL_PROPERTY
W
SciTegic.value.DoubleValue
-63.089

@<SCITEGIC>MOL_PROPERTY
W(PB)
SciTegic.value.DoubleValue
-65.116

@<SCITEGIC>MOL_PROPERTY
W(SA)
SciTegic.value.DoubleValue
2.026

@<SCITEGIC>MOL_PROPERTY
Valence
SciTegic.value.DoubleValue
2.822

@<SCITEGIC>MOL_PROPERTY
Coulomb
SciTegic.value.DoubleValue
6.637

@<SCITEGIC>MOL_PROPERTY
VdW
SciTegic.value.DoubleValue
0.785

@<SCITEGIC>MOL_PROPERTY
VdW6
SciTegic.value.DoubleValue
-5.216

@<SCITEGIC>MOL_PROPERTY
VdW12
SciTegic.value.DoubleValue
6.001

@<SCITEGIC>MOL_PROPERTY
Bond
SciTegic.value.DoubleValue
0.080

@<SCITEGIC>MOL_PROPERTY
Angle
SciTegic.value.DoubleValue
2.678

@<SCITEGIC>MOL_PROPERTY
Pdih
SciTegic.value.DoubleValue
0.064

@<SCITEGIC>MOL_PROPERTY
Idih
SciTegic.value.DoubleValue
0.000

@<SCITEGIC>MOL_PROPERTY
Tether
SciTegic.value.DoubleValue
0.000

@<TRIPOS>MOLECULE
guest-s19_confgen4.mol2 : confsearch ligand conformer 469
          17          16           1
SMALL
USER_CHARGES
 
@<TRIPOS>ATOM
       1    C1      22.796033   17.606032   20.801423 C.2        1 MOL1         0.6173
       2    O1      23.088303   16.426101   20.808200 O.co2      1 MOL1        -0.6755
       3    O2      23.606083   18.486000   20.578110 O.co2      1 MOL1        -0.6755
       4    C2      21.379049   17.964954   21.079801 C.2        1 MOL1        -0.1504
       5    H1      20.707112   17.131401   21.271108 H          1 MOL1         0.0814
       6    C3      20.914228   19.234744   21.105499 C.2        1 MOL1        -0.1394
       7    H2      21.579248   20.077482   20.917580 H          1 MOL1         0.0817
       8    C4      19.471929   19.591332   21.391600 C.3        1 MOL1        -0.1849
       9    H3      18.803190   18.858250   20.920230 H          1 MOL1         0.0736
      10    H4      19.237026   20.564439   20.939638 H          1 MOL1         0.0736
      11    C5      19.197066   19.646865   22.908301 C.3        1 MOL1        -0.1866
      12    H5      19.427616   18.672643   23.361398 H          1 MOL1         0.0738
      13    H6      19.865668   20.382185   23.377175 H          1 MOL1         0.0738
      14    C6      17.731149   20.019031   23.208481 C.3        1 MOL1        -0.2879
      15    H7      17.482989   21.004655   22.793279 H          1 MOL1         0.0750
      16    H8      17.042196   19.281454   22.776325 H          1 MOL1         0.0750
      17    H9      17.554866   20.053469   24.291471 H          1 MOL1         0.0750
@<TRIPOS>BOND
    1     1     2    1
    2     1     3    2
    3     1     4    1
    4     4     5    1
    5     4     6    2
    6     6     7    1
    7     6     8    1
    8     8     9    1
    9     8    10    1
   10     8    11    1
   11    11    12    1
   12    11    13    1
   13    11    14    1
   14    14    15    1
   15    14    16    1
   16    14    17    1
@<TRIPOS>SUBSTRUCTURE
       1 MOL1            1 RESIDUE      1      MOL     
@<SCITEGIC>MOL_PROPERTY
VConf Rank
SciTegic.value.IntegerValue
469

@<SCITEGIC>MOL_PROPERTY
Conf_Id
SciTegic.value.IntegerValue
36

@<SCITEGIC>MOL_PROPERTY
Delta U+W
SciTegic.value.DoubleValue
0.000

@<SCITEGIC>MOL_PROPERTY
U+W
SciTegic.value.DoubleValue
-53.409

@<SCITEGIC>MOL_PROPERTY
Grad RMS
SciTegic.value.DoubleValue
0.000000

@<SCITEGIC>MOL_PROPERTY
U
SciTegic.value.DoubleValue
9.048

@<SCITEGIC>MOL_PROPERTY
W
SciTegic.value.DoubleValue
-62.457

@<SCITEGIC>MOL_PROPERTY
W(PB)
SciTegic.value.DoubleValue
-64.540

@<SCITEGIC>MOL_PROPERTY
W(SA)
SciTegic.value.DoubleValue
2.084

@<SCITEGIC>MOL_PROPERTY
Valence
SciTegic.value.DoubleValue
2.652

@<SCITEGIC>MOL_PROPERTY
Coulomb
SciTegic.value.DoubleValue
5.578

@<SCITEGIC>MOL_PROPERTY
VdW
SciTegic.value.DoubleValue
0.818

@<SCITEGIC>MOL_PROPERTY
VdW6
SciTegic.value.DoubleValue
-4.534

@<SCITEGIC>MOL_PROPERTY
VdW12
SciTegic.value.DoubleValue
5.352

@<SCITEGIC>MOL_PROPERTY
Bond
SciTegic.value.DoubleValue
0.063

@<SCITEGIC>MOL_PROPERTY
Angle
SciTegic.value.DoubleValue
2.579

@<SCITEGIC>MOL_PROPERTY
Pdih
SciTegic.value.DoubleValue
0.010

@<SCITEGIC>MOL_PROPERTY
Idih
SciTegic.value.DoubleValue
0.000

@<SCITEGIC>MOL_PROPERTY
Tether
SciTegic.value.DoubleValue
0.000

@<TRIPOS>MOLECULE
guest-s19_confgen4.mol2 : confsearch ligand conformer 470
          17          16           1
SMALL
USER_CHARGES
 
@<TRIPOS>ATOM
       1    C1      18.644127   20.700498   19.283503 C.2        1 MOL1         0.6173
       2    O1      17.960552   19.887245   18.690429 O.co2      1 MOL1        -0.6755
       3    O2      18.906774   21.797550   18.830514 O.co2      1 MOL1        -0.6755
       4    C2      19.192882   20.360932   20.624296 C.2        1 MOL1        -0.1504
       5    H1      19.795096   21.131768   21.099751 H          1 MOL1         0.0814
       6    C3      18.982447   19.179313   21.247659 C.2        1 MOL1        -0.1394
       7    H2      18.382488   18.399202   20.779418 H          1 MOL1         0.0817
       8    C4      19.545783   18.841231   22.610594 C.3        1 MOL1        -0.1849
       9    H3      18.918869   18.076249   23.088264 H          1 MOL1         0.0736
      10    H4      19.510281   19.725455   23.261512 H          1 MOL1         0.0736
      11    C5      20.996881   18.328686   22.507499 C.3        1 MOL1        -0.1866
      12    H5      21.029471   17.443064   21.857747 H          1 MOL1         0.0738
      13    H6      21.626368   19.094582   22.033463 H          1 MOL1         0.0738
      14    C6      21.575278   17.973069   23.891883 C.3        1 MOL1        -0.2879
      15    H7      20.982112   17.185650   24.375157 H          1 MOL1         0.0750
      16    H8      22.607285   17.610652   23.798367 H          1 MOL1         0.0750
      17    H9      21.582797   18.850586   24.551689 H          1 MOL1         0.0750
@<TRIPOS>BOND
    1     1     2    1
    2     1     3    2
    3     1     4    1
    4     4     5    1
    5     4     6    2
    6     6     7    1
    7     6     8    1
    8     8     9    1
    9     8    10    1
   10     8    11    1
   11    11    12    1
   12    11    13    1
   13    11    14    1
   14    14    15    1
   15    14    16    1
   16    14    17    1
@<TRIPOS>SUBSTRUCTURE
       1 MOL1            1 RESIDUE      1      MOL     
@<SCITEGIC>MOL_PROPERTY
VConf Rank
SciTegic.value.IntegerValue
470

@<SCITEGIC>MOL_PROPERTY
Conf_Id
SciTegic.value.IntegerValue
1

@<SCITEGIC>MOL_PROPERTY
Delta U+W
SciTegic.value.DoubleValue
0.030

@<SCITEGIC>MOL_PROPERTY
U+W
SciTegic.value.DoubleValue
-53.378

@<SCITEGIC>MOL_PROPERTY
Grad RMS
SciTegic.value.DoubleValue
0.000000

@<SCITEGIC>MOL_PROPERTY
U
SciTegic.value.DoubleValue
9.048

@<SCITEGIC>MOL_PROPERTY
W
SciTegic.value.DoubleValue
-62.426

@<SCITEGIC>MOL_PROPERTY
W(PB)
SciTegic.value.DoubleValue
-64.506

@<SCITEGIC>MOL_PROPERTY
W(SA)
SciTegic.value.DoubleValue
2.080

@<SCITEGIC>MOL_PROPERTY
Valence
SciTegic.value.DoubleValue
2.652

@<SCITEGIC>MOL_PROPERTY
Coulomb
SciTegic.value.DoubleValue
5.578

@<SCITEGIC>MOL_PROPERTY
VdW
SciTegic.value.DoubleValue
0.818

@<SCITEGIC>MOL_PROPERTY
VdW6
SciTegic.value.DoubleValue
-4.535

@<SCITEGIC>MOL_PROPERTY
VdW12
SciTegic.value.DoubleValue
5.352

@<SCITEGIC>MOL_PROPERTY
Bond
SciTegic.value.DoubleValue
0.063

@<SCITEGIC>MOL_PROPERTY
Angle
SciTegic.value.DoubleValue
2.579

@<SCITEGIC>MOL_PROPERTY
Pdih
SciTegic.value.DoubleValue
0.010

@<SCITEGIC>MOL_PROPERTY
Idih
SciTegic.value.DoubleValue
0.000

@<SCITEGIC>MOL_PROPERTY
Tether
SciTegic.value.DoubleValue
0.000

@<TRIPOS>MOLECULE
guest-s19_confgen4.mol2 : confsearch ligand conformer 471
          17          16           1
SMALL
USER_CHARGES
 
@<TRIPOS>ATOM
       1    C1      18.941634   21.924068   22.598676 C.2        1 MOL1         0.6173
       2    O1      19.906687   22.590478   22.274621 O.co2      1 MOL1        -0.6755
       3    O2      17.831840   22.397949   22.745670 O.co2      1 MOL1        -0.6755
       4    C2      19.102137   20.463679   22.834456 C.2        1 MOL1        -0.1504
       5    H1      18.200835   19.927400   23.122241 H          1 MOL1         0.0814
       6    C3      20.275916   19.804191   22.706763 C.2        1 MOL1        -0.1394
       7    H2      21.184346   20.331070   22.415644 H          1 MOL1         0.0817
       8    C4      20.430828   18.316768   22.944649 C.3        1 MOL1        -0.1849
       9    H3      19.840747   18.020765   23.822552 H          1 MOL1         0.0736
      10    H4      21.476778   18.084747   23.186408 H          1 MOL1         0.0736
      11    C5      19.983701   17.477323   21.727697 C.3        1 MOL1        -0.1866
      12    H5      20.017910   16.411967   21.994154 H          1 MOL1         0.0738
      13    H6      18.936985   17.706419   21.484127 H          1 MOL1         0.0738
      14    C6      20.870370   17.715706   20.486849 C.3        1 MOL1        -0.2879
      15    H7      21.920575   17.480729   20.703640 H          1 MOL1         0.0750
      16    H8      20.545977   17.079937   19.652897 H          1 MOL1         0.0750
      17    H9      20.814293   18.760604   20.154787 H          1 MOL1         0.0750
@<TRIPOS>BOND
    1     1     2    1
    2     1     3    2
    3     1     4    1
    4     4     5    1
    5     4     6    2
    6     6     7    1
    7     6     8    1
    8     8     9    1
    9     8    10    1
   10     8    11    1
   11    11    12    1
   12    11    13    1
   13    11    14    1
   14    14    15    1
   15    14    16    1
   16    14    17    1
@<TRIPOS>SUBSTRUCTURE
       1 MOL1            1 RESIDUE      1      MOL     
@<SCITEGIC>MOL_PROPERTY
VConf Rank
SciTegic.value.IntegerValue
471

@<SCITEGIC>MOL_PROPERTY
Conf_Id
SciTegic.value.IntegerValue
3

@<SCITEGIC>MOL_PROPERTY
Delta U+W
SciTegic.value.DoubleValue
0.531

@<SCITEGIC>MOL_PROPERTY
U+W
SciTegic.value.DoubleValue
-52.878

@<SCITEGIC>MOL_PROPERTY
Grad RMS
SciTegic.value.DoubleValue
0.000000

@<SCITEGIC>MOL_PROPERTY
U
SciTegic.value.DoubleValue
10.067

@<SCITEGIC>MOL_PROPERTY
W
SciTegic.value.DoubleValue
-62.945

@<SCITEGIC>MOL_PROPERTY
W(PB)
SciTegic.value.DoubleValue
-64.982

@<SCITEGIC>MOL_PROPERTY
W(SA)
SciTegic.value.DoubleValue
2.037

@<SCITEGIC>MOL_PROPERTY
Valence
SciTegic.value.DoubleValue
2.779

@<SCITEGIC>MOL_PROPERTY
Coulomb
SciTegic.value.DoubleValue
6.474

@<SCITEGIC>MOL_PROPERTY
VdW
SciTegic.value.DoubleValue
0.815

@<SCITEGIC>MOL_PROPERTY
VdW6
SciTegic.value.DoubleValue
-5.088

@<SCITEGIC>MOL_PROPERTY
VdW12
SciTegic.value.DoubleValue
5.902

@<SCITEGIC>MOL_PROPERTY
Bond
SciTegic.value.DoubleValue
0.078

@<SCITEGIC>MOL_PROPERTY
Angle
SciTegic.value.DoubleValue
2.651

@<SCITEGIC>MOL_PROPERTY
Pdih
SciTegic.value.DoubleValue
0.050

@<SCITEGIC>MOL_PROPERTY
Idih
SciTegic.value.DoubleValue
0.000

@<SCITEGIC>MOL_PROPERTY
Tether
SciTegic.value.DoubleValue
0.000

@<TRIPOS>MOLECULE
guest-s19_confgen4.mol2 : confsearch ligand conformer 472
          17          16           1
SMALL
USER_CHARGES
 
@<TRIPOS>ATOM
       1    C1      20.747170   20.660299   19.608983 C.2        1 MOL1         0.6173
       2    O1      20.354227   21.744444   19.224266 O.co2      1 MOL1        -0.6755
       3    O2      21.268173   19.846360   18.869722 O.co2      1 MOL1        -0.6755
       4    C2      20.575221   20.339230   21.051695 C.2        1 MOL1        -0.1504
       5    H1      20.102725   21.110334   21.655726 H          1 MOL1         0.0814
       6    C3      20.963014   19.172453   21.615462 C.2        1 MOL1        -0.1394
       7    H2      21.433841   18.393055   21.016815 H          1 MOL1         0.0817
       8    C4      20.784103   18.847416   23.084026 C.3        1 MOL1        -0.1849
       9    H3      20.597503   19.762514   23.662398 H          1 MOL1         0.0736
      10    H4      21.719793   18.425210   23.474200 H          1 MOL1         0.0736
      11    C5      19.640186   17.838399   23.325903 C.3        1 MOL1        -0.1866
      12    H5      19.824722   16.923699   22.745619 H          1 MOL1         0.0738
      13    H6      19.639924   17.543785   24.384393 H          1 MOL1         0.0738
      14    C6      18.254292   18.413668   22.963698 C.3        1 MOL1        -0.2879
      15    H7      18.194690   18.660691   21.895765 H          1 MOL1         0.0750
      16    H8      17.463934   17.684767   23.184839 H          1 MOL1         0.0750
      17    H9      18.045360   19.325396   23.538321 H          1 MOL1         0.0750
@<TRIPOS>BOND
    1     1     2    1
    2     1     3    2
    3     1     4    1
    4     4     5    1
    5     4     6    2
    6     6     7    1
    7     6     8    1
    8     8     9    1
    9     8    10    1
   10     8    11    1
   11    11    12    1
   12    11    13    1
   13    11    14    1
   14    14    15    1
   15    14    16    1
   16    14    17    1
@<TRIPOS>SUBSTRUCTURE
       1 MOL1            1 RESIDUE      1      MOL     
@<SCITEGIC>MOL_PROPERTY
VConf Rank
SciTegic.value.IntegerValue
472

@<SCITEGIC>MOL_PROPERTY
Conf_Id
SciTegic.value.IntegerValue
45

@<SCITEGIC>MOL_PROPERTY
Delta U+W
SciTegic.value.DoubleValue
0.562

@<SCITEGIC>MOL_PROPERTY
U+W
SciTegic.value.DoubleValue
-52.846

@<SCITEGIC>MOL_PROPERTY
Grad RMS
SciTegic.value.DoubleValue
0.000000

@<SCITEGIC>MOL_PROPERTY
U
SciTegic.value.DoubleValue
10.243

@<SCITEGIC>MOL_PROPERTY
W
SciTegic.value.DoubleValue
-63.089

@<SCITEGIC>MOL_PROPERTY
W(PB)
SciTegic.value.DoubleValue
-65.116

@<SCITEGIC>MOL_PROPERTY
W(SA)
SciTegic.value.DoubleValue
2.026

@<SCITEGIC>MOL_PROPERTY
Valence
SciTegic.value.DoubleValue
2.822

@<SCITEGIC>MOL_PROPERTY
Coulomb
SciTegic.value.DoubleValue
6.637

@<SCITEGIC>MOL_PROPERTY
VdW
SciTegic.value.DoubleValue
0.785

@<SCITEGIC>MOL_PROPERTY
VdW6
SciTegic.value.DoubleValue
-5.216

@<SCITEGIC>MOL_PROPERTY
VdW12
SciTegic.value.DoubleValue
6.001

@<SCITEGIC>MOL_PROPERTY
Bond
SciTegic.value.DoubleValue
0.080

@<SCITEGIC>MOL_PROPERTY
Angle
SciTegic.value.DoubleValue
2.678

@<SCITEGIC>MOL_PROPERTY
Pdih
SciTegic.value.DoubleValue
0.064

@<SCITEGIC>MOL_PROPERTY
Idih
SciTegic.value.DoubleValue
0.000

@<SCITEGIC>MOL_PROPERTY
Tether
SciTegic.value.DoubleValue
0.000

@<TRIPOS>MOLECULE
guest-s19_confgen4.mol2 : confsearch ligand conformer 473
          17          16           1
SMALL
USER_CHARGES
 
@<TRIPOS>ATOM
       1    C1      19.947037   22.489608   21.991892 C.2        1 MOL1         0.6173
       2    O1      19.864198   23.235947   22.947831 O.co2      1 MOL1        -0.6755
       3    O2      19.799388   22.866756   20.844567 O.co2      1 MOL1        -0.6755
       4    C2      20.244192   21.056813   22.262001 C.2        1 MOL1        -0.1504
       5    H1      20.364598   20.786189   23.308507 H          1 MOL1         0.0814
       6    C3      20.362965   20.116749   21.296984 C.2        1 MOL1        -0.1394
       7    H2      20.241898   20.376495   20.245486 H          1 MOL1         0.0817
       8    C4      20.663203   18.661143   21.580366 C.3        1 MOL1        -0.1849
       9    H3      21.386372   18.580133   22.403332 H          1 MOL1         0.0736
      10    H4      21.138234   18.205623   20.701028 H          1 MOL1         0.0736
      11    C5      19.380575   17.881736   21.935899 C.3        1 MOL1        -0.1866
      12    H5      18.906275   18.333707   22.818125 H          1 MOL1         0.0738
      13    H6      18.659672   17.962541   21.110467 H          1 MOL1         0.0738
      14    C6      19.676789   16.394870   22.216989 C.3        1 MOL1        -0.2879
      15    H7      20.122983   15.910175   21.338687 H          1 MOL1         0.0750
      16    H8      20.372218   16.285306   23.059492 H          1 MOL1         0.0750
      17    H9      18.753153   15.857247   22.467965 H          1 MOL1         0.0750
@<TRIPOS>BOND
    1     1     2    1
    2     1     3    2
    3     1     4    1
    4     4     5    1
    5     4     6    2
    6     6     7    1
    7     6     8    1
    8     8     9    1
    9     8    10    1
   10     8    11    1
   11    11    12    1
   12    11    13    1
   13    11    14    1
   14    14    15    1
   15    14    16    1
   16    14    17    1
@<TRIPOS>SUBSTRUCTURE
       1 MOL1            1 RESIDUE      1      MOL     
@<SCITEGIC>MOL_PROPERTY
VConf Rank
SciTegic.value.IntegerValue
473

@<SCITEGIC>MOL_PROPERTY
Conf_Id
SciTegic.value.IntegerValue
36

@<SCITEGIC>MOL_PROPERTY
Delta U+W
SciTegic.value.DoubleValue
0.000

@<SCITEGIC>MOL_PROPERTY
U+W
SciTegic.value.DoubleValue
-53.409

@<SCITEGIC>MOL_PROPERTY
Grad RMS
SciTegic.value.DoubleValue
0.000000

@<SCITEGIC>MOL_PROPERTY
U
SciTegic.value.DoubleValue
9.048

@<SCITEGIC>MOL_PROPERTY
W
SciTegic.value.DoubleValue
-62.457

@<SCITEGIC>MOL_PROPERTY
W(PB)
SciTegic.value.DoubleValue
-64.540

@<SCITEGIC>MOL_PROPERTY
W(SA)
SciTegic.value.DoubleValue
2.084

@<SCITEGIC>MOL_PROPERTY
Valence
SciTegic.value.DoubleValue
2.652

@<SCITEGIC>MOL_PROPERTY
Coulomb
SciTegic.value.DoubleValue
5.578

@<SCITEGIC>MOL_PROPERTY
VdW
SciTegic.value.DoubleValue
0.818

@<SCITEGIC>MOL_PROPERTY
VdW6
SciTegic.value.DoubleValue
-4.534

@<SCITEGIC>MOL_PROPERTY
VdW12
SciTegic.value.DoubleValue
5.352

@<SCITEGIC>MOL_PROPERTY
Bond
SciTegic.value.DoubleValue
0.063

@<SCITEGIC>MOL_PROPERTY
Angle
SciTegic.value.DoubleValue
2.579

@<SCITEGIC>MOL_PROPERTY
Pdih
SciTegic.value.DoubleValue
0.010

@<SCITEGIC>MOL_PROPERTY
Idih
SciTegic.value.DoubleValue
0.000

@<SCITEGIC>MOL_PROPERTY
Tether
SciTegic.value.DoubleValue
0.000

@<TRIPOS>MOLECULE
guest-s19_confgen4.mol2 : confsearch ligand conformer 474
          17          16           1
SMALL
USER_CHARGES
 
@<TRIPOS>ATOM
       1    C1      20.236843   22.308490   22.908780 C.2        1 MOL1         0.6173
       2    O1      19.479281   22.948917   22.204262 O.co2      1 MOL1        -0.6755
       3    O2      21.044214   22.829037   23.653689 O.co2      1 MOL1        -0.6755
       4    C2      20.190939   20.821561   22.875648 C.2        1 MOL1        -0.1504
       5    H1      20.894073   20.310349   23.529233 H          1 MOL1         0.0814
       6    C3      19.345536   20.110771   22.095161 C.2        1 MOL1        -0.1394
       7    H2      18.638490   20.612795   21.434986 H          1 MOL1         0.0817
       8    C4      19.306570   18.598530   22.066061 C.3        1 MOL1        -0.1849
       9    H3      18.313224   18.262416   21.739444 H          1 MOL1         0.0736
      10    H4      19.454103   18.199491   23.078883 H          1 MOL1         0.0736
      11    C5      20.381896   18.026805   21.119583 C.3        1 MOL1        -0.1866
      12    H5      20.230934   18.425652   20.106816 H          1 MOL1         0.0738
      13    H6      21.376812   18.358825   21.447402 H          1 MOL1         0.0738
      14    C6      20.342660   16.485964   21.077202 C.3        1 MOL1        -0.2879
      15    H7      19.367722   16.127291   20.721846 H          1 MOL1         0.0750
      16    H8      21.114032   16.097953   20.399292 H          1 MOL1         0.0750
      17    H9      20.522164   16.060885   22.073456 H          1 MOL1         0.0750
@<TRIPOS>BOND
    1     1     2    1
    2     1     3    2
    3     1     4    1
    4     4     5    1
    5     4     6    2
    6     6     7    1
    7     6     8    1
    8     8     9    1
    9     8    10    1
   10     8    11    1
   11    11    12    1
   12    11    13    1
   13    11    14    1
   14    14    15    1
   15    14    16    1
   16    14    17    1
@<TRIPOS>SUBSTRUCTURE
       1 MOL1            1 RESIDUE      1      MOL     
@<SCITEGIC>MOL_PROPERTY
VConf Rank
SciTegic.value.IntegerValue
474

@<SCITEGIC>MOL_PROPERTY
Conf_Id
SciTegic.value.IntegerValue
1

@<SCITEGIC>MOL_PROPERTY
Delta U+W
SciTegic.value.DoubleValue
0.030

@<SCITEGIC>MOL_PROPERTY
U+W
SciTegic.value.DoubleValue
-53.378

@<SCITEGIC>MOL_PROPERTY
Grad RMS
SciTegic.value.DoubleValue
0.000000

@<SCITEGIC>MOL_PROPERTY
U
SciTegic.value.DoubleValue
9.048

@<SCITEGIC>MOL_PROPERTY
W
SciTegic.value.DoubleValue
-62.426

@<SCITEGIC>MOL_PROPERTY
W(PB)
SciTegic.value.DoubleValue
-64.506

@<SCITEGIC>MOL_PROPERTY
W(SA)
SciTegic.value.DoubleValue
2.080

@<SCITEGIC>MOL_PROPERTY
Valence
SciTegic.value.DoubleValue
2.652

@<SCITEGIC>MOL_PROPERTY
Coulomb
SciTegic.value.DoubleValue
5.578

@<SCITEGIC>MOL_PROPERTY
VdW
SciTegic.value.DoubleValue
0.818

@<SCITEGIC>MOL_PROPERTY
VdW6
SciTegic.value.DoubleValue
-4.535

@<SCITEGIC>MOL_PROPERTY
VdW12
SciTegic.value.DoubleValue
5.352

@<SCITEGIC>MOL_PROPERTY
Bond
SciTegic.value.DoubleValue
0.063

@<SCITEGIC>MOL_PROPERTY
Angle
SciTegic.value.DoubleValue
2.579

@<SCITEGIC>MOL_PROPERTY
Pdih
SciTegic.value.DoubleValue
0.010

@<SCITEGIC>MOL_PROPERTY
Idih
SciTegic.value.DoubleValue
0.000

@<SCITEGIC>MOL_PROPERTY
Tether
SciTegic.value.DoubleValue
0.000

@<TRIPOS>MOLECULE
guest-s19_confgen4.mol2 : confsearch ligand conformer 475
          17          16           1
SMALL
USER_CHARGES
 
@<TRIPOS>ATOM
       1    C1      21.450526   18.841503   24.767549 C.2        1 MOL1         0.6173
       2    O1      20.797974   19.625041   25.431390 O.co2      1 MOL1        -0.6755
       3    O2      22.197341   18.019705   25.262248 O.co2      1 MOL1        -0.6755
       4    C2      21.349809   18.873205   23.283318 C.2        1 MOL1        -0.1504
       5    H1      21.959692   18.147312   22.750512 H          1 MOL1         0.0814
       6    C3      20.559519   19.731782   22.599744 C.2        1 MOL1        -0.1394
       7    H2      19.941824   20.460867   23.123658 H          1 MOL1         0.0817
       8    C4      20.459238   19.755573   21.088985 C.3        1 MOL1        -0.1849
       9    H3      21.456964   19.615633   20.651394 H          1 MOL1         0.0736
      10    H4      20.113606   20.742704   20.753716 H          1 MOL1         0.0736
      11    C5      19.510628   18.664423   20.545761 C.3        1 MOL1        -0.1866
      12    H5      19.558955   18.660456   19.448126 H          1 MOL1         0.0738
      13    H6      19.854643   17.675329   20.878590 H          1 MOL1         0.0738
      14    C6      18.046897   18.880839   20.985497 C.3        1 MOL1        -0.2879
      15    H7      17.677344   19.859375   20.652266 H          1 MOL1         0.0750
      16    H8      17.396481   18.108405   20.555136 H          1 MOL1         0.0750
      17    H9      17.950116   18.831647   22.077942 H          1 MOL1         0.0750
@<TRIPOS>BOND
    1     1     2    1
    2     1     3    2
    3     1     4    1
    4     4     5    1
    5     4     6    2
    6     6     7    1
    7     6     8    1
    8     8     9    1
    9     8    10    1
   10     8    11    1
   11    11    12    1
   12    11    13    1
   13    11    14    1
   14    14    15    1
   15    14    16    1
   16    14    17    1
@<TRIPOS>SUBSTRUCTURE
       1 MOL1            1 RESIDUE      1      MOL     
@<SCITEGIC>MOL_PROPERTY
VConf Rank
SciTegic.value.IntegerValue
475

@<SCITEGIC>MOL_PROPERTY
Conf_Id
SciTegic.value.IntegerValue
3

@<SCITEGIC>MOL_PROPERTY
Delta U+W
SciTegic.value.DoubleValue
0.531

@<SCITEGIC>MOL_PROPERTY
U+W
SciTegic.value.DoubleValue
-52.878

@<SCITEGIC>MOL_PROPERTY
Grad RMS
SciTegic.value.DoubleValue
0.000000

@<SCITEGIC>MOL_PROPERTY
U
SciTegic.value.DoubleValue
10.067

@<SCITEGIC>MOL_PROPERTY
W
SciTegic.value.DoubleValue
-62.945

@<SCITEGIC>MOL_PROPERTY
W(PB)
SciTegic.value.DoubleValue
-64.982

@<SCITEGIC>MOL_PROPERTY
W(SA)
SciTegic.value.DoubleValue
2.037

@<SCITEGIC>MOL_PROPERTY
Valence
SciTegic.value.DoubleValue
2.779

@<SCITEGIC>MOL_PROPERTY
Coulomb
SciTegic.value.DoubleValue
6.474

@<SCITEGIC>MOL_PROPERTY
VdW
SciTegic.value.DoubleValue
0.815

@<SCITEGIC>MOL_PROPERTY
VdW6
SciTegic.value.DoubleValue
-5.088

@<SCITEGIC>MOL_PROPERTY
VdW12
SciTegic.value.DoubleValue
5.902

@<SCITEGIC>MOL_PROPERTY
Bond
SciTegic.value.DoubleValue
0.078

@<SCITEGIC>MOL_PROPERTY
Angle
SciTegic.value.DoubleValue
2.651

@<SCITEGIC>MOL_PROPERTY
Pdih
SciTegic.value.DoubleValue
0.050

@<SCITEGIC>MOL_PROPERTY
Idih
SciTegic.value.DoubleValue
0.000

@<SCITEGIC>MOL_PROPERTY
Tether
SciTegic.value.DoubleValue
0.000

@<TRIPOS>MOLECULE
guest-s19_confgen4.mol2 : confsearch ligand conformer 476
          17          16           1
SMALL
USER_CHARGES
 
@<TRIPOS>ATOM
       1    C1      22.876378   19.199101   21.238782 C.2        1 MOL1         0.6173
       2    O1      23.367539   19.572381   20.191307 O.co2      1 MOL1        -0.6755
       3    O2      23.454888   18.459936   22.012998 O.co2      1 MOL1        -0.6755
       4    C2      21.508389   19.683407   21.567606 C.2        1 MOL1        -0.1504
       5    H1      21.049036   20.340635   20.832928 H          1 MOL1         0.0814
       6    C3      20.840813   19.347516   22.695039 C.2        1 MOL1        -0.1394
       7    H2      21.292221   18.686639   23.434627 H          1 MOL1         0.0817
       8    C4      19.447088   19.839990   23.025696 C.3        1 MOL1        -0.1849
       9    H3      19.190637   20.714537   22.412393 H          1 MOL1         0.0736
      10    H4      19.426017   20.182087   24.069025 H          1 MOL1         0.0736
      11    C5      18.377361   18.742164   22.836934 C.3        1 MOL1        -0.1866
      12    H5      18.634541   17.865914   23.448083 H          1 MOL1         0.0738
      13    H6      17.413072   19.113256   23.210614 H          1 MOL1         0.0738
      14    C6      18.215402   18.318115   21.361542 C.3        1 MOL1        -0.2879
      15    H7      19.143529   17.881162   20.970767 H          1 MOL1         0.0750
      16    H8      17.421537   17.566798   21.260709 H          1 MOL1         0.0750
      17    H9      17.950430   19.178082   20.732782 H          1 MOL1         0.0750
@<TRIPOS>BOND
    1     1     2    1
    2     1     3    2
    3     1     4    1
    4     4     5    1
    5     4     6    2
    6     6     7    1
    7     6     8    1
    8     8     9    1
    9     8    10    1
   10     8    11    1
   11    11    12    1
   12    11    13    1
   13    11    14    1
   14    14    15    1
   15    14    16    1
   16    14    17    1
@<TRIPOS>SUBSTRUCTURE
       1 MOL1            1 RESIDUE      1      MOL     
@<SCITEGIC>MOL_PROPERTY
VConf Rank
SciTegic.value.IntegerValue
476

@<SCITEGIC>MOL_PROPERTY
Conf_Id
SciTegic.value.IntegerValue
45

@<SCITEGIC>MOL_PROPERTY
Delta U+W
SciTegic.value.DoubleValue
0.562

@<SCITEGIC>MOL_PROPERTY
U+W
SciTegic.value.DoubleValue
-52.846

@<SCITEGIC>MOL_PROPERTY
Grad RMS
SciTegic.value.DoubleValue
0.000000

@<SCITEGIC>MOL_PROPERTY
U
SciTegic.value.DoubleValue
10.243

@<SCITEGIC>MOL_PROPERTY
W
SciTegic.value.DoubleValue
-63.089

@<SCITEGIC>MOL_PROPERTY
W(PB)
SciTegic.value.DoubleValue
-65.116

@<SCITEGIC>MOL_PROPERTY
W(SA)
SciTegic.value.DoubleValue
2.026

@<SCITEGIC>MOL_PROPERTY
Valence
SciTegic.value.DoubleValue
2.822

@<SCITEGIC>MOL_PROPERTY
Coulomb
SciTegic.value.DoubleValue
6.637

@<SCITEGIC>MOL_PROPERTY
VdW
SciTegic.value.DoubleValue
0.785

@<SCITEGIC>MOL_PROPERTY
VdW6
SciTegic.value.DoubleValue
-5.216

@<SCITEGIC>MOL_PROPERTY
VdW12
SciTegic.value.DoubleValue
6.001

@<SCITEGIC>MOL_PROPERTY
Bond
SciTegic.value.DoubleValue
0.080

@<SCITEGIC>MOL_PROPERTY
Angle
SciTegic.value.DoubleValue
2.678

@<SCITEGIC>MOL_PROPERTY
Pdih
SciTegic.value.DoubleValue
0.064

@<SCITEGIC>MOL_PROPERTY
Idih
SciTegic.value.DoubleValue
0.000

@<SCITEGIC>MOL_PROPERTY
Tether
SciTegic.value.DoubleValue
0.000

@<TRIPOS>MOLECULE
guest-s19_confgen4.mol2 : confsearch ligand conformer 477
          17          16           1
SMALL
USER_CHARGES
 
@<TRIPOS>ATOM
       1    C1      19.828372   21.812146   23.936087 C.2        1 MOL1         0.6173
       2    O1      20.347970   22.903575   23.807622 O.co2      1 MOL1        -0.6755
       3    O2      19.321421   21.440314   24.977786 O.co2      1 MOL1        -0.6755
       4    C2      19.823242   20.909595   22.753067 C.2        1 MOL1        -0.1504
       5    H1      20.292393   21.302827   21.854081 H          1 MOL1         0.0814
       6    C3      19.282516   19.669958   22.753115 C.2        1 MOL1        -0.1394
       7    H2      18.812085   19.265211   23.649020 H          1 MOL1         0.0817
       8    C4      19.283427   18.757509   21.546187 C.3        1 MOL1        -0.1849
       9    H3      19.110588   19.342797   20.632746 H          1 MOL1         0.0736
      10    H4      18.450944   18.045151   21.623027 H          1 MOL1         0.0736
      11    C5      20.613556   17.985916   21.426117 C.3        1 MOL1        -0.1866
      12    H5      21.447201   18.697255   21.344908 H          1 MOL1         0.0738
      13    H6      20.783193   17.399734   22.339999 H          1 MOL1         0.0738
      14    C6      20.618939   17.046412   20.203485 C.3        1 MOL1        -0.2879
      15    H7      19.813542   16.303684   20.275049 H          1 MOL1         0.0750
      16    H8      20.481960   17.612269   19.272636 H          1 MOL1         0.0750
      17    H9      21.572402   16.506685   20.134685 H          1 MOL1         0.0750
@<TRIPOS>BOND
    1     1     2    1
    2     1     3    2
    3     1     4    1
    4     4     5    1
    5     4     6    2
    6     6     7    1
    7     6     8    1
    8     8     9    1
    9     8    10    1
   10     8    11    1
   11    11    12    1
   12    11    13    1
   13    11    14    1
   14    14    15    1
   15    14    16    1
   16    14    17    1
@<TRIPOS>SUBSTRUCTURE
       1 MOL1            1 RESIDUE      1      MOL     
@<SCITEGIC>MOL_PROPERTY
VConf Rank
SciTegic.value.IntegerValue
477

@<SCITEGIC>MOL_PROPERTY
Conf_Id
SciTegic.value.IntegerValue
36

@<SCITEGIC>MOL_PROPERTY
Delta U+W
SciTegic.value.DoubleValue
0.000

@<SCITEGIC>MOL_PROPERTY
U+W
SciTegic.value.DoubleValue
-53.409

@<SCITEGIC>MOL_PROPERTY
Grad RMS
SciTegic.value.DoubleValue
0.000000

@<SCITEGIC>MOL_PROPERTY
U
SciTegic.value.DoubleValue
9.048

@<SCITEGIC>MOL_PROPERTY
W
SciTegic.value.DoubleValue
-62.457

@<SCITEGIC>MOL_PROPERTY
W(PB)
SciTegic.value.DoubleValue
-64.540

@<SCITEGIC>MOL_PROPERTY
W(SA)
SciTegic.value.DoubleValue
2.084

@<SCITEGIC>MOL_PROPERTY
Valence
SciTegic.value.DoubleValue
2.652

@<SCITEGIC>MOL_PROPERTY
Coulomb
SciTegic.value.DoubleValue
5.578

@<SCITEGIC>MOL_PROPERTY
VdW
SciTegic.value.DoubleValue
0.818

@<SCITEGIC>MOL_PROPERTY
VdW6
SciTegic.value.DoubleValue
-4.534

@<SCITEGIC>MOL_PROPERTY
VdW12
SciTegic.value.DoubleValue
5.352

@<SCITEGIC>MOL_PROPERTY
Bond
SciTegic.value.DoubleValue
0.063

@<SCITEGIC>MOL_PROPERTY
Angle
SciTegic.value.DoubleValue
2.579

@<SCITEGIC>MOL_PROPERTY
Pdih
SciTegic.value.DoubleValue
0.010

@<SCITEGIC>MOL_PROPERTY
Idih
SciTegic.value.DoubleValue
0.000

@<SCITEGIC>MOL_PROPERTY
Tether
SciTegic.value.DoubleValue
0.000

@<TRIPOS>MOLECULE
guest-s19_confgen4.mol2 : confsearch ligand conformer 478
          17          16           1
SMALL
USER_CHARGES
 
@<TRIPOS>ATOM
       1    C1      23.225301   19.610762   22.806855 C.2        1 MOL1         0.6173
       2    O1      23.908737   18.902373   22.091666 O.co2      1 MOL1        -0.6755
       3    O2      23.669669   20.194617   23.776058 O.co2      1 MOL1        -0.6755
       4    C2      21.779697   19.786841   22.501259 C.2        1 MOL1        -0.1504
       5    H1      21.226479   20.432594   23.179390 H          1 MOL1         0.0814
       6    C3      21.152701   19.197765   21.457730 C.2        1 MOL1        -0.1394
       7    H2      21.696915   18.547162   20.773391 H          1 MOL1         0.0817
       8    C4      19.681587   19.380618   21.155034 C.3        1 MOL1        -0.1849
       9    H3      19.500958   19.201904   20.086473 H          1 MOL1         0.0736
      10    H4      19.383738   20.419345   21.352869 H          1 MOL1         0.0736
      11    C5      18.811961   18.421151   21.993002 C.3        1 MOL1        -0.1866
      12    H5      19.110271   17.382839   21.791788 H          1 MOL1         0.0738
      13    H6      18.988446   18.601458   23.062536 H          1 MOL1         0.0738
      14    C6      17.311443   18.594869   21.683499 C.3        1 MOL1        -0.2879
      15    H7      17.101998   18.389127   20.625560 H          1 MOL1         0.0750
      16    H8      16.709313   17.904589   22.288547 H          1 MOL1         0.0750
      17    H9      16.980278   19.617718   21.906086 H          1 MOL1         0.0750
@<TRIPOS>BOND
    1     1     2    1
    2     1     3    2
    3     1     4    1
    4     4     5    1
    5     4     6    2
    6     6     7    1
    7     6     8    1
    8     8     9    1
    9     8    10    1
   10     8    11    1
   11    11    12    1
   12    11    13    1
   13    11    14    1
   14    14    15    1
   15    14    16    1
   16    14    17    1
@<TRIPOS>SUBSTRUCTURE
       1 MOL1            1 RESIDUE      1      MOL     
@<SCITEGIC>MOL_PROPERTY
VConf Rank
SciTegic.value.IntegerValue
478

@<SCITEGIC>MOL_PROPERTY
Conf_Id
SciTegic.value.IntegerValue
1

@<SCITEGIC>MOL_PROPERTY
Delta U+W
SciTegic.value.DoubleValue
0.030

@<SCITEGIC>MOL_PROPERTY
U+W
SciTegic.value.DoubleValue
-53.378

@<SCITEGIC>MOL_PROPERTY
Grad RMS
SciTegic.value.DoubleValue
0.000000

@<SCITEGIC>MOL_PROPERTY
U
SciTegic.value.DoubleValue
9.048

@<SCITEGIC>MOL_PROPERTY
W
SciTegic.value.DoubleValue
-62.426

@<SCITEGIC>MOL_PROPERTY
W(PB)
SciTegic.value.DoubleValue
-64.506

@<SCITEGIC>MOL_PROPERTY
W(SA)
SciTegic.value.DoubleValue
2.080

@<SCITEGIC>MOL_PROPERTY
Valence
SciTegic.value.DoubleValue
2.652

@<SCITEGIC>MOL_PROPERTY
Coulomb
SciTegic.value.DoubleValue
5.578

@<SCITEGIC>MOL_PROPERTY
VdW
SciTegic.value.DoubleValue
0.818

@<SCITEGIC>MOL_PROPERTY
VdW6
SciTegic.value.DoubleValue
-4.535

@<SCITEGIC>MOL_PROPERTY
VdW12
SciTegic.value.DoubleValue
5.352

@<SCITEGIC>MOL_PROPERTY
Bond
SciTegic.value.DoubleValue
0.063

@<SCITEGIC>MOL_PROPERTY
Angle
SciTegic.value.DoubleValue
2.579

@<SCITEGIC>MOL_PROPERTY
Pdih
SciTegic.value.DoubleValue
0.010

@<SCITEGIC>MOL_PROPERTY
Idih
SciTegic.value.DoubleValue
0.000

@<SCITEGIC>MOL_PROPERTY
Tether
SciTegic.value.DoubleValue
0.000

@<TRIPOS>MOLECULE
guest-s19_confgen4.mol2 : confsearch ligand conformer 479
          17          16           1
SMALL
USER_CHARGES
 
@<TRIPOS>ATOM
       1    C1      17.284101   17.821187   21.395114 C.2        1 MOL1         0.6173
       2    O1      17.096135   18.270523   20.280122 O.co2      1 MOL1        -0.6755
       3    O2      16.652826   16.884280   21.844012 O.co2      1 MOL1        -0.6755
       4    C2      18.324182   18.430246   22.267679 C.2        1 MOL1        -0.1504
       5    H1      18.440418   17.981849   23.251645 H          1 MOL1         0.0814
       6    C3      19.100614   19.474250   21.898633 C.2        1 MOL1        -0.1394
       7    H2      18.994876   19.928932   20.913909 H          1 MOL1         0.0817
       8    C4      20.159980   20.086435   22.790815 C.3        1 MOL1        -0.1849
       9    H3      19.784043   20.146412   23.821155 H          1 MOL1         0.0736
      10    H4      20.359892   21.119871   22.477226 H          1 MOL1         0.0736
      11    C5      21.476736   19.279238   22.778571 C.3        1 MOL1        -0.1866
      12    H5      22.166877   19.706561   23.519013 H          1 MOL1         0.0738
      13    H6      21.280093   18.244924   23.093140 H          1 MOL1         0.0738
      14    C6      22.158513   19.280725   21.393692 C.3        1 MOL1        -0.2879
      15    H7      22.376203   20.305044   21.064259 H          1 MOL1         0.0750
      16    H8      23.105985   18.727619   21.429450 H          1 MOL1         0.0750
      17    H9      21.520083   18.805701   20.637398 H          1 MOL1         0.0750
@<TRIPOS>BOND
    1     1     2    1
    2     1     3    2
    3     1     4    1
    4     4     5    1
    5     4     6    2
    6     6     7    1
    7     6     8    1
    8     8     9    1
    9     8    10    1
   10     8    11    1
   11    11    12    1
   12    11    13    1
   13    11    14    1
   14    14    15    1
   15    14    16    1
   16    14    17    1
@<TRIPOS>SUBSTRUCTURE
       1 MOL1            1 RESIDUE      1      MOL     
@<SCITEGIC>MOL_PROPERTY
VConf Rank
SciTegic.value.IntegerValue
479

@<SCITEGIC>MOL_PROPERTY
Conf_Id
SciTegic.value.IntegerValue
3

@<SCITEGIC>MOL_PROPERTY
Delta U+W
SciTegic.value.DoubleValue
0.531

@<SCITEGIC>MOL_PROPERTY
U+W
SciTegic.value.DoubleValue
-52.878

@<SCITEGIC>MOL_PROPERTY
Grad RMS
SciTegic.value.DoubleValue
0.000000

@<SCITEGIC>MOL_PROPERTY
U
SciTegic.value.DoubleValue
10.067

@<SCITEGIC>MOL_PROPERTY
W
SciTegic.value.DoubleValue
-62.945

@<SCITEGIC>MOL_PROPERTY
W(PB)
SciTegic.value.DoubleValue
-64.982

@<SCITEGIC>MOL_PROPERTY
W(SA)
SciTegic.value.DoubleValue
2.037

@<SCITEGIC>MOL_PROPERTY
Valence
SciTegic.value.DoubleValue
2.779

@<SCITEGIC>MOL_PROPERTY
Coulomb
SciTegic.value.DoubleValue
6.474

@<SCITEGIC>MOL_PROPERTY
VdW
SciTegic.value.DoubleValue
0.815

@<SCITEGIC>MOL_PROPERTY
VdW6
SciTegic.value.DoubleValue
-5.088

@<SCITEGIC>MOL_PROPERTY
VdW12
SciTegic.value.DoubleValue
5.902

@<SCITEGIC>MOL_PROPERTY
Bond
SciTegic.value.DoubleValue
0.078

@<SCITEGIC>MOL_PROPERTY
Angle
SciTegic.value.DoubleValue
2.651

@<SCITEGIC>MOL_PROPERTY
Pdih
SciTegic.value.DoubleValue
0.050

@<SCITEGIC>MOL_PROPERTY
Idih
SciTegic.value.DoubleValue
0.000

@<SCITEGIC>MOL_PROPERTY
Tether
SciTegic.value.DoubleValue
0.000

@<TRIPOS>MOLECULE
guest-s19_confgen4.mol2 : confsearch ligand conformer 480
          17          16           1
SMALL
USER_CHARGES
 
@<TRIPOS>ATOM
       1    C1      19.065088   18.889436   19.205594 C.2        1 MOL1         0.6173
       2    O1      18.306124   19.603644   18.579765 O.co2      1 MOL1        -0.6755
       3    O2      19.318160   17.745792   18.876229 O.co2      1 MOL1        -0.6755
       4    C2      19.702398   19.462579   20.421906 C.2        1 MOL1        -0.1504
       5    H1      19.432898   20.489133   20.659101 H          1 MOL1         0.0814
       6    C3      20.563497   18.782657   21.212981 C.2        1 MOL1        -0.1394
       7    H2      20.836073   17.752567   20.984651 H          1 MOL1         0.0817
       8    C4      21.208568   19.367983   22.452180 C.3        1 MOL1        -0.1849
       9    H3      21.135372   20.464035   22.444909 H          1 MOL1         0.0736
      10    H4      22.281417   19.133655   22.442430 H          1 MOL1         0.0736
      11    C5      20.587004   18.815058   23.753371 C.3        1 MOL1        -0.1866
      12    H5      20.657432   17.718494   23.760252 H          1 MOL1         0.0738
      13    H6      21.173541   19.172539   24.610913 H          1 MOL1         0.0738
      14    C6      19.115336   19.243105   23.937221 C.3        1 MOL1        -0.2879
      15    H7      18.484226   18.848459   23.130371 H          1 MOL1         0.0750
      16    H8      18.719508   18.865672   24.888919 H          1 MOL1         0.0750
      17    H9      19.022237   20.336911   23.941037 H          1 MOL1         0.0750
@<TRIPOS>BOND
    1     1     2    1
    2     1     3    2
    3     1     4    1
    4     4     5    1
    5     4     6    2
    6     6     7    1
    7     6     8    1
    8     8     9    1
    9     8    10    1
   10     8    11    1
   11    11    12    1
   12    11    13    1
   13    11    14    1
   14    14    15    1
   15    14    16    1
   16    14    17    1
@<TRIPOS>SUBSTRUCTURE
       1 MOL1            1 RESIDUE      1      MOL     
@<SCITEGIC>MOL_PROPERTY
VConf Rank
SciTegic.value.IntegerValue
480

@<SCITEGIC>MOL_PROPERTY
Conf_Id
SciTegic.value.IntegerValue
45

@<SCITEGIC>MOL_PROPERTY
Delta U+W
SciTegic.value.DoubleValue
0.562

@<SCITEGIC>MOL_PROPERTY
U+W
SciTegic.value.DoubleValue
-52.846

@<SCITEGIC>MOL_PROPERTY
Grad RMS
SciTegic.value.DoubleValue
0.000000

@<SCITEGIC>MOL_PROPERTY
U
SciTegic.value.DoubleValue
10.243

@<SCITEGIC>MOL_PROPERTY
W
SciTegic.value.DoubleValue
-63.089

@<SCITEGIC>MOL_PROPERTY
W(PB)
SciTegic.value.DoubleValue
-65.116

@<SCITEGIC>MOL_PROPERTY
W(SA)
SciTegic.value.DoubleValue
2.026

@<SCITEGIC>MOL_PROPERTY
Valence
SciTegic.value.DoubleValue
2.822

@<SCITEGIC>MOL_PROPERTY
Coulomb
SciTegic.value.DoubleValue
6.637

@<SCITEGIC>MOL_PROPERTY
VdW
SciTegic.value.DoubleValue
0.785

@<SCITEGIC>MOL_PROPERTY
VdW6
SciTegic.value.DoubleValue
-5.216

@<SCITEGIC>MOL_PROPERTY
VdW12
SciTegic.value.DoubleValue
6.001

@<SCITEGIC>MOL_PROPERTY
Bond
SciTegic.value.DoubleValue
0.080

@<SCITEGIC>MOL_PROPERTY
Angle
SciTegic.value.DoubleValue
2.678

@<SCITEGIC>MOL_PROPERTY
Pdih
SciTegic.value.DoubleValue
0.064

@<SCITEGIC>MOL_PROPERTY
Idih
SciTegic.value.DoubleValue
0.000

@<SCITEGIC>MOL_PROPERTY
Tether
SciTegic.value.DoubleValue
0.000

@<TRIPOS>MOLECULE
guest-s19_confgen4.mol2 : confsearch ligand conformer 481
          17          16           1
SMALL
USER_CHARGES
 
@<TRIPOS>ATOM
       1    C1      19.321826   17.442893   24.763469 C.2        1 MOL1         0.6173
       2    O1      18.444153   16.633372   24.991655 O.co2      1 MOL1        -0.6755
       3    O2      19.990196   17.957445   25.640345 O.co2      1 MOL1        -0.6755
       4    C2      19.572013   17.803263   23.341603 C.2        1 MOL1        -0.1504
       5    H1      18.940162   17.307595   22.608128 H          1 MOL1         0.0814
       6    C3      20.513754   18.688234   22.942814 C.2        1 MOL1        -0.1394
       7    H2      21.150669   19.192340   23.669444 H          1 MOL1         0.0817
       8    C4      20.760320   19.050811   21.494718 C.3        1 MOL1        -0.1849
       9    H3      20.659438   18.158637   20.861743 H          1 MOL1         0.0736
      10    H4      21.793451   19.403840   21.374728 H          1 MOL1         0.0736
      11    C5      19.782668   20.142920   21.014606 C.3        1 MOL1        -0.1866
      12    H5      18.748544   19.789630   21.130077 H          1 MOL1         0.0738
      13    H6      19.886883   21.034904   21.647908 H          1 MOL1         0.0738
      14    C6      20.033626   20.524936   19.541986 C.3        1 MOL1        -0.2879
      15    H7      21.051839   20.911903   19.404403 H          1 MOL1         0.0750
      16    H8      19.905034   19.655985   18.883332 H          1 MOL1         0.0750
      17    H9      19.329176   21.302330   19.218660 H          1 MOL1         0.0750
@<TRIPOS>BOND
    1     1     2    1
    2     1     3    2
    3     1     4    1
    4     4     5    1
    5     4     6    2
    6     6     7    1
    7     6     8    1
    8     8     9    1
    9     8    10    1
   10     8    11    1
   11    11    12    1
   12    11    13    1
   13    11    14    1
   14    14    15    1
   15    14    16    1
   16    14    17    1
@<TRIPOS>SUBSTRUCTURE
       1 MOL1            1 RESIDUE      1      MOL     
@<SCITEGIC>MOL_PROPERTY
VConf Rank
SciTegic.value.IntegerValue
481

@<SCITEGIC>MOL_PROPERTY
Conf_Id
SciTegic.value.IntegerValue
36

@<SCITEGIC>MOL_PROPERTY
Delta U+W
SciTegic.value.DoubleValue
0.000

@<SCITEGIC>MOL_PROPERTY
U+W
SciTegic.value.DoubleValue
-53.409

@<SCITEGIC>MOL_PROPERTY
Grad RMS
SciTegic.value.DoubleValue
0.000000

@<SCITEGIC>MOL_PROPERTY
U
SciTegic.value.DoubleValue
9.048

@<SCITEGIC>MOL_PROPERTY
W
SciTegic.value.DoubleValue
-62.457

@<SCITEGIC>MOL_PROPERTY
W(PB)
SciTegic.value.DoubleValue
-64.540

@<SCITEGIC>MOL_PROPERTY
W(SA)
SciTegic.value.DoubleValue
2.084

@<SCITEGIC>MOL_PROPERTY
Valence
SciTegic.value.DoubleValue
2.652

@<SCITEGIC>MOL_PROPERTY
Coulomb
SciTegic.value.DoubleValue
5.578

@<SCITEGIC>MOL_PROPERTY
VdW
SciTegic.value.DoubleValue
0.818

@<SCITEGIC>MOL_PROPERTY
VdW6
SciTegic.value.DoubleValue
-4.534

@<SCITEGIC>MOL_PROPERTY
VdW12
SciTegic.value.DoubleValue
5.352

@<SCITEGIC>MOL_PROPERTY
Bond
SciTegic.value.DoubleValue
0.063

@<SCITEGIC>MOL_PROPERTY
Angle
SciTegic.value.DoubleValue
2.579

@<SCITEGIC>MOL_PROPERTY
Pdih
SciTegic.value.DoubleValue
0.010

@<SCITEGIC>MOL_PROPERTY
Idih
SciTegic.value.DoubleValue
0.000

@<SCITEGIC>MOL_PROPERTY
Tether
SciTegic.value.DoubleValue
0.000

@<TRIPOS>MOLECULE
guest-s19_confgen4.mol2 : confsearch ligand conformer 482
          17          16           1
SMALL
USER_CHARGES
 
@<TRIPOS>ATOM
       1    C1      17.930955   20.282490   24.285100 C.2        1 MOL1         0.6173
       2    O1      18.623797   20.839251   25.115991 O.co2      1 MOL1        -0.6755
       3    O2      16.750294   20.050722   24.458393 O.co2      1 MOL1        -0.6755
       4    C2      18.532224   19.858484   22.991710 C.2        1 MOL1        -0.1504
       5    H1      17.858501   19.366770   22.293696 H          1 MOL1         0.0814
       6    C3      19.830440   20.050824   22.665020 C.2        1 MOL1        -0.1394
       7    H2      20.514687   20.540423   23.357749 H          1 MOL1         0.0817
       8    C4      20.434478   19.614844   21.348093 C.3        1 MOL1        -0.1849
       9    H3      21.313565   20.233936   21.123776 H          1 MOL1         0.0736
      10    H4      19.717900   19.782415   20.532468 H          1 MOL1         0.0736
      11    C5      20.845245   18.128548   21.382937 C.3        1 MOL1        -0.1866
      12    H5      21.563574   17.963892   22.198080 H          1 MOL1         0.0738
      13    H6      19.965951   17.507359   21.603226 H          1 MOL1         0.0738
      14    C6      21.470408   17.678700   20.047148 C.3        1 MOL1        -0.2879
      15    H7      22.371058   18.263345   19.818131 H          1 MOL1         0.0750
      16    H8      21.756047   16.619638   20.091061 H          1 MOL1         0.0750
      17    H9      20.760368   17.804091   19.219165 H          1 MOL1         0.0750
@<TRIPOS>BOND
    1     1     2    1
    2     1     3    2
    3     1     4    1
    4     4     5    1
    5     4     6    2
    6     6     7    1
    7     6     8    1
    8     8     9    1
    9     8    10    1
   10     8    11    1
   11    11    12    1
   12    11    13    1
   13    11    14    1
   14    14    15    1
   15    14    16    1
   16    14    17    1
@<TRIPOS>SUBSTRUCTURE
       1 MOL1            1 RESIDUE      1      MOL     
@<SCITEGIC>MOL_PROPERTY
VConf Rank
SciTegic.value.IntegerValue
482

@<SCITEGIC>MOL_PROPERTY
Conf_Id
SciTegic.value.IntegerValue
1

@<SCITEGIC>MOL_PROPERTY
Delta U+W
SciTegic.value.DoubleValue
0.030

@<SCITEGIC>MOL_PROPERTY
U+W
SciTegic.value.DoubleValue
-53.378

@<SCITEGIC>MOL_PROPERTY
Grad RMS
SciTegic.value.DoubleValue
0.000000

@<SCITEGIC>MOL_PROPERTY
U
SciTegic.value.DoubleValue
9.048

@<SCITEGIC>MOL_PROPERTY
W
SciTegic.value.DoubleValue
-62.426

@<SCITEGIC>MOL_PROPERTY
W(PB)
SciTegic.value.DoubleValue
-64.506

@<SCITEGIC>MOL_PROPERTY
W(SA)
SciTegic.value.DoubleValue
2.080

@<SCITEGIC>MOL_PROPERTY
Valence
SciTegic.value.DoubleValue
2.652

@<SCITEGIC>MOL_PROPERTY
Coulomb
SciTegic.value.DoubleValue
5.578

@<SCITEGIC>MOL_PROPERTY
VdW
SciTegic.value.DoubleValue
0.818

@<SCITEGIC>MOL_PROPERTY
VdW6
SciTegic.value.DoubleValue
-4.535

@<SCITEGIC>MOL_PROPERTY
VdW12
SciTegic.value.DoubleValue
5.352

@<SCITEGIC>MOL_PROPERTY
Bond
SciTegic.value.DoubleValue
0.063

@<SCITEGIC>MOL_PROPERTY
Angle
SciTegic.value.DoubleValue
2.579

@<SCITEGIC>MOL_PROPERTY
Pdih
SciTegic.value.DoubleValue
0.010

@<SCITEGIC>MOL_PROPERTY
Idih
SciTegic.value.DoubleValue
0.000

@<SCITEGIC>MOL_PROPERTY
Tether
SciTegic.value.DoubleValue
0.000

@<TRIPOS>MOLECULE
guest-s19_confgen4.mol2 : confsearch ligand conformer 483
          17          16           1
SMALL
USER_CHARGES
 
@<TRIPOS>ATOM
       1    C1      22.561704   17.389906   22.423612 C.2        1 MOL1         0.6173
       2    O1      23.402656   18.159300   21.997850 O.co2      1 MOL1        -0.6755
       3    O2      22.839426   16.410741   23.088380 O.co2      1 MOL1        -0.6755
       4    C2      21.124066   17.634862   22.128170 C.2        1 MOL1        -0.1504
       5    H1      20.424986   16.909197   22.537385 H          1 MOL1         0.0814
       6    C3      20.671597   18.683221   21.403463 C.2        1 MOL1        -0.1394
       7    H2      21.362979   19.418065   20.991644 H          1 MOL1         0.0817
       8    C4      19.206352   18.928188   21.110099 C.3        1 MOL1        -0.1849
       9    H3      18.712359   17.974493   20.879961 H          1 MOL1         0.0736
      10    H4      19.105077   19.550297   20.210645 H          1 MOL1         0.0736
      11    C5      18.475762   19.604743   22.290808 C.3        1 MOL1        -0.1866
      12    H5      17.402136   19.660760   22.064221 H          1 MOL1         0.0738
      13    H6      18.574293   18.983903   23.192072 H          1 MOL1         0.0738
      14    C6      19.005553   21.025853   22.578001 C.3        1 MOL1        -0.2879
      15    H7      18.905294   21.668494   21.693634 H          1 MOL1         0.0750
      16    H8      18.442888   21.488833   23.398954 H          1 MOL1         0.0750
      17    H9      20.064427   21.002942   22.866933 H          1 MOL1         0.0750
@<TRIPOS>BOND
    1     1     2    1
    2     1     3    2
    3     1     4    1
    4     4     5    1
    5     4     6    2
    6     6     7    1
    7     6     8    1
    8     8     9    1
    9     8    10    1
   10     8    11    1
   11    11    12    1
   12    11    13    1
   13    11    14    1
   14    14    15    1
   15    14    16    1
   16    14    17    1
@<TRIPOS>SUBSTRUCTURE
       1 MOL1            1 RESIDUE      1      MOL     
@<SCITEGIC>MOL_PROPERTY
VConf Rank
SciTegic.value.IntegerValue
483

@<SCITEGIC>MOL_PROPERTY
Conf_Id
SciTegic.value.IntegerValue
3

@<SCITEGIC>MOL_PROPERTY
Delta U+W
SciTegic.value.DoubleValue
0.531

@<SCITEGIC>MOL_PROPERTY
U+W
SciTegic.value.DoubleValue
-52.878

@<SCITEGIC>MOL_PROPERTY
Grad RMS
SciTegic.value.DoubleValue
0.000000

@<SCITEGIC>MOL_PROPERTY
U
SciTegic.value.DoubleValue
10.067

@<SCITEGIC>MOL_PROPERTY
W
SciTegic.value.DoubleValue
-62.945

@<SCITEGIC>MOL_PROPERTY
W(PB)
SciTegic.value.DoubleValue
-64.982

@<SCITEGIC>MOL_PROPERTY
W(SA)
SciTegic.value.DoubleValue
2.037

@<SCITEGIC>MOL_PROPERTY
Valence
SciTegic.value.DoubleValue
2.779

@<SCITEGIC>MOL_PROPERTY
Coulomb
SciTegic.value.DoubleValue
6.474

@<SCITEGIC>MOL_PROPERTY
VdW
SciTegic.value.DoubleValue
0.815

@<SCITEGIC>MOL_PROPERTY
VdW6
SciTegic.value.DoubleValue
-5.088

@<SCITEGIC>MOL_PROPERTY
VdW12
SciTegic.value.DoubleValue
5.902

@<SCITEGIC>MOL_PROPERTY
Bond
SciTegic.value.DoubleValue
0.078

@<SCITEGIC>MOL_PROPERTY
Angle
SciTegic.value.DoubleValue
2.651

@<SCITEGIC>MOL_PROPERTY
Pdih
SciTegic.value.DoubleValue
0.050

@<SCITEGIC>MOL_PROPERTY
Idih
SciTegic.value.DoubleValue
0.000

@<SCITEGIC>MOL_PROPERTY
Tether
SciTegic.value.DoubleValue
0.000

@<TRIPOS>MOLECULE
guest-s19_confgen4.mol2 : confsearch ligand conformer 484
          17          16           1
SMALL
USER_CHARGES
 
@<TRIPOS>ATOM
       1    C1      22.388643   18.474118   20.370389 C.2        1 MOL1         0.6173
       2    O1      23.568376   18.484029   20.663497 O.co2      1 MOL1        -0.6755
       3    O2      21.992738   18.551925   19.222499 O.co2      1 MOL1        -0.6755
       4    C2      21.405396   18.357713   21.481131 C.2        1 MOL1        -0.1504
       5    H1      21.826374   18.292063   22.481718 H          1 MOL1         0.0814
       6    C3      20.064887   18.336540   21.301768 C.2        1 MOL1        -0.1394
       7    H2      19.634618   18.405521   20.302954 H          1 MOL1         0.0817
       8    C4      19.066334   18.220712   22.434822 C.3        1 MOL1        -0.1849
       9    H3      19.557347   17.854472   23.346696 H          1 MOL1         0.0736
      10    H4      18.311196   17.468103   22.171468 H          1 MOL1         0.0736
      11    C5      18.356644   19.560278   22.729896 C.3        1 MOL1        -0.1866
      12    H5      17.867408   19.928682   21.817544 H          1 MOL1         0.0738
      13    H6      17.559318   19.388941   23.466180 H          1 MOL1         0.0738
      14    C6      19.320823   20.636013   23.273939 C.3        1 MOL1        -0.2879
      15    H7      20.096886   20.881414   22.537354 H          1 MOL1         0.0750
      16    H8      18.776021   21.559552   23.508740 H          1 MOL1         0.0750
      17    H9      19.815869   20.291646   24.191236 H          1 MOL1         0.0750
@<TRIPOS>BOND
    1     1     2    1
    2     1     3    2
    3     1     4    1
    4     4     5    1
    5     4     6    2
    6     6     7    1
    7     6     8    1
    8     8     9    1
    9     8    10    1
   10     8    11    1
   11    11    12    1
   12    11    13    1
   13    11    14    1
   14    14    15    1
   15    14    16    1
   16    14    17    1
@<TRIPOS>SUBSTRUCTURE
       1 MOL1            1 RESIDUE      1      MOL     
@<SCITEGIC>MOL_PROPERTY
VConf Rank
SciTegic.value.IntegerValue
484

@<SCITEGIC>MOL_PROPERTY
Conf_Id
SciTegic.value.IntegerValue
45

@<SCITEGIC>MOL_PROPERTY
Delta U+W
SciTegic.value.DoubleValue
0.562

@<SCITEGIC>MOL_PROPERTY
U+W
SciTegic.value.DoubleValue
-52.846

@<SCITEGIC>MOL_PROPERTY
Grad RMS
SciTegic.value.DoubleValue
0.000000

@<SCITEGIC>MOL_PROPERTY
U
SciTegic.value.DoubleValue
10.243

@<SCITEGIC>MOL_PROPERTY
W
SciTegic.value.DoubleValue
-63.089

@<SCITEGIC>MOL_PROPERTY
W(PB)
SciTegic.value.DoubleValue
-65.116

@<SCITEGIC>MOL_PROPERTY
W(SA)
SciTegic.value.DoubleValue
2.026

@<SCITEGIC>MOL_PROPERTY
Valence
SciTegic.value.DoubleValue
2.822

@<SCITEGIC>MOL_PROPERTY
Coulomb
SciTegic.value.DoubleValue
6.637

@<SCITEGIC>MOL_PROPERTY
VdW
SciTegic.value.DoubleValue
0.785

@<SCITEGIC>MOL_PROPERTY
VdW6
SciTegic.value.DoubleValue
-5.216

@<SCITEGIC>MOL_PROPERTY
VdW12
SciTegic.value.DoubleValue
6.001

@<SCITEGIC>MOL_PROPERTY
Bond
SciTegic.value.DoubleValue
0.080

@<SCITEGIC>MOL_PROPERTY
Angle
SciTegic.value.DoubleValue
2.678

@<SCITEGIC>MOL_PROPERTY
Pdih
SciTegic.value.DoubleValue
0.064

@<SCITEGIC>MOL_PROPERTY
Idih
SciTegic.value.DoubleValue
0.000

@<SCITEGIC>MOL_PROPERTY
Tether
SciTegic.value.DoubleValue
0.000

@<TRIPOS>MOLECULE
guest-s19_confgen4.mol2 : confsearch ligand conformer 485
          17          16           1
SMALL
USER_CHARGES
 
@<TRIPOS>ATOM
       1    C1      19.650929   17.225130   24.684609 C.2        1 MOL1         0.6173
       2    O1      18.861894   16.328659   24.911471 O.co2      1 MOL1        -0.6755
       3    O2      20.327759   17.744714   25.551978 O.co2      1 MOL1        -0.6755
       4    C2      19.777926   17.689310   23.276571 C.2        1 MOL1        -0.1504
       5    H1      19.144979   17.183324   22.551130 H          1 MOL1         0.0814
       6    C3      20.613308   18.676535   22.880834 C.2        1 MOL1        -0.1394
       7    H2      21.250132   19.191763   23.599700 H          1 MOL1         0.0817
       8    C4      20.734837   19.144128   21.447019 C.3        1 MOL1        -0.1849
       9    H3      20.670075   18.285275   20.765120 H          1 MOL1         0.0736
      10    H4      21.724294   19.594197   21.289541 H          1 MOL1         0.0736
      11    C5      19.638900   20.171166   21.096124 C.3        1 MOL1        -0.1866
      12    H5      18.648188   19.721016   21.249143 H          1 MOL1         0.0738
      13    H6      19.707013   21.030108   21.778142 H          1 MOL1         0.0738
      14    C6      19.761568   20.659920   19.638867 C.3        1 MOL1        -0.2879
      15    H7      20.732173   21.143439   19.466915 H          1 MOL1         0.0750
      16    H8      19.665629   19.823200   18.934502 H          1 MOL1         0.0750
      17    H9      18.974148   21.389152   19.407952 H          1 MOL1         0.0750
@<TRIPOS>BOND
    1     1     2    1
    2     1     3    2
    3     1     4    1
    4     4     5    1
    5     4     6    2
    6     6     7    1
    7     6     8    1
    8     8     9    1
    9     8    10    1
   10     8    11    1
   11    11    12    1
   12    11    13    1
   13    11    14    1
   14    14    15    1
   15    14    16    1
   16    14    17    1
@<TRIPOS>SUBSTRUCTURE
       1 MOL1            1 RESIDUE      1      MOL     
@<SCITEGIC>MOL_PROPERTY
VConf Rank
SciTegic.value.IntegerValue
485

@<SCITEGIC>MOL_PROPERTY
Conf_Id
SciTegic.value.IntegerValue
36

@<SCITEGIC>MOL_PROPERTY
Delta U+W
SciTegic.value.DoubleValue
0.000

@<SCITEGIC>MOL_PROPERTY
U+W
SciTegic.value.DoubleValue
-53.409

@<SCITEGIC>MOL_PROPERTY
Grad RMS
SciTegic.value.DoubleValue
0.000000

@<SCITEGIC>MOL_PROPERTY
U
SciTegic.value.DoubleValue
9.048

@<SCITEGIC>MOL_PROPERTY
W
SciTegic.value.DoubleValue
-62.457

@<SCITEGIC>MOL_PROPERTY
W(PB)
SciTegic.value.DoubleValue
-64.540

@<SCITEGIC>MOL_PROPERTY
W(SA)
SciTegic.value.DoubleValue
2.084

@<SCITEGIC>MOL_PROPERTY
Valence
SciTegic.value.DoubleValue
2.652

@<SCITEGIC>MOL_PROPERTY
Coulomb
SciTegic.value.DoubleValue
5.578

@<SCITEGIC>MOL_PROPERTY
VdW
SciTegic.value.DoubleValue
0.818

@<SCITEGIC>MOL_PROPERTY
VdW6
SciTegic.value.DoubleValue
-4.534

@<SCITEGIC>MOL_PROPERTY
VdW12
SciTegic.value.DoubleValue
5.352

@<SCITEGIC>MOL_PROPERTY
Bond
SciTegic.value.DoubleValue
0.063

@<SCITEGIC>MOL_PROPERTY
Angle
SciTegic.value.DoubleValue
2.579

@<SCITEGIC>MOL_PROPERTY
Pdih
SciTegic.value.DoubleValue
0.010

@<SCITEGIC>MOL_PROPERTY
Idih
SciTegic.value.DoubleValue
0.000

@<SCITEGIC>MOL_PROPERTY
Tether
SciTegic.value.DoubleValue
0.000

@<TRIPOS>MOLECULE
guest-s19_confgen4.mol2 : confsearch ligand conformer 486
          17          16           1
SMALL
USER_CHARGES
 
@<TRIPOS>ATOM
       1    C1      20.774613   21.777649   20.018037 C.2        1 MOL1         0.6173
       2    O1      21.577835   21.404115   19.183951 O.co2      1 MOL1        -0.6755
       3    O2      20.514826   22.950281   20.205521 O.co2      1 MOL1        -0.6755
       4    C2      20.065386   20.773723   20.856661 C.2        1 MOL1        -0.1504
       5    H1      19.361026   21.174030   21.582293 H          1 MOL1         0.0814
       6    C3      20.256398   19.438540   20.757222 C.2        1 MOL1        -0.1394
       7    H2      20.961296   19.026824   20.035154 H          1 MOL1         0.0817
       8    C4      19.532334   18.424316   21.615312 C.3        1 MOL1        -0.1849
       9    H3      19.495695   17.459215   21.092219 H          1 MOL1         0.0736
      10    H4      18.490288   18.736924   21.767705 H          1 MOL1         0.0736
      11    C5      20.227052   18.245253   22.980713 C.3        1 MOL1        -0.1866
      12    H5      21.268433   17.930503   22.825719 H          1 MOL1         0.0738
      13    H6      20.260889   19.209217   23.507199 H          1 MOL1         0.0738
      14    C6      19.500281   17.206063   23.857875 C.3        1 MOL1        -0.2879
      15    H7      19.480009   16.223671   23.368053 H          1 MOL1         0.0750
      16    H8      20.008605   17.092392   24.824217 H          1 MOL1         0.0750
      17    H9      18.464524   17.513017   24.053894 H          1 MOL1         0.0750
@<TRIPOS>BOND
    1     1     2    1
    2     1     3    2
    3     1     4    1
    4     4     5    1
    5     4     6    2
    6     6     7    1
    7     6     8    1
    8     8     9    1
    9     8    10    1
   10     8    11    1
   11    11    12    1
   12    11    13    1
   13    11    14    1
   14    14    15    1
   15    14    16    1
   16    14    17    1
@<TRIPOS>SUBSTRUCTURE
       1 MOL1            1 RESIDUE      1      MOL     
@<SCITEGIC>MOL_PROPERTY
VConf Rank
SciTegic.value.IntegerValue
486

@<SCITEGIC>MOL_PROPERTY
Conf_Id
SciTegic.value.IntegerValue
1

@<SCITEGIC>MOL_PROPERTY
Delta U+W
SciTegic.value.DoubleValue
0.030

@<SCITEGIC>MOL_PROPERTY
U+W
SciTegic.value.DoubleValue
-53.378

@<SCITEGIC>MOL_PROPERTY
Grad RMS
SciTegic.value.DoubleValue
0.000000

@<SCITEGIC>MOL_PROPERTY
U
SciTegic.value.DoubleValue
9.048

@<SCITEGIC>MOL_PROPERTY
W
SciTegic.value.DoubleValue
-62.426

@<SCITEGIC>MOL_PROPERTY
W(PB)
SciTegic.value.DoubleValue
-64.506

@<SCITEGIC>MOL_PROPERTY
W(SA)
SciTegic.value.DoubleValue
2.080

@<SCITEGIC>MOL_PROPERTY
Valence
SciTegic.value.DoubleValue
2.652

@<SCITEGIC>MOL_PROPERTY
Coulomb
SciTegic.value.DoubleValue
5.578

@<SCITEGIC>MOL_PROPERTY
VdW
SciTegic.value.DoubleValue
0.818

@<SCITEGIC>MOL_PROPERTY
VdW6
SciTegic.value.DoubleValue
-4.535

@<SCITEGIC>MOL_PROPERTY
VdW12
SciTegic.value.DoubleValue
5.352

@<SCITEGIC>MOL_PROPERTY
Bond
SciTegic.value.DoubleValue
0.063

@<SCITEGIC>MOL_PROPERTY
Angle
SciTegic.value.DoubleValue
2.579

@<SCITEGIC>MOL_PROPERTY
Pdih
SciTegic.value.DoubleValue
0.010

@<SCITEGIC>MOL_PROPERTY
Idih
SciTegic.value.DoubleValue
0.000

@<SCITEGIC>MOL_PROPERTY
Tether
SciTegic.value.DoubleValue
0.000

@<TRIPOS>MOLECULE
guest-s19_confgen4.mol2 : confsearch ligand conformer 487
          17          16           1
SMALL
USER_CHARGES
 
@<TRIPOS>ATOM
       1    C1      18.379105   18.394600   19.532752 C.2        1 MOL1         0.6173
       2    O1      18.506911   17.184733   19.514667 O.co2      1 MOL1        -0.6755
       3    O2      17.535699   18.978833   18.880716 O.co2      1 MOL1        -0.6755
       4    C2      19.284973   19.217164   20.379440 C.2        1 MOL1        -0.1504
       5    H1      19.117752   20.291349   20.349044 H          1 MOL1         0.0814
       6    C3      20.265259   18.701901   21.155668 C.2        1 MOL1        -0.1394
       7    H2      20.439293   17.626882   21.196223 H          1 MOL1         0.0817
       8    C4      21.180953   19.545185   22.017869 C.3        1 MOL1        -0.1849
       9    H3      21.469610   20.452721   21.470527 H          1 MOL1         0.0736
      10    H4      22.112558   18.998859   22.217705 H          1 MOL1         0.0736
      11    C5      20.521946   19.948655   23.355211 C.3        1 MOL1        -0.1866
      12    H5      21.186920   20.641822   23.888581 H          1 MOL1         0.0738
      13    H6      19.590049   20.496642   23.158470 H          1 MOL1         0.0738
      14    C6      20.229101   18.733276   24.260643 C.3        1 MOL1        -0.2879
      15    H7      21.149483   18.177003   24.481102 H          1 MOL1         0.0750
      16    H8      19.793049   19.058536   25.214044 H          1 MOL1         0.0750
      17    H9      19.518896   18.045637   23.783169 H          1 MOL1         0.0750
@<TRIPOS>BOND
    1     1     2    1
    2     1     3    2
    3     1     4    1
    4     4     5    1
    5     4     6    2
    6     6     7    1
    7     6     8    1
    8     8     9    1
    9     8    10    1
   10     8    11    1
   11    11    12    1
   12    11    13    1
   13    11    14    1
   14    14    15    1
   15    14    16    1
   16    14    17    1
@<TRIPOS>SUBSTRUCTURE
       1 MOL1            1 RESIDUE      1      MOL     
@<SCITEGIC>MOL_PROPERTY
VConf Rank
SciTegic.value.IntegerValue
487

@<SCITEGIC>MOL_PROPERTY
Conf_Id
SciTegic.value.IntegerValue
3

@<SCITEGIC>MOL_PROPERTY
Delta U+W
SciTegic.value.DoubleValue
0.531

@<SCITEGIC>MOL_PROPERTY
U+W
SciTegic.value.DoubleValue
-52.878

@<SCITEGIC>MOL_PROPERTY
Grad RMS
SciTegic.value.DoubleValue
0.000000

@<SCITEGIC>MOL_PROPERTY
U
SciTegic.value.DoubleValue
10.067

@<SCITEGIC>MOL_PROPERTY
W
SciTegic.value.DoubleValue
-62.945

@<SCITEGIC>MOL_PROPERTY
W(PB)
SciTegic.value.DoubleValue
-64.982

@<SCITEGIC>MOL_PROPERTY
W(SA)
SciTegic.value.DoubleValue
2.037

@<SCITEGIC>MOL_PROPERTY
Valence
SciTegic.value.DoubleValue
2.779

@<SCITEGIC>MOL_PROPERTY
Coulomb
SciTegic.value.DoubleValue
6.474

@<SCITEGIC>MOL_PROPERTY
VdW
SciTegic.value.DoubleValue
0.815

@<SCITEGIC>MOL_PROPERTY
VdW6
SciTegic.value.DoubleValue
-5.088

@<SCITEGIC>MOL_PROPERTY
VdW12
SciTegic.value.DoubleValue
5.902

@<SCITEGIC>MOL_PROPERTY
Bond
SciTegic.value.DoubleValue
0.078

@<SCITEGIC>MOL_PROPERTY
Angle
SciTegic.value.DoubleValue
2.651

@<SCITEGIC>MOL_PROPERTY
Pdih
SciTegic.value.DoubleValue
0.050

@<SCITEGIC>MOL_PROPERTY
Idih
SciTegic.value.DoubleValue
0.000

@<SCITEGIC>MOL_PROPERTY
Tether
SciTegic.value.DoubleValue
0.000

@<TRIPOS>MOLECULE
guest-s19_confgen4.mol2 : confsearch ligand conformer 488
          17          16           1
SMALL
USER_CHARGES
 
@<TRIPOS>ATOM
       1    C1      18.742430   19.251350   24.828134 C.2        1 MOL1         0.6173
       2    O1      17.680661   19.730848   25.175276 O.co2      1 MOL1        -0.6755
       3    O2      19.663793   19.059160   25.599238 O.co2      1 MOL1        -0.6755
       4    C2      18.896580   18.888963   23.393217 C.2        1 MOL1        -0.1504
       5    H1      18.035339   19.086840   22.759328 H          1 MOL1         0.0814
       6    C3      20.021036   18.350515   22.868567 C.2        1 MOL1        -0.1394
       7    H2      20.889821   18.152418   23.495854 H          1 MOL1         0.0817
       8    C4      20.175911   17.985197   21.406756 C.3        1 MOL1        -0.1849
       9    H3      19.194149   17.923106   20.917851 H          1 MOL1         0.0736
      10    H4      20.617675   16.982509   21.332802 H          1 MOL1         0.0736
      11    C5      21.072831   18.985069   20.644551 C.3        1 MOL1        -0.1866
      12    H5      22.054258   19.049772   21.134525 H          1 MOL1         0.0738
      13    H6      21.253144   18.603638   19.630058 H          1 MOL1         0.0738
      14    C6      20.445382   20.392170   20.548602 C.3        1 MOL1        -0.2879
      15    H7      20.309173   20.833920   21.544271 H          1 MOL1         0.0750
      16    H8      21.090868   21.063943   19.968141 H          1 MOL1         0.0750
      17    H9      19.465829   20.352302   20.054660 H          1 MOL1         0.0750
@<TRIPOS>BOND
    1     1     2    1
    2     1     3    2
    3     1     4    1
    4     4     5    1
    5     4     6    2
    6     6     7    1
    7     6     8    1
    8     8     9    1
    9     8    10    1
   10     8    11    1
   11    11    12    1
   12    11    13    1
   13    11    14    1
   14    14    15    1
   15    14    16    1
   16    14    17    1
@<TRIPOS>SUBSTRUCTURE
       1 MOL1            1 RESIDUE      1      MOL     
@<SCITEGIC>MOL_PROPERTY
VConf Rank
SciTegic.value.IntegerValue
488

@<SCITEGIC>MOL_PROPERTY
Conf_Id
SciTegic.value.IntegerValue
45

@<SCITEGIC>MOL_PROPERTY
Delta U+W
SciTegic.value.DoubleValue
0.562

@<SCITEGIC>MOL_PROPERTY
U+W
SciTegic.value.DoubleValue
-52.846

@<SCITEGIC>MOL_PROPERTY
Grad RMS
SciTegic.value.DoubleValue
0.000000

@<SCITEGIC>MOL_PROPERTY
U
SciTegic.value.DoubleValue
10.243

@<SCITEGIC>MOL_PROPERTY
W
SciTegic.value.DoubleValue
-63.089

@<SCITEGIC>MOL_PROPERTY
W(PB)
SciTegic.value.DoubleValue
-65.116

@<SCITEGIC>MOL_PROPERTY
W(SA)
SciTegic.value.DoubleValue
2.026

@<SCITEGIC>MOL_PROPERTY
Valence
SciTegic.value.DoubleValue
2.822

@<SCITEGIC>MOL_PROPERTY
Coulomb
SciTegic.value.DoubleValue
6.637

@<SCITEGIC>MOL_PROPERTY
VdW
SciTegic.value.DoubleValue
0.785

@<SCITEGIC>MOL_PROPERTY
VdW6
SciTegic.value.DoubleValue
-5.216

@<SCITEGIC>MOL_PROPERTY
VdW12
SciTegic.value.DoubleValue
6.001

@<SCITEGIC>MOL_PROPERTY
Bond
SciTegic.value.DoubleValue
0.080

@<SCITEGIC>MOL_PROPERTY
Angle
SciTegic.value.DoubleValue
2.678

@<SCITEGIC>MOL_PROPERTY
Pdih
SciTegic.value.DoubleValue
0.064

@<SCITEGIC>MOL_PROPERTY
Idih
SciTegic.value.DoubleValue
0.000

@<SCITEGIC>MOL_PROPERTY
Tether
SciTegic.value.DoubleValue
0.000

@<TRIPOS>MOLECULE
guest-s19_confgen4.mol2 : confsearch ligand conformer 489
          17          16           1
SMALL
USER_CHARGES
 
@<TRIPOS>ATOM
       1    C1      22.786034   19.141008   20.022130 C.2        1 MOL1         0.6173
       2    O1      23.564320   20.050480   19.810387 O.co2      1 MOL1        -0.6755
       3    O2      22.781562   18.111037   19.374417 O.co2      1 MOL1        -0.6755
       4    C2      21.806315   19.317935   21.128028 C.2        1 MOL1        -0.1504
       5    H1      21.863974   20.260959   21.666815 H          1 MOL1         0.0814
       6    C3      20.883775   18.391176   21.473171 C.2        1 MOL1        -0.1394
       7    H2      20.815691   17.443923   20.938522 H          1 MOL1         0.0817
       8    C4      19.889498   18.579898   22.597908 C.3        1 MOL1        -0.1849
       9    H3      20.368475   19.098620   23.439523 H          1 MOL1         0.0736
      10    H4      19.571139   17.598979   22.975841 H          1 MOL1         0.0736
      11    C5      18.655497   19.377669   22.129061 C.3        1 MOL1        -0.1866
      12    H5      18.971893   20.361105   21.754486 H          1 MOL1         0.0738
      13    H6      18.176999   18.855847   21.288638 H          1 MOL1         0.0738
      14    C6      17.632702   19.566269   23.267413 C.3        1 MOL1        -0.2879
      15    H7      17.275459   18.597001   23.639338 H          1 MOL1         0.0750
      16    H8      18.077770   20.113569   24.108730 H          1 MOL1         0.0750
      17    H9      16.762649   20.135562   22.915212 H          1 MOL1         0.0750
@<TRIPOS>BOND
    1     1     2    1
    2     1     3    2
    3     1     4    1
    4     4     5    1
    5     4     6    2
    6     6     7    1
    7     6     8    1
    8     8     9    1
    9     8    10    1
   10     8    11    1
   11    11    12    1
   12    11    13    1
   13    11    14    1
   14    14    15    1
   15    14    16    1
   16    14    17    1
@<TRIPOS>SUBSTRUCTURE
       1 MOL1            1 RESIDUE      1      MOL     
@<SCITEGIC>MOL_PROPERTY
VConf Rank
SciTegic.value.IntegerValue
489

@<SCITEGIC>MOL_PROPERTY
Conf_Id
SciTegic.value.IntegerValue
36

@<SCITEGIC>MOL_PROPERTY
Delta U+W
SciTegic.value.DoubleValue
0.000

@<SCITEGIC>MOL_PROPERTY
U+W
SciTegic.value.DoubleValue
-53.409

@<SCITEGIC>MOL_PROPERTY
Grad RMS
SciTegic.value.DoubleValue
0.000000

@<SCITEGIC>MOL_PROPERTY
U
SciTegic.value.DoubleValue
9.048

@<SCITEGIC>MOL_PROPERTY
W
SciTegic.value.DoubleValue
-62.457

@<SCITEGIC>MOL_PROPERTY
W(PB)
SciTegic.value.DoubleValue
-64.540

@<SCITEGIC>MOL_PROPERTY
W(SA)
SciTegic.value.DoubleValue
2.084

@<SCITEGIC>MOL_PROPERTY
Valence
SciTegic.value.DoubleValue
2.652

@<SCITEGIC>MOL_PROPERTY
Coulomb
SciTegic.value.DoubleValue
5.578

@<SCITEGIC>MOL_PROPERTY
VdW
SciTegic.value.DoubleValue
0.818

@<SCITEGIC>MOL_PROPERTY
VdW6
SciTegic.value.DoubleValue
-4.534

@<SCITEGIC>MOL_PROPERTY
VdW12
SciTegic.value.DoubleValue
5.352

@<SCITEGIC>MOL_PROPERTY
Bond
SciTegic.value.DoubleValue
0.063

@<SCITEGIC>MOL_PROPERTY
Angle
SciTegic.value.DoubleValue
2.579

@<SCITEGIC>MOL_PROPERTY
Pdih
SciTegic.value.DoubleValue
0.010

@<SCITEGIC>MOL_PROPERTY
Idih
SciTegic.value.DoubleValue
0.000

@<SCITEGIC>MOL_PROPERTY
Tether
SciTegic.value.DoubleValue
0.000

@<TRIPOS>MOLECULE
guest-s19_confgen4.mol2 : confsearch ligand conformer 490
          17          16           1
SMALL
USER_CHARGES
 
@<TRIPOS>ATOM
       1    C1      19.385781   16.546639   19.792929 C.2        1 MOL1         0.6173
       2    O1      19.460378   16.999580   18.666131 O.co2      1 MOL1        -0.6755
       3    O2      18.949285   15.437320   20.030812 O.co2      1 MOL1        -0.6755
       4    C2      19.844061   17.367108   20.946607 C.2        1 MOL1        -0.1504
       5    H1      19.750182   16.903300   21.925881 H          1 MOL1         0.0814
       6    C3      20.349639   18.616034   20.829728 C.2        1 MOL1        -0.1394
       7    H2      20.446100   19.091088   19.853617 H          1 MOL1         0.0817
       8    C4      20.811745   19.444487   22.008440 C.3        1 MOL1        -0.1849
       9    H3      21.555040   20.179932   21.672255 H          1 MOL1         0.0736
      10    H4      21.317039   18.803004   22.743276 H          1 MOL1         0.0736
      11    C5      19.630469   20.174476   22.679799 C.3        1 MOL1        -0.1866
      12    H5      19.128049   20.817048   21.943429 H          1 MOL1         0.0738
      13    H6      18.887704   19.439749   23.020441 H          1 MOL1         0.0738
      14    C6      20.094550   21.028592   23.876729 C.3        1 MOL1        -0.2879
      15    H7      20.815095   21.793219   23.557996 H          1 MOL1         0.0750
      16    H8      19.241190   21.539815   24.341010 H          1 MOL1         0.0750
      17    H9      20.573187   20.404343   24.642663 H          1 MOL1         0.0750
@<TRIPOS>BOND
    1     1     2    1
    2     1     3    2
    3     1     4    1
    4     4     5    1
    5     4     6    2
    6     6     7    1
    7     6     8    1
    8     8     9    1
    9     8    10    1
   10     8    11    1
   11    11    12    1
   12    11    13    1
   13    11    14    1
   14    14    15    1
   15    14    16    1
   16    14    17    1
@<TRIPOS>SUBSTRUCTURE
       1 MOL1            1 RESIDUE      1      MOL     
@<SCITEGIC>MOL_PROPERTY
VConf Rank
SciTegic.value.IntegerValue
490

@<SCITEGIC>MOL_PROPERTY
Conf_Id
SciTegic.value.IntegerValue
1

@<SCITEGIC>MOL_PROPERTY
Delta U+W
SciTegic.value.DoubleValue
0.030

@<SCITEGIC>MOL_PROPERTY
U+W
SciTegic.value.DoubleValue
-53.378

@<SCITEGIC>MOL_PROPERTY
Grad RMS
SciTegic.value.DoubleValue
0.000000

@<SCITEGIC>MOL_PROPERTY
U
SciTegic.value.DoubleValue
9.048

@<SCITEGIC>MOL_PROPERTY
W
SciTegic.value.DoubleValue
-62.426

@<SCITEGIC>MOL_PROPERTY
W(PB)
SciTegic.value.DoubleValue
-64.506

@<SCITEGIC>MOL_PROPERTY
W(SA)
SciTegic.value.DoubleValue
2.080

@<SCITEGIC>MOL_PROPERTY
Valence
SciTegic.value.DoubleValue
2.652

@<SCITEGIC>MOL_PROPERTY
Coulomb
SciTegic.value.DoubleValue
5.578

@<SCITEGIC>MOL_PROPERTY
VdW
SciTegic.value.DoubleValue
0.818

@<SCITEGIC>MOL_PROPERTY
VdW6
SciTegic.value.DoubleValue
-4.535

@<SCITEGIC>MOL_PROPERTY
VdW12
SciTegic.value.DoubleValue
5.352

@<SCITEGIC>MOL_PROPERTY
Bond
SciTegic.value.DoubleValue
0.063

@<SCITEGIC>MOL_PROPERTY
Angle
SciTegic.value.DoubleValue
2.579

@<SCITEGIC>MOL_PROPERTY
Pdih
SciTegic.value.DoubleValue
0.010

@<SCITEGIC>MOL_PROPERTY
Idih
SciTegic.value.DoubleValue
0.000

@<SCITEGIC>MOL_PROPERTY
Tether
SciTegic.value.DoubleValue
0.000

@<TRIPOS>MOLECULE
guest-s19_confgen4.mol2 : confsearch ligand conformer 491
          17          16           1
SMALL
USER_CHARGES
 
@<TRIPOS>ATOM
       1    C1      17.710930   17.104617   22.551266 C.2        1 MOL1         0.6173
       2    O1      17.515116   17.291518   23.737507 O.co2      1 MOL1        -0.6755
       3    O2      16.917345   16.526346   21.834582 O.co2      1 MOL1        -0.6755
       4    C2      18.970888   17.592720   21.928088 C.2        1 MOL1        -0.1504
       5    H1      19.083434   17.392242   20.865119 H          1 MOL1         0.0814
       6    C3      19.939740   18.251590   22.603515 C.2        1 MOL1        -0.1394
       7    H2      19.835755   18.460717   23.667964 H          1 MOL1         0.0817
       8    C4      21.217890   18.748855   21.961585 C.3        1 MOL1        -0.1849
       9    H3      21.593133   17.995186   21.256106 H          1 MOL1         0.0736
      10    H4      21.997456   18.867543   22.726101 H          1 MOL1         0.0736
      11    C5      21.018858   20.086288   21.215112 C.3        1 MOL1        -0.1866
      12    H5      21.946000   20.342772   20.684286 H          1 MOL1         0.0738
      13    H6      20.240174   19.970323   20.448541 H          1 MOL1         0.0738
      14    C6      20.644755   21.243913   22.165198 C.3        1 MOL1        -0.2879
      15    H7      21.416097   21.386483   22.933216 H          1 MOL1         0.0750
      16    H8      20.544185   22.183852   21.607249 H          1 MOL1         0.0750
      17    H9      19.689800   21.048832   22.670397 H          1 MOL1         0.0750
@<TRIPOS>BOND
    1     1     2    1
    2     1     3    2
    3     1     4    1
    4     4     5    1
    5     4     6    2
    6     6     7    1
    7     6     8    1
    8     8     9    1
    9     8    10    1
   10     8    11    1
   11    11    12    1
   12    11    13    1
   13    11    14    1
   14    14    15    1
   15    14    16    1
   16    14    17    1
@<TRIPOS>SUBSTRUCTURE
       1 MOL1            1 RESIDUE      1      MOL     
@<SCITEGIC>MOL_PROPERTY
VConf Rank
SciTegic.value.IntegerValue
491

@<SCITEGIC>MOL_PROPERTY
Conf_Id
SciTegic.value.IntegerValue
3

@<SCITEGIC>MOL_PROPERTY
Delta U+W
SciTegic.value.DoubleValue
0.531

@<SCITEGIC>MOL_PROPERTY
U+W
SciTegic.value.DoubleValue
-52.878

@<SCITEGIC>MOL_PROPERTY
Grad RMS
SciTegic.value.DoubleValue
0.000000

@<SCITEGIC>MOL_PROPERTY
U
SciTegic.value.DoubleValue
10.067

@<SCITEGIC>MOL_PROPERTY
W
SciTegic.value.DoubleValue
-62.945

@<SCITEGIC>MOL_PROPERTY
W(PB)
SciTegic.value.DoubleValue
-64.982

@<SCITEGIC>MOL_PROPERTY
W(SA)
SciTegic.value.DoubleValue
2.037

@<SCITEGIC>MOL_PROPERTY
Valence
SciTegic.value.DoubleValue
2.779

@<SCITEGIC>MOL_PROPERTY
Coulomb
SciTegic.value.DoubleValue
6.474

@<SCITEGIC>MOL_PROPERTY
VdW
SciTegic.value.DoubleValue
0.815

@<SCITEGIC>MOL_PROPERTY
VdW6
SciTegic.value.DoubleValue
-5.088

@<SCITEGIC>MOL_PROPERTY
VdW12
SciTegic.value.DoubleValue
5.902

@<SCITEGIC>MOL_PROPERTY
Bond
SciTegic.value.DoubleValue
0.078

@<SCITEGIC>MOL_PROPERTY
Angle
SciTegic.value.DoubleValue
2.651

@<SCITEGIC>MOL_PROPERTY
Pdih
SciTegic.value.DoubleValue
0.050

@<SCITEGIC>MOL_PROPERTY
Idih
SciTegic.value.DoubleValue
0.000

@<SCITEGIC>MOL_PROPERTY
Tether
SciTegic.value.DoubleValue
0.000

@<TRIPOS>MOLECULE
guest-s19_confgen4.mol2 : confsearch ligand conformer 492
          17          16           1
SMALL
USER_CHARGES
 
@<TRIPOS>ATOM
       1    C1      21.740204   19.992406   19.793579 C.2        1 MOL1         0.6173
       2    O1      22.419868   19.329173   19.034659 O.co2      1 MOL1        -0.6755
       3    O2      21.932799   21.178019   19.987682 O.co2      1 MOL1        -0.6755
       4    C2      20.628333   19.302357   20.501849 C.2        1 MOL1        -0.1504
       5    H1      20.511775   18.243517   20.282810 H          1 MOL1         0.0814
       6    C3      19.795754   19.914633   21.374498 C.2        1 MOL1        -0.1394
       7    H2      19.907811   20.974349   21.602455 H          1 MOL1         0.0817
       8    C4      18.666417   19.208785   22.096101 C.3        1 MOL1        -0.1849
       9    H3      18.426113   18.257999   21.601127 H          1 MOL1         0.0736
      10    H4      17.759404   19.824506   22.031115 H          1 MOL1         0.0736
      11    C5      18.991588   18.951608   23.583815 C.3        1 MOL1        -0.1866
      12    H5      19.234673   19.901902   24.079102 H          1 MOL1         0.0738
      13    H6      18.095990   18.557425   24.083536 H          1 MOL1         0.0738
      14    C6      20.153789   17.953606   23.773841 C.3        1 MOL1        -0.2879
      15    H7      21.084983   18.343097   23.342301 H          1 MOL1         0.0750
      16    H8      20.330528   17.765433   24.840716 H          1 MOL1         0.0750
      17    H9      19.928850   16.992907   23.292643 H          1 MOL1         0.0750
@<TRIPOS>BOND
    1     1     2    1
    2     1     3    2
    3     1     4    1
    4     4     5    1
    5     4     6    2
    6     6     7    1
    7     6     8    1
    8     8     9    1
    9     8    10    1
   10     8    11    1
   11    11    12    1
   12    11    13    1
   13    11    14    1
   14    14    15    1
   15    14    16    1
   16    14    17    1
@<TRIPOS>SUBSTRUCTURE
       1 MOL1            1 RESIDUE      1      MOL     
@<SCITEGIC>MOL_PROPERTY
VConf Rank
SciTegic.value.IntegerValue
492

@<SCITEGIC>MOL_PROPERTY
Conf_Id
SciTegic.value.IntegerValue
45

@<SCITEGIC>MOL_PROPERTY
Delta U+W
SciTegic.value.DoubleValue
0.562

@<SCITEGIC>MOL_PROPERTY
U+W
SciTegic.value.DoubleValue
-52.846

@<SCITEGIC>MOL_PROPERTY
Grad RMS
SciTegic.value.DoubleValue
0.000000

@<SCITEGIC>MOL_PROPERTY
U
SciTegic.value.DoubleValue
10.243

@<SCITEGIC>MOL_PROPERTY
W
SciTegic.value.DoubleValue
-63.089

@<SCITEGIC>MOL_PROPERTY
W(PB)
SciTegic.value.DoubleValue
-65.116

@<SCITEGIC>MOL_PROPERTY
W(SA)
SciTegic.value.DoubleValue
2.026

@<SCITEGIC>MOL_PROPERTY
Valence
SciTegic.value.DoubleValue
2.822

@<SCITEGIC>MOL_PROPERTY
Coulomb
SciTegic.value.DoubleValue
6.637

@<SCITEGIC>MOL_PROPERTY
VdW
SciTegic.value.DoubleValue
0.785

@<SCITEGIC>MOL_PROPERTY
VdW6
SciTegic.value.DoubleValue
-5.216

@<SCITEGIC>MOL_PROPERTY
VdW12
SciTegic.value.DoubleValue
6.001

@<SCITEGIC>MOL_PROPERTY
Bond
SciTegic.value.DoubleValue
0.080

@<SCITEGIC>MOL_PROPERTY
Angle
SciTegic.value.DoubleValue
2.678

@<SCITEGIC>MOL_PROPERTY
Pdih
SciTegic.value.DoubleValue
0.064

@<SCITEGIC>MOL_PROPERTY
Idih
SciTegic.value.DoubleValue
0.000

@<SCITEGIC>MOL_PROPERTY
Tether
SciTegic.value.DoubleValue
0.000

@<TRIPOS>MOLECULE
guest-s19_confgen4.mol2 : confsearch ligand conformer 493
          17          16           1
SMALL
USER_CHARGES
 
@<TRIPOS>ATOM
       1    C1      19.331673   22.124555   20.535361 C.2        1 MOL1         0.6173
       2    O1      18.264488   22.690457   20.399076 O.co2      1 MOL1        -0.6755
       3    O2      20.346895   22.483585   19.968954 O.co2      1 MOL1        -0.6755
       4    C2      19.373416   20.944469   21.440798 C.2        1 MOL1        -0.1504
       5    H1      18.432088   20.676830   21.915328 H          1 MOL1         0.0814
       6    C3      20.489474   20.220499   21.684458 C.2        1 MOL1        -0.1394
       7    H2      21.437358   20.478433   21.212485 H          1 MOL1         0.0817
       8    C4      20.522895   19.020262   22.605083 C.3        1 MOL1        -0.1849
       9    H3      19.881846   19.199317   23.479041 H          1 MOL1         0.0736
      10    H4      21.542310   18.879429   22.988940 H          1 MOL1         0.0736
      11    C5      20.064293   17.740403   21.876620 C.3        1 MOL1        -0.1866
      12    H5      19.042836   17.878148   21.495551 H          1 MOL1         0.0738
      13    H6      20.708198   17.562319   21.004129 H          1 MOL1         0.0738
      14    C6      20.104496   16.510484   22.805710 C.3        1 MOL1        -0.2879
      15    H7      21.122315   16.330904   23.176153 H          1 MOL1         0.0750
      16    H8      19.444085   16.650476   23.671560 H          1 MOL1         0.0750
      17    H9      19.775084   15.610467   22.270371 H          1 MOL1         0.0750
@<TRIPOS>BOND
    1     1     2    1
    2     1     3    2
    3     1     4    1
    4     4     5    1
    5     4     6    2
    6     6     7    1
    7     6     8    1
    8     8     9    1
    9     8    10    1
   10     8    11    1
   11    11    12    1
   12    11    13    1
   13    11    14    1
   14    14    15    1
   15    14    16    1
   16    14    17    1
@<TRIPOS>SUBSTRUCTURE
       1 MOL1            1 RESIDUE      1      MOL     
@<SCITEGIC>MOL_PROPERTY
VConf Rank
SciTegic.value.IntegerValue
493

@<SCITEGIC>MOL_PROPERTY
Conf_Id
SciTegic.value.IntegerValue
36

@<SCITEGIC>MOL_PROPERTY
Delta U+W
SciTegic.value.DoubleValue
0.000

@<SCITEGIC>MOL_PROPERTY
U+W
SciTegic.value.DoubleValue
-53.409

@<SCITEGIC>MOL_PROPERTY
Grad RMS
SciTegic.value.DoubleValue
0.000000

@<SCITEGIC>MOL_PROPERTY
U
SciTegic.value.DoubleValue
9.048

@<SCITEGIC>MOL_PROPERTY
W
SciTegic.value.DoubleValue
-62.457

@<SCITEGIC>MOL_PROPERTY
W(PB)
SciTegic.value.DoubleValue
-64.540

@<SCITEGIC>MOL_PROPERTY
W(SA)
SciTegic.value.DoubleValue
2.084

@<SCITEGIC>MOL_PROPERTY
Valence
SciTegic.value.DoubleValue
2.652

@<SCITEGIC>MOL_PROPERTY
Coulomb
SciTegic.value.DoubleValue
5.578

@<SCITEGIC>MOL_PROPERTY
VdW
SciTegic.value.DoubleValue
0.818

@<SCITEGIC>MOL_PROPERTY
VdW6
SciTegic.value.DoubleValue
-4.534

@<SCITEGIC>MOL_PROPERTY
VdW12
SciTegic.value.DoubleValue
5.352

@<SCITEGIC>MOL_PROPERTY
Bond
SciTegic.value.DoubleValue
0.063

@<SCITEGIC>MOL_PROPERTY
Angle
SciTegic.value.DoubleValue
2.579

@<SCITEGIC>MOL_PROPERTY
Pdih
SciTegic.value.DoubleValue
0.010

@<SCITEGIC>MOL_PROPERTY
Idih
SciTegic.value.DoubleValue
0.000

@<SCITEGIC>MOL_PROPERTY
Tether
SciTegic.value.DoubleValue
0.000

@<TRIPOS>MOLECULE
guest-s19_confgen4.mol2 : confsearch ligand conformer 494
          17          16           1
SMALL
USER_CHARGES
 
@<TRIPOS>ATOM
       1    C1      21.046485   22.232004   21.235337 C.2        1 MOL1         0.6173
       2    O1      20.344157   22.646811   20.332527 O.co2      1 MOL1        -0.6755
       3    O2      22.045145   22.812176   21.614527 O.co2      1 MOL1        -0.6755
       4    C2      20.686981   20.961663   21.921743 C.2        1 MOL1        -0.1504
       5    H1      21.356163   20.647398   22.719454 H          1 MOL1         0.0814
       6    C3      19.606629   20.212751   21.603851 C.2        1 MOL1        -0.1394
       7    H2      18.930779   20.517160   20.804891 H          1 MOL1         0.0817
       8    C4      19.249144   18.920934   22.305743 C.3        1 MOL1        -0.1849
       9    H3      18.170579   18.736684   22.210158 H          1 MOL1         0.0736
      10    H4      19.457279   19.007649   23.380902 H          1 MOL1         0.0736
      11    C5      20.030582   17.727645   21.718857 C.3        1 MOL1        -0.1866
      12    H5      19.819099   17.641661   20.643939 H          1 MOL1         0.0738
      13    H6      21.109987   17.908561   21.817415 H          1 MOL1         0.0738
      14    C6      19.664919   16.405447   22.422850 C.3        1 MOL1        -0.2879
      15    H7      18.595224   16.184143   22.312361 H          1 MOL1         0.0750
      16    H8      20.230239   15.568765   21.992143 H          1 MOL1         0.0750
      17    H9      19.896100   16.454282   23.495047 H          1 MOL1         0.0750
@<TRIPOS>BOND
    1     1     2    1
    2     1     3    2
    3     1     4    1
    4     4     5    1
    5     4     6    2
    6     6     7    1
    7     6     8    1
    8     8     9    1
    9     8    10    1
   10     8    11    1
   11    11    12    1
   12    11    13    1
   13    11    14    1
   14    14    15    1
   15    14    16    1
   16    14    17    1
@<TRIPOS>SUBSTRUCTURE
       1 MOL1            1 RESIDUE      1      MOL     
@<SCITEGIC>MOL_PROPERTY
VConf Rank
SciTegic.value.IntegerValue
494

@<SCITEGIC>MOL_PROPERTY
Conf_Id
SciTegic.value.IntegerValue
1

@<SCITEGIC>MOL_PROPERTY
Delta U+W
SciTegic.value.DoubleValue
0.030

@<SCITEGIC>MOL_PROPERTY
U+W
SciTegic.value.DoubleValue
-53.378

@<SCITEGIC>MOL_PROPERTY
Grad RMS
SciTegic.value.DoubleValue
0.000000

@<SCITEGIC>MOL_PROPERTY
U
SciTegic.value.DoubleValue
9.048

@<SCITEGIC>MOL_PROPERTY
W
SciTegic.value.DoubleValue
-62.426

@<SCITEGIC>MOL_PROPERTY
W(PB)
SciTegic.value.DoubleValue
-64.506

@<SCITEGIC>MOL_PROPERTY
W(SA)
SciTegic.value.DoubleValue
2.080

@<SCITEGIC>MOL_PROPERTY
Valence
SciTegic.value.DoubleValue
2.652

@<SCITEGIC>MOL_PROPERTY
Coulomb
SciTegic.value.DoubleValue
5.578

@<SCITEGIC>MOL_PROPERTY
VdW
SciTegic.value.DoubleValue
0.818

@<SCITEGIC>MOL_PROPERTY
VdW6
SciTegic.value.DoubleValue
-4.535

@<SCITEGIC>MOL_PROPERTY
VdW12
SciTegic.value.DoubleValue
5.352

@<SCITEGIC>MOL_PROPERTY
Bond
SciTegic.value.DoubleValue
0.063

@<SCITEGIC>MOL_PROPERTY
Angle
SciTegic.value.DoubleValue
2.579

@<SCITEGIC>MOL_PROPERTY
Pdih
SciTegic.value.DoubleValue
0.010

@<SCITEGIC>MOL_PROPERTY
Idih
SciTegic.value.DoubleValue
0.000

@<SCITEGIC>MOL_PROPERTY
Tether
SciTegic.value.DoubleValue
0.000

@<TRIPOS>MOLECULE
guest-s19_confgen4.mol2 : confsearch ligand conformer 495
          17          16           1
SMALL
USER_CHARGES
 
@<TRIPOS>ATOM
       1    C1      17.007201   19.696709   21.779753 C.2        1 MOL1         0.6173
       2    O1      16.647124   19.537276   22.930999 O.co2      1 MOL1        -0.6755
       3    O2      16.327501   20.267058   20.948777 O.co2      1 MOL1        -0.6755
       4    C2      18.331846   19.176812   21.344881 C.2        1 MOL1        -0.1504
       5    H1      18.591953   19.351924   20.303516 H          1 MOL1         0.0814
       6    C3      19.190640   18.525025   22.161357 C.2        1 MOL1        -0.1394
       7    H2      18.941581   18.347164   23.207270 H          1 MOL1         0.0817
       8    C4      20.539018   18.002081   21.712558 C.3        1 MOL1        -0.1849
       9    H3      20.448377   17.562143   20.710178 H          1 MOL1         0.0736
      10    H4      20.863067   17.188739   22.375703 H          1 MOL1         0.0736
      11    C5      21.618163   19.106726   21.684881 C.3        1 MOL1        -0.1866
      12    H5      22.541559   18.696040   21.253799 H          1 MOL1         0.0738
      13    H6      21.297273   19.921494   21.021097 H          1 MOL1         0.0738
      14    C6      21.924016   19.670070   23.089093 C.3        1 MOL1        -0.2879
      15    H7      22.259147   18.874302   23.767021 H          1 MOL1         0.0750
      16    H8      22.717147   20.427114   23.036796 H          1 MOL1         0.0750
      17    H9      21.035944   20.143120   23.528152 H          1 MOL1         0.0750
@<TRIPOS>BOND
    1     1     2    1
    2     1     3    2
    3     1     4    1
    4     4     5    1
    5     4     6    2
    6     6     7    1
    7     6     8    1
    8     8     9    1
    9     8    10    1
   10     8    11    1
   11    11    12    1
   12    11    13    1
   13    11    14    1
   14    14    15    1
   15    14    16    1
   16    14    17    1
@<TRIPOS>SUBSTRUCTURE
       1 MOL1            1 RESIDUE      1      MOL     
@<SCITEGIC>MOL_PROPERTY
VConf Rank
SciTegic.value.IntegerValue
495

@<SCITEGIC>MOL_PROPERTY
Conf_Id
SciTegic.value.IntegerValue
3

@<SCITEGIC>MOL_PROPERTY
Delta U+W
SciTegic.value.DoubleValue
0.531

@<SCITEGIC>MOL_PROPERTY
U+W
SciTegic.value.DoubleValue
-52.878

@<SCITEGIC>MOL_PROPERTY
Grad RMS
SciTegic.value.DoubleValue
0.000000

@<SCITEGIC>MOL_PROPERTY
U
SciTegic.value.DoubleValue
10.067

@<SCITEGIC>MOL_PROPERTY
W
SciTegic.value.DoubleValue
-62.945

@<SCITEGIC>MOL_PROPERTY
W(PB)
SciTegic.value.DoubleValue
-64.982

@<SCITEGIC>MOL_PROPERTY
W(SA)
SciTegic.value.DoubleValue
2.037

@<SCITEGIC>MOL_PROPERTY
Valence
SciTegic.value.DoubleValue
2.779

@<SCITEGIC>MOL_PROPERTY
Coulomb
SciTegic.value.DoubleValue
6.474

@<SCITEGIC>MOL_PROPERTY
VdW
SciTegic.value.DoubleValue
0.815

@<SCITEGIC>MOL_PROPERTY
VdW6
SciTegic.value.DoubleValue
-5.088

@<SCITEGIC>MOL_PROPERTY
VdW12
SciTegic.value.DoubleValue
5.902

@<SCITEGIC>MOL_PROPERTY
Bond
SciTegic.value.DoubleValue
0.078

@<SCITEGIC>MOL_PROPERTY
Angle
SciTegic.value.DoubleValue
2.651

@<SCITEGIC>MOL_PROPERTY
Pdih
SciTegic.value.DoubleValue
0.050

@<SCITEGIC>MOL_PROPERTY
Idih
SciTegic.value.DoubleValue
0.000

@<SCITEGIC>MOL_PROPERTY
Tether
SciTegic.value.DoubleValue
0.000

@<TRIPOS>MOLECULE
guest-s19_confgen4.mol2 : confsearch ligand conformer 496
          17          16           1
SMALL
USER_CHARGES
 
@<TRIPOS>ATOM
       1    C1      19.959444   21.712604   23.589755 C.2        1 MOL1         0.6173
       2    O1      20.422937   22.791966   23.276817 O.co2      1 MOL1        -0.6755
       3    O2      19.711414   21.409371   24.741701 O.co2      1 MOL1        -0.6755
       4    C2      19.689415   20.737993   22.498293 C.2        1 MOL1        -0.1504
       5    H1      19.933837   21.072769   21.492864 H          1 MOL1         0.0814
       6    C3      19.178120   19.502232   22.700921 C.2        1 MOL1        -0.1394
       7    H2      18.933851   19.157473   23.705407 H          1 MOL1         0.0817
       8    C4      18.906898   18.511233   21.587954 C.3        1 MOL1        -0.1849
       9    H3      18.883381   19.020088   20.614685 H          1 MOL1         0.0736
      10    H4      17.908013   18.077519   21.729832 H          1 MOL1         0.0736
      11    C5      19.947609   17.370704   21.552158 C.3        1 MOL1        -0.1866
      12    H5      19.973665   16.862829   22.526244 H          1 MOL1         0.0738
      13    H6      19.631240   16.619771   20.815131 H          1 MOL1         0.0738
      14    C6      21.362323   17.868803   21.187042 C.3        1 MOL1        -0.2879
      15    H7      21.739790   18.574906   21.938036 H          1 MOL1         0.0750
      16    H8      22.065650   17.027821   21.132747 H          1 MOL1         0.0750
      17    H9      21.361293   18.373639   20.212244 H          1 MOL1         0.0750
@<TRIPOS>BOND
    1     1     2    1
    2     1     3    2
    3     1     4    1
    4     4     5    1
    5     4     6    2
    6     6     7    1
    7     6     8    1
    8     8     9    1
    9     8    10    1
   10     8    11    1
   11    11    12    1
   12    11    13    1
   13    11    14    1
   14    14    15    1
   15    14    16    1
   16    14    17    1
@<TRIPOS>SUBSTRUCTURE
       1 MOL1            1 RESIDUE      1      MOL     
@<SCITEGIC>MOL_PROPERTY
VConf Rank
SciTegic.value.IntegerValue
496

@<SCITEGIC>MOL_PROPERTY
Conf_Id
SciTegic.value.IntegerValue
45

@<SCITEGIC>MOL_PROPERTY
Delta U+W
SciTegic.value.DoubleValue
0.562

@<SCITEGIC>MOL_PROPERTY
U+W
SciTegic.value.DoubleValue
-52.846

@<SCITEGIC>MOL_PROPERTY
Grad RMS
SciTegic.value.DoubleValue
0.000000

@<SCITEGIC>MOL_PROPERTY
U
SciTegic.value.DoubleValue
10.243

@<SCITEGIC>MOL_PROPERTY
W
SciTegic.value.DoubleValue
-63.089

@<SCITEGIC>MOL_PROPERTY
W(PB)
SciTegic.value.DoubleValue
-65.116

@<SCITEGIC>MOL_PROPERTY
W(SA)
SciTegic.value.DoubleValue
2.026

@<SCITEGIC>MOL_PROPERTY
Valence
SciTegic.value.DoubleValue
2.822

@<SCITEGIC>MOL_PROPERTY
Coulomb
SciTegic.value.DoubleValue
6.637

@<SCITEGIC>MOL_PROPERTY
VdW
SciTegic.value.DoubleValue
0.785

@<SCITEGIC>MOL_PROPERTY
VdW6
SciTegic.value.DoubleValue
-5.216

@<SCITEGIC>MOL_PROPERTY
VdW12
SciTegic.value.DoubleValue
6.001

@<SCITEGIC>MOL_PROPERTY
Bond
SciTegic.value.DoubleValue
0.080

@<SCITEGIC>MOL_PROPERTY
Angle
SciTegic.value.DoubleValue
2.678

@<SCITEGIC>MOL_PROPERTY
Pdih
SciTegic.value.DoubleValue
0.064

@<SCITEGIC>MOL_PROPERTY
Idih
SciTegic.value.DoubleValue
0.000

@<SCITEGIC>MOL_PROPERTY
Tether
SciTegic.value.DoubleValue
0.000

@<TRIPOS>MOLECULE
guest-s19_confgen4.mol2 : confsearch ligand conformer 497
          17          16           1
SMALL
USER_CHARGES
 
@<TRIPOS>ATOM
       1    C1      19.266721   19.455935   18.636944 C.2        1 MOL1         0.6173
       2    O1      19.972336   19.255086   17.667681 O.co2      1 MOL1        -0.6755
       3    O2      18.205924   20.048126   18.570507 O.co2      1 MOL1        -0.6755
       4    C2      19.741746   18.944366   19.951025 C.2        1 MOL1        -0.1504
       5    H1      20.697004   18.424478   19.940729 H          1 MOL1         0.0814
       6    C3      19.061202   19.096637   21.109800 C.2        1 MOL1        -0.1394
       7    H2      18.104357   19.617915   21.131897 H          1 MOL1         0.0817
       8    C4      19.552431   18.575170   22.442468 C.3        1 MOL1        -0.1849
       9    H3      20.034368   17.597110   22.308516 H          1 MOL1         0.0736
      10    H4      18.696907   18.412868   23.111888 H          1 MOL1         0.0736
      11    C5      20.542976   19.557882   23.099821 C.3        1 MOL1        -0.1866
      12    H5      21.401662   19.718112   22.433080 H          1 MOL1         0.0738
      13    H6      20.058028   20.534726   23.234617 H          1 MOL1         0.0738
      14    C6      21.041222   19.037973   24.463262 C.3        1 MOL1        -0.2879
      15    H7      20.204562   18.899187   25.160520 H          1 MOL1         0.0750
      16    H8      21.557996   18.075713   24.351746 H          1 MOL1         0.0750
      17    H9      21.744307   19.749753   24.915117 H          1 MOL1         0.0750
@<TRIPOS>BOND
    1     1     2    1
    2     1     3    2
    3     1     4    1
    4     4     5    1
    5     4     6    2
    6     6     7    1
    7     6     8    1
    8     8     9    1
    9     8    10    1
   10     8    11    1
   11    11    12    1
   12    11    13    1
   13    11    14    1
   14    14    15    1
   15    14    16    1
   16    14    17    1
@<TRIPOS>SUBSTRUCTURE
       1 MOL1            1 RESIDUE      1      MOL     
@<SCITEGIC>MOL_PROPERTY
VConf Rank
SciTegic.value.IntegerValue
497

@<SCITEGIC>MOL_PROPERTY
Conf_Id
SciTegic.value.IntegerValue
36

@<SCITEGIC>MOL_PROPERTY
Delta U+W
SciTegic.value.DoubleValue
0.000

@<SCITEGIC>MOL_PROPERTY
U+W
SciTegic.value.DoubleValue
-53.409

@<SCITEGIC>MOL_PROPERTY
Grad RMS
SciTegic.value.DoubleValue
0.000000

@<SCITEGIC>MOL_PROPERTY
U
SciTegic.value.DoubleValue
9.048

@<SCITEGIC>MOL_PROPERTY
W
SciTegic.value.DoubleValue
-62.457

@<SCITEGIC>MOL_PROPERTY
W(PB)
SciTegic.value.DoubleValue
-64.540

@<SCITEGIC>MOL_PROPERTY
W(SA)
SciTegic.value.DoubleValue
2.084

@<SCITEGIC>MOL_PROPERTY
Valence
SciTegic.value.DoubleValue
2.652

@<SCITEGIC>MOL_PROPERTY
Coulomb
SciTegic.value.DoubleValue
5.578

@<SCITEGIC>MOL_PROPERTY
VdW
SciTegic.value.DoubleValue
0.818

@<SCITEGIC>MOL_PROPERTY
VdW6
SciTegic.value.DoubleValue
-4.534

@<SCITEGIC>MOL_PROPERTY
VdW12
SciTegic.value.DoubleValue
5.352

@<SCITEGIC>MOL_PROPERTY
Bond
SciTegic.value.DoubleValue
0.063

@<SCITEGIC>MOL_PROPERTY
Angle
SciTegic.value.DoubleValue
2.579

@<SCITEGIC>MOL_PROPERTY
Pdih
SciTegic.value.DoubleValue
0.010

@<SCITEGIC>MOL_PROPERTY
Idih
SciTegic.value.DoubleValue
0.000

@<SCITEGIC>MOL_PROPERTY
Tether
SciTegic.value.DoubleValue
0.000

@<TRIPOS>MOLECULE
guest-s19_confgen4.mol2 : confsearch ligand conformer 498
          17          16           1
SMALL
USER_CHARGES
 
@<TRIPOS>ATOM
       1    C1      18.251877   21.862853   22.689258 C.2        1 MOL1         0.6173
       2    O1      19.031955   22.796199   22.662116 O.co2      1 MOL1        -0.6755
       3    O2      17.124068   21.957946   23.132777 O.co2      1 MOL1        -0.6755
       4    C2      18.673334   20.537230   22.160807 C.2        1 MOL1        -0.1504
       5    H1      17.928720   19.746306   22.214624 H          1 MOL1         0.0814
       6    C3      19.896230   20.287602   21.639944 C.2        1 MOL1        -0.1394
       7    H2      20.650552   21.072174   21.583198 H          1 MOL1         0.0817
       8    C4      20.317506   18.935938   21.106307 C.3        1 MOL1        -0.1849
       9    H3      21.119985   19.065931   20.367717 H          1 MOL1         0.0736
      10    H4      19.479033   18.463262   20.576828 H          1 MOL1         0.0736
      11    C5      20.804736   18.011031   22.240401 C.3        1 MOL1        -0.1866
      12    H5      21.644716   18.484975   22.767067 H          1 MOL1         0.0738
      13    H6      20.001556   17.876611   22.978231 H          1 MOL1         0.0738
      14    C6      21.244754   16.634224   21.703453 C.3        1 MOL1        -0.2879
      15    H7      22.069591   16.737426   20.986220 H          1 MOL1         0.0750
      16    H8      21.587828   15.990725   22.524025 H          1 MOL1         0.0750
      17    H9      20.413052   16.125300   21.198771 H          1 MOL1         0.0750
@<TRIPOS>BOND
    1     1     2    1
    2     1     3    2
    3     1     4    1
    4     4     5    1
    5     4     6    2
    6     6     7    1
    7     6     8    1
    8     8     9    1
    9     8    10    1
   10     8    11    1
   11    11    12    1
   12    11    13    1
   13    11    14    1
   14    14    15    1
   15    14    16    1
   16    14    17    1
@<TRIPOS>SUBSTRUCTURE
       1 MOL1            1 RESIDUE      1      MOL     
@<SCITEGIC>MOL_PROPERTY
VConf Rank
SciTegic.value.IntegerValue
498

@<SCITEGIC>MOL_PROPERTY
Conf_Id
SciTegic.value.IntegerValue
1

@<SCITEGIC>MOL_PROPERTY
Delta U+W
SciTegic.value.DoubleValue
0.030

@<SCITEGIC>MOL_PROPERTY
U+W
SciTegic.value.DoubleValue
-53.378

@<SCITEGIC>MOL_PROPERTY
Grad RMS
SciTegic.value.DoubleValue
0.000000

@<SCITEGIC>MOL_PROPERTY
U
SciTegic.value.DoubleValue
9.048

@<SCITEGIC>MOL_PROPERTY
W
SciTegic.value.DoubleValue
-62.426

@<SCITEGIC>MOL_PROPERTY
W(PB)
SciTegic.value.DoubleValue
-64.506

@<SCITEGIC>MOL_PROPERTY
W(SA)
SciTegic.value.DoubleValue
2.080

@<SCITEGIC>MOL_PROPERTY
Valence
SciTegic.value.DoubleValue
2.652

@<SCITEGIC>MOL_PROPERTY
Coulomb
SciTegic.value.DoubleValue
5.578

@<SCITEGIC>MOL_PROPERTY
VdW
SciTegic.value.DoubleValue
0.818

@<SCITEGIC>MOL_PROPERTY
VdW6
SciTegic.value.DoubleValue
-4.535

@<SCITEGIC>MOL_PROPERTY
VdW12
SciTegic.value.DoubleValue
5.352

@<SCITEGIC>MOL_PROPERTY
Bond
SciTegic.value.DoubleValue
0.063

@<SCITEGIC>MOL_PROPERTY
Angle
SciTegic.value.DoubleValue
2.579

@<SCITEGIC>MOL_PROPERTY
Pdih
SciTegic.value.DoubleValue
0.010

@<SCITEGIC>MOL_PROPERTY
Idih
SciTegic.value.DoubleValue
0.000

@<SCITEGIC>MOL_PROPERTY
Tether
SciTegic.value.DoubleValue
0.000

@<TRIPOS>MOLECULE
guest-s19_confgen4.mol2 : confsearch ligand conformer 499
          17          16           1
SMALL
USER_CHARGES
 
@<TRIPOS>ATOM
       1    C1      22.245720   20.405920   23.721798 C.2        1 MOL1         0.6173
       2    O1      21.577747   21.056244   24.503675 O.co2      1 MOL1        -0.6755
       3    O2      23.426187   20.173943   23.896422 O.co2      1 MOL1        -0.6755
       4    C2      21.613614   19.863023   22.488997 C.2        1 MOL1        -0.1504
       5    H1      22.266370   19.292008   21.832787 H          1 MOL1         0.0814
       6    C3      20.312104   20.041857   22.167944 C.2        1 MOL1        -0.1394
       7    H2      19.648403   20.609377   22.819880 H          1 MOL1         0.0817
       8    C4      19.674760   19.482919   20.913195 C.3        1 MOL1        -0.1849
       9    H3      20.366944   19.594110   20.067592 H          1 MOL1         0.0736
      10    H4      18.781319   20.067842   20.656441 H          1 MOL1         0.0736
      11    C5      19.292031   17.993950   21.061689 C.3        1 MOL1        -0.1866
      12    H5      18.934450   17.616755   20.093695 H          1 MOL1         0.0738
      13    H6      20.184323   17.405861   21.317408 H          1 MOL1         0.0738
      14    C6      18.197686   17.767942   22.126603 C.3        1 MOL1        -0.2879
      15    H7      17.290667   18.337022   21.884508 H          1 MOL1         0.0750
      16    H8      17.926658   16.705686   22.181956 H          1 MOL1         0.0750
      17    H9      18.542572   18.079338   23.121243 H          1 MOL1         0.0750
@<TRIPOS>BOND
    1     1     2    1
    2     1     3    2
    3     1     4    1
    4     4     5    1
    5     4     6    2
    6     6     7    1
    7     6     8    1
    8     8     9    1
    9     8    10    1
   10     8    11    1
   11    11    12    1
   12    11    13    1
   13    11    14    1
   14    14    15    1
   15    14    16    1
   16    14    17    1
@<TRIPOS>SUBSTRUCTURE
       1 MOL1            1 RESIDUE      1      MOL     
@<SCITEGIC>MOL_PROPERTY
VConf Rank
SciTegic.value.IntegerValue
499

@<SCITEGIC>MOL_PROPERTY
Conf_Id
SciTegic.value.IntegerValue
3

@<SCITEGIC>MOL_PROPERTY
Delta U+W
SciTegic.value.DoubleValue
0.531

@<SCITEGIC>MOL_PROPERTY
U+W
SciTegic.value.DoubleValue
-52.878

@<SCITEGIC>MOL_PROPERTY
Grad RMS
SciTegic.value.DoubleValue
0.000000

@<SCITEGIC>MOL_PROPERTY
U
SciTegic.value.DoubleValue
10.067

@<SCITEGIC>MOL_PROPERTY
W
SciTegic.value.DoubleValue
-62.945

@<SCITEGIC>MOL_PROPERTY
W(PB)
SciTegic.value.DoubleValue
-64.982

@<SCITEGIC>MOL_PROPERTY
W(SA)
SciTegic.value.DoubleValue
2.037

@<SCITEGIC>MOL_PROPERTY
Valence
SciTegic.value.DoubleValue
2.779

@<SCITEGIC>MOL_PROPERTY
Coulomb
SciTegic.value.DoubleValue
6.474

@<SCITEGIC>MOL_PROPERTY
VdW
SciTegic.value.DoubleValue
0.815

@<SCITEGIC>MOL_PROPERTY
VdW6
SciTegic.value.DoubleValue
-5.088

@<SCITEGIC>MOL_PROPERTY
VdW12
SciTegic.value.DoubleValue
5.902

@<SCITEGIC>MOL_PROPERTY
Bond
SciTegic.value.DoubleValue
0.078

@<SCITEGIC>MOL_PROPERTY
Angle
SciTegic.value.DoubleValue
2.651

@<SCITEGIC>MOL_PROPERTY
Pdih
SciTegic.value.DoubleValue
0.050

@<SCITEGIC>MOL_PROPERTY
Idih
SciTegic.value.DoubleValue
0.000

@<SCITEGIC>MOL_PROPERTY
Tether
SciTegic.value.DoubleValue
0.000

@<TRIPOS>MOLECULE
guest-s19_confgen4.mol2 : confsearch ligand conformer 500
          17          16           1
SMALL
USER_CHARGES
 
@<TRIPOS>ATOM
       1    C1      22.335192   20.941355   21.670658 C.2        1 MOL1         0.6173
       2    O1      23.326782   21.092935   22.357356 O.co2      1 MOL1        -0.6755
       3    O2      21.951644   21.774853   20.871521 O.co2      1 MOL1        -0.6755
       4    C2      21.576141   19.671535   21.830250 C.2        1 MOL1        -0.1504
       5    H1      21.973293   18.970670   22.560842 H          1 MOL1         0.0814
       6    C3      20.455793   19.370775   21.134585 C.2        1 MOL1        -0.1394
       7    H2      20.049028   20.068863   20.403331 H          1 MOL1         0.0817
       8    C4      19.683677   18.078340   21.301271 C.3        1 MOL1        -0.1849
       9    H3      20.300806   17.321698   21.804644 H          1 MOL1         0.0736
      10    H4      19.449452   17.670291   20.308978 H          1 MOL1         0.0736
      11    C5      18.367380   18.278688   22.083825 C.3        1 MOL1        -0.1866
      12    H5      17.750584   19.037369   21.582402 H          1 MOL1         0.0738
      13    H6      17.792076   17.342848   22.063146 H          1 MOL1         0.0738
      14    C6      18.606188   18.689820   23.552420 C.3        1 MOL1        -0.2879
      15    H7      19.123759   19.655925   23.614193 H          1 MOL1         0.0750
      16    H8      17.652084   18.784731   24.086784 H          1 MOL1         0.0750
      17    H9      19.215000   17.941025   24.075627 H          1 MOL1         0.0750
@<TRIPOS>BOND
    1     1     2    1
    2     1     3    2
    3     1     4    1
    4     4     5    1
    5     4     6    2
    6     6     7    1
    7     6     8    1
    8     8     9    1
    9     8    10    1
   10     8    11    1
   11    11    12    1
   12    11    13    1
   13    11    14    1
   14    14    15    1
   15    14    16    1
   16    14    17    1
@<TRIPOS>SUBSTRUCTURE
       1 MOL1            1 RESIDUE      1      MOL     
@<SCITEGIC>MOL_PROPERTY
VConf Rank
SciTegic.value.IntegerValue
500

@<SCITEGIC>MOL_PROPERTY
Conf_Id
SciTegic.value.IntegerValue
45

@<SCITEGIC>MOL_PROPERTY
Delta U+W
SciTegic.value.DoubleValue
0.562

@<SCITEGIC>MOL_PROPERTY
U+W
SciTegic.value.DoubleValue
-52.846

@<SCITEGIC>MOL_PROPERTY
Grad RMS
SciTegic.value.DoubleValue
0.000000

@<SCITEGIC>MOL_PROPERTY
U
SciTegic.value.DoubleValue
10.243

@<SCITEGIC>MOL_PROPERTY
W
SciTegic.value.DoubleValue
-63.089

@<SCITEGIC>MOL_PROPERTY
W(PB)
SciTegic.value.DoubleValue
-65.116

@<SCITEGIC>MOL_PROPERTY
W(SA)
SciTegic.value.DoubleValue
2.026

@<SCITEGIC>MOL_PROPERTY
Valence
SciTegic.value.DoubleValue
2.822

@<SCITEGIC>MOL_PROPERTY
Coulomb
SciTegic.value.DoubleValue
6.637

@<SCITEGIC>MOL_PROPERTY
VdW
SciTegic.value.DoubleValue
0.785

@<SCITEGIC>MOL_PROPERTY
VdW6
SciTegic.value.DoubleValue
-5.216

@<SCITEGIC>MOL_PROPERTY
VdW12
SciTegic.value.DoubleValue
6.001

@<SCITEGIC>MOL_PROPERTY
Bond
SciTegic.value.DoubleValue
0.080

@<SCITEGIC>MOL_PROPERTY
Angle
SciTegic.value.DoubleValue
2.678

@<SCITEGIC>MOL_PROPERTY
Pdih
SciTegic.value.DoubleValue
0.064

@<SCITEGIC>MOL_PROPERTY
Idih
SciTegic.value.DoubleValue
0.000

@<SCITEGIC>MOL_PROPERTY
Tether
SciTegic.value.DoubleValue
0.000

@<TRIPOS>MOLECULE
guest-s19_confgen4.mol2 : confsearch ligand conformer 501
          17          16           1
SMALL
USER_CHARGES
 
@<TRIPOS>ATOM
       1    C1      23.000123   18.040759   20.828912 C.2        1 MOL1         0.6173
       2    O1      23.603319   17.025330   21.116596 O.co2      1 MOL1        -0.6755
       3    O2      23.517326   18.972507   20.241765 O.co2      1 MOL1        -0.6755
       4    C2      21.567191   18.123784   21.221309 C.2        1 MOL1        -0.1504
       5    H1      21.167000   17.257378   21.742938 H          1 MOL1         0.0814
       6    C3      20.776768   19.191375   20.967213 C.2        1 MOL1        -0.1394
       7    H2      21.168101   20.065662   20.447353 H          1 MOL1         0.0817
       8    C4      19.320854   19.268685   21.371659 C.3        1 MOL1        -0.1849
       9    H3      18.841249   18.289525   21.237372 H          1 MOL1         0.0736
      10    H4      18.792213   19.968800   20.710778 H          1 MOL1         0.0736
      11    C5      19.168182   19.726552   22.836604 C.3        1 MOL1        -0.1866
      12    H5      19.693052   19.024737   23.499573 H          1 MOL1         0.0738
      13    H6      19.646838   20.706965   22.967927 H          1 MOL1         0.0738
      14    C6      17.686547   19.817015   23.253856 C.3        1 MOL1        -0.2879
      15    H7      17.144830   20.536959   22.626436 H          1 MOL1         0.0750
      16    H8      17.192052   18.841142   23.161211 H          1 MOL1         0.0750
      17    H9      17.598105   20.143861   24.298117 H          1 MOL1         0.0750
@<TRIPOS>BOND
    1     1     2    1
    2     1     3    2
    3     1     4    1
    4     4     5    1
    5     4     6    2
    6     6     7    1
    7     6     8    1
    8     8     9    1
    9     8    10    1
   10     8    11    1
   11    11    12    1
   12    11    13    1
   13    11    14    1
   14    14    15    1
   15    14    16    1
   16    14    17    1
@<TRIPOS>SUBSTRUCTURE
       1 MOL1            1 RESIDUE      1      MOL     
@<SCITEGIC>MOL_PROPERTY
VConf Rank
SciTegic.value.IntegerValue
501

@<SCITEGIC>MOL_PROPERTY
Conf_Id
SciTegic.value.IntegerValue
36

@<SCITEGIC>MOL_PROPERTY
Delta U+W
SciTegic.value.DoubleValue
0.000

@<SCITEGIC>MOL_PROPERTY
U+W
SciTegic.value.DoubleValue
-53.409

@<SCITEGIC>MOL_PROPERTY
Grad RMS
SciTegic.value.DoubleValue
0.000000

@<SCITEGIC>MOL_PROPERTY
U
SciTegic.value.DoubleValue
9.048

@<SCITEGIC>MOL_PROPERTY
W
SciTegic.value.DoubleValue
-62.457

@<SCITEGIC>MOL_PROPERTY
W(PB)
SciTegic.value.DoubleValue
-64.540

@<SCITEGIC>MOL_PROPERTY
W(SA)
SciTegic.value.DoubleValue
2.084

@<SCITEGIC>MOL_PROPERTY
Valence
SciTegic.value.DoubleValue
2.652

@<SCITEGIC>MOL_PROPERTY
Coulomb
SciTegic.value.DoubleValue
5.578

@<SCITEGIC>MOL_PROPERTY
VdW
SciTegic.value.DoubleValue
0.818

@<SCITEGIC>MOL_PROPERTY
VdW6
SciTegic.value.DoubleValue
-4.534

@<SCITEGIC>MOL_PROPERTY
VdW12
SciTegic.value.DoubleValue
5.352

@<SCITEGIC>MOL_PROPERTY
Bond
SciTegic.value.DoubleValue
0.063

@<SCITEGIC>MOL_PROPERTY
Angle
SciTegic.value.DoubleValue
2.579

@<SCITEGIC>MOL_PROPERTY
Pdih
SciTegic.value.DoubleValue
0.010

@<SCITEGIC>MOL_PROPERTY
Idih
SciTegic.value.DoubleValue
0.000

@<SCITEGIC>MOL_PROPERTY
Tether
SciTegic.value.DoubleValue
0.000

@<TRIPOS>MOLECULE
guest-s19_confgen4.mol2 : confsearch ligand conformer 502
          17          16           1
SMALL
USER_CHARGES
 
@<TRIPOS>ATOM
       1    C1      18.108445   21.843165   21.484477 C.2        1 MOL1         0.6173
       2    O1      16.951961   21.467526   21.441660 O.co2      1 MOL1        -0.6755
       3    O2      18.445465   22.975890   21.199770 O.co2      1 MOL1        -0.6755
       4    C2      19.174762   20.893031   21.902060 C.2        1 MOL1        -0.1504
       5    H1      20.186260   21.292398   21.919012 H          1 MOL1         0.0814
       6    C3      18.944754   19.605143   22.244881 C.2        1 MOL1        -0.1394
       7    H2      17.935508   19.194104   22.229294 H          1 MOL1         0.0817
       8    C4      20.035239   18.644837   22.666656 C.3        1 MOL1        -0.1849
       9    H3      19.605457   17.853487   23.295497 H          1 MOL1         0.0736
      10    H4      20.777172   19.167507   23.285653 H          1 MOL1         0.0736
      11    C5      20.730498   18.011940   21.443924 C.3        1 MOL1        -0.1866
      12    H5      19.986785   17.487965   20.827559 H          1 MOL1         0.0738
      13    H6      21.164638   18.802192   20.815765 H          1 MOL1         0.0738
      14    C6      21.837320   17.024663   21.865533 C.3        1 MOL1        -0.2879
      15    H7      21.424443   16.205818   22.469234 H          1 MOL1         0.0750
      16    H8      22.320009   16.584927   20.983051 H          1 MOL1         0.0750
      17    H9      22.610775   17.531140   22.457718 H          1 MOL1         0.0750
@<TRIPOS>BOND
    1     1     2    1
    2     1     3    2
    3     1     4    1
    4     4     5    1
    5     4     6    2
    6     6     7    1
    7     6     8    1
    8     8     9    1
    9     8    10    1
   10     8    11    1
   11    11    12    1
   12    11    13    1
   13    11    14    1
   14    14    15    1
   15    14    16    1
   16    14    17    1
@<TRIPOS>SUBSTRUCTURE
       1 MOL1            1 RESIDUE      1      MOL     
@<SCITEGIC>MOL_PROPERTY
VConf Rank
SciTegic.value.IntegerValue
502

@<SCITEGIC>MOL_PROPERTY
Conf_Id
SciTegic.value.IntegerValue
1

@<SCITEGIC>MOL_PROPERTY
Delta U+W
SciTegic.value.DoubleValue
0.030

@<SCITEGIC>MOL_PROPERTY
U+W
SciTegic.value.DoubleValue
-53.378

@<SCITEGIC>MOL_PROPERTY
Grad RMS
SciTegic.value.DoubleValue
0.000000

@<SCITEGIC>MOL_PROPERTY
U
SciTegic.value.DoubleValue
9.048

@<SCITEGIC>MOL_PROPERTY
W
SciTegic.value.DoubleValue
-62.426

@<SCITEGIC>MOL_PROPERTY
W(PB)
SciTegic.value.DoubleValue
-64.506

@<SCITEGIC>MOL_PROPERTY
W(SA)
SciTegic.value.DoubleValue
2.080

@<SCITEGIC>MOL_PROPERTY
Valence
SciTegic.value.DoubleValue
2.652

@<SCITEGIC>MOL_PROPERTY
Coulomb
SciTegic.value.DoubleValue
5.578

@<SCITEGIC>MOL_PROPERTY
VdW
SciTegic.value.DoubleValue
0.818

@<SCITEGIC>MOL_PROPERTY
VdW6
SciTegic.value.DoubleValue
-4.535

@<SCITEGIC>MOL_PROPERTY
VdW12
SciTegic.value.DoubleValue
5.352

@<SCITEGIC>MOL_PROPERTY
Bond
SciTegic.value.DoubleValue
0.063

@<SCITEGIC>MOL_PROPERTY
Angle
SciTegic.value.DoubleValue
2.579

@<SCITEGIC>MOL_PROPERTY
Pdih
SciTegic.value.DoubleValue
0.010

@<SCITEGIC>MOL_PROPERTY
Idih
SciTegic.value.DoubleValue
0.000

@<SCITEGIC>MOL_PROPERTY
Tether
SciTegic.value.DoubleValue
0.000

@<TRIPOS>MOLECULE
guest-s19_confgen4.mol2 : confsearch ligand conformer 503
          17          16           1
SMALL
USER_CHARGES
 
@<TRIPOS>ATOM
       1    C1      20.805512   19.669603   24.972552 C.2        1 MOL1         0.6173
       2    O1      22.012044   19.775855   24.856651 O.co2      1 MOL1        -0.6755
       3    O2      20.200855   20.051825   25.955459 O.co2      1 MOL1        -0.6755
       4    C2      20.013860   19.044837   23.878456 C.2        1 MOL1        -0.1504
       5    H1      18.941262   18.979899   24.046016 H          1 MOL1         0.0814
       6    C3      20.553623   18.577125   22.730027 C.2        1 MOL1        -0.1394
       7    H2      21.626625   18.640217   22.550355 H          1 MOL1         0.0817
       8    C4      19.740953   17.945912   21.619104 C.3        1 MOL1        -0.1849
       9    H3      18.968496   17.295692   22.051598 H          1 MOL1         0.0736
      10    H4      20.383330   17.295216   21.010629 H          1 MOL1         0.0736
      11    C5      19.066691   18.999287   20.712829 C.3        1 MOL1        -0.1866
      12    H5      18.410123   18.488276   19.995238 H          1 MOL1         0.0738
      13    H6      18.422220   19.651179   21.318734 H          1 MOL1         0.0738
      14    C6      20.091007   19.855670   19.938169 C.3        1 MOL1        -0.2879
      15    H7      20.738678   19.225215   19.315117 H          1 MOL1         0.0750
      16    H8      19.578326   20.569308   19.280305 H          1 MOL1         0.0750
      17    H9      20.727951   20.428683   20.624594 H          1 MOL1         0.0750
@<TRIPOS>BOND
    1     1     2    1
    2     1     3    2
    3     1     4    1
    4     4     5    1
    5     4     6    2
    6     6     7    1
    7     6     8    1
    8     8     9    1
    9     8    10    1
   10     8    11    1
   11    11    12    1
   12    11    13    1
   13    11    14    1
   14    14    15    1
   15    14    16    1
   16    14    17    1
@<TRIPOS>SUBSTRUCTURE
       1 MOL1            1 RESIDUE      1      MOL     
@<SCITEGIC>MOL_PROPERTY
VConf Rank
SciTegic.value.IntegerValue
503

@<SCITEGIC>MOL_PROPERTY
Conf_Id
SciTegic.value.IntegerValue
3

@<SCITEGIC>MOL_PROPERTY
Delta U+W
SciTegic.value.DoubleValue
0.531

@<SCITEGIC>MOL_PROPERTY
U+W
SciTegic.value.DoubleValue
-52.878

@<SCITEGIC>MOL_PROPERTY
Grad RMS
SciTegic.value.DoubleValue
0.000000

@<SCITEGIC>MOL_PROPERTY
U
SciTegic.value.DoubleValue
10.067

@<SCITEGIC>MOL_PROPERTY
W
SciTegic.value.DoubleValue
-62.945

@<SCITEGIC>MOL_PROPERTY
W(PB)
SciTegic.value.DoubleValue
-64.982

@<SCITEGIC>MOL_PROPERTY
W(SA)
SciTegic.value.DoubleValue
2.037

@<SCITEGIC>MOL_PROPERTY
Valence
SciTegic.value.DoubleValue
2.779

@<SCITEGIC>MOL_PROPERTY
Coulomb
SciTegic.value.DoubleValue
6.474

@<SCITEGIC>MOL_PROPERTY
VdW
SciTegic.value.DoubleValue
0.815

@<SCITEGIC>MOL_PROPERTY
VdW6
SciTegic.value.DoubleValue
-5.088

@<SCITEGIC>MOL_PROPERTY
VdW12
SciTegic.value.DoubleValue
5.902

@<SCITEGIC>MOL_PROPERTY
Bond
SciTegic.value.DoubleValue
0.078

@<SCITEGIC>MOL_PROPERTY
Angle
SciTegic.value.DoubleValue
2.651

@<SCITEGIC>MOL_PROPERTY
Pdih
SciTegic.value.DoubleValue
0.050

@<SCITEGIC>MOL_PROPERTY
Idih
SciTegic.value.DoubleValue
0.000

@<SCITEGIC>MOL_PROPERTY
Tether
SciTegic.value.DoubleValue
0.000

@<TRIPOS>MOLECULE
guest-s19_confgen4.mol2 : confsearch ligand conformer 504
          17          16           1
SMALL
USER_CHARGES
 
@<TRIPOS>ATOM
       1    C1      20.656952   21.349210   23.972567 C.2        1 MOL1         0.6173
       2    O1      21.733375   21.673921   24.434798 O.co2      1 MOL1        -0.6755
       3    O2      19.597589   21.665972   24.480366 O.co2      1 MOL1        -0.6755
       4    C2      20.661207   20.531608   22.729353 C.2        1 MOL1        -0.1504
       5    H1      21.641319   20.283966   22.328403 H          1 MOL1         0.0814
       6    C3      19.540288   20.098748   22.108260 C.2        1 MOL1        -0.1394
       7    H2      18.554356   20.339235   22.505275 H          1 MOL1         0.0817
       8    C4      19.547906   19.264187   20.844224 C.3        1 MOL1        -0.1849
       9    H3      20.526214   19.323242   20.348073 H          1 MOL1         0.0736
      10    H4      18.820377   19.681155   20.135105 H          1 MOL1         0.0736
      11    C5      19.192136   17.786034   21.115624 C.3        1 MOL1        -0.1866
      12    H5      18.214806   17.726200   21.614327 H          1 MOL1         0.0738
      13    H6      19.087625   17.260547   20.156386 H          1 MOL1         0.0738
      14    C6      20.257215   17.065998   21.970016 C.3        1 MOL1        -0.2879
      15    H7      20.344462   17.524665   22.963528 H          1 MOL1         0.0750
      16    H8      19.991257   16.010186   22.109276 H          1 MOL1         0.0750
      17    H9      21.241794   17.106848   21.486250 H          1 MOL1         0.0750
@<TRIPOS>BOND
    1     1     2    1
    2     1     3    2
    3     1     4    1
    4     4     5    1
    5     4     6    2
    6     6     7    1
    7     6     8    1
    8     8     9    1
    9     8    10    1
   10     8    11    1
   11    11    12    1
   12    11    13    1
   13    11    14    1
   14    14    15    1
   15    14    16    1
   16    14    17    1
@<TRIPOS>SUBSTRUCTURE
       1 MOL1            1 RESIDUE      1      MOL     
@<SCITEGIC>MOL_PROPERTY
VConf Rank
SciTegic.value.IntegerValue
504

@<SCITEGIC>MOL_PROPERTY
Conf_Id
SciTegic.value.IntegerValue
45

@<SCITEGIC>MOL_PROPERTY
Delta U+W
SciTegic.value.DoubleValue
0.562

@<SCITEGIC>MOL_PROPERTY
U+W
SciTegic.value.DoubleValue
-52.846

@<SCITEGIC>MOL_PROPERTY
Grad RMS
SciTegic.value.DoubleValue
0.000000

@<SCITEGIC>MOL_PROPERTY
U
SciTegic.value.DoubleValue
10.243

@<SCITEGIC>MOL_PROPERTY
W
SciTegic.value.DoubleValue
-63.089

@<SCITEGIC>MOL_PROPERTY
W(PB)
SciTegic.value.DoubleValue
-65.116

@<SCITEGIC>MOL_PROPERTY
W(SA)
SciTegic.value.DoubleValue
2.026

@<SCITEGIC>MOL_PROPERTY
Valence
SciTegic.value.DoubleValue
2.822

@<SCITEGIC>MOL_PROPERTY
Coulomb
SciTegic.value.DoubleValue
6.637

@<SCITEGIC>MOL_PROPERTY
VdW
SciTegic.value.DoubleValue
0.785

@<SCITEGIC>MOL_PROPERTY
VdW6
SciTegic.value.DoubleValue
-5.216

@<SCITEGIC>MOL_PROPERTY
VdW12
SciTegic.value.DoubleValue
6.001

@<SCITEGIC>MOL_PROPERTY
Bond
SciTegic.value.DoubleValue
0.080

@<SCITEGIC>MOL_PROPERTY
Angle
SciTegic.value.DoubleValue
2.678

@<SCITEGIC>MOL_PROPERTY
Pdih
SciTegic.value.DoubleValue
0.064

@<SCITEGIC>MOL_PROPERTY
Idih
SciTegic.value.DoubleValue
0.000

@<SCITEGIC>MOL_PROPERTY
Tether
SciTegic.value.DoubleValue
0.000

@<TRIPOS>MOLECULE
guest-s19_confgen4.mol2 : confsearch ligand conformer 505
          17          16           1
SMALL
USER_CHARGES
 
@<TRIPOS>ATOM
       1    C1      19.803431   15.789951   21.395804 C.2        1 MOL1         0.6173
       2    O1      19.834569   14.882527   22.204083 O.co2      1 MOL1        -0.6755
       3    O2      19.923510   15.612254   20.198140 O.co2      1 MOL1        -0.6755
       4    C2      19.607396   17.169438   21.918057 C.2        1 MOL1        -0.1504
       5    H1      19.506971   17.258488   22.997360 H          1 MOL1         0.0814
       6    C3      19.553952   18.271146   21.135455 C.2        1 MOL1        -0.1394
       7    H2      19.655794   18.193614   20.053147 H          1 MOL1         0.0817
       8    C4      19.356447   19.670897   21.674831 C.3        1 MOL1        -0.1849
       9    H3      18.641312   19.654687   22.508575 H          1 MOL1         0.0736
      10    H4      18.913796   20.306185   20.895821 H          1 MOL1         0.0736
      11    C5      20.690698   20.285217   22.145362 C.3        1 MOL1        -0.1866
      12    H5      21.132871   19.652954   22.927849 H          1 MOL1         0.0738
      13    H6      21.403585   20.302220   21.309257 H          1 MOL1         0.0738
      14    C6      20.499391   21.715789   22.687940 C.3        1 MOL1        -0.2879
      15    H7      20.087546   22.377559   21.914715 H          1 MOL1         0.0750
      16    H8      19.813939   21.722258   23.545582 H          1 MOL1         0.0750
      17    H9      21.458544   22.135852   23.017640 H          1 MOL1         0.0750
@<TRIPOS>BOND
    1     1     2    1
    2     1     3    2
    3     1     4    1
    4     4     5    1
    5     4     6    2
    6     6     7    1
    7     6     8    1
    8     8     9    1
    9     8    10    1
   10     8    11    1
   11    11    12    1
   12    11    13    1
   13    11    14    1
   14    14    15    1
   15    14    16    1
   16    14    17    1
@<TRIPOS>SUBSTRUCTURE
       1 MOL1            1 RESIDUE      1      MOL     
@<SCITEGIC>MOL_PROPERTY
VConf Rank
SciTegic.value.IntegerValue
505

@<SCITEGIC>MOL_PROPERTY
Conf_Id
SciTegic.value.IntegerValue
36

@<SCITEGIC>MOL_PROPERTY
Delta U+W
SciTegic.value.DoubleValue
0.000

@<SCITEGIC>MOL_PROPERTY
U+W
SciTegic.value.DoubleValue
-53.409

@<SCITEGIC>MOL_PROPERTY
Grad RMS
SciTegic.value.DoubleValue
0.000000

@<SCITEGIC>MOL_PROPERTY
U
SciTegic.value.DoubleValue
9.048

@<SCITEGIC>MOL_PROPERTY
W
SciTegic.value.DoubleValue
-62.457

@<SCITEGIC>MOL_PROPERTY
W(PB)
SciTegic.value.DoubleValue
-64.540

@<SCITEGIC>MOL_PROPERTY
W(SA)
SciTegic.value.DoubleValue
2.084

@<SCITEGIC>MOL_PROPERTY
Valence
SciTegic.value.DoubleValue
2.652

@<SCITEGIC>MOL_PROPERTY
Coulomb
SciTegic.value.DoubleValue
5.578

@<SCITEGIC>MOL_PROPERTY
VdW
SciTegic.value.DoubleValue
0.818

@<SCITEGIC>MOL_PROPERTY
VdW6
SciTegic.value.DoubleValue
-4.534

@<SCITEGIC>MOL_PROPERTY
VdW12
SciTegic.value.DoubleValue
5.352

@<SCITEGIC>MOL_PROPERTY
Bond
SciTegic.value.DoubleValue
0.063

@<SCITEGIC>MOL_PROPERTY
Angle
SciTegic.value.DoubleValue
2.579

@<SCITEGIC>MOL_PROPERTY
Pdih
SciTegic.value.DoubleValue
0.010

@<SCITEGIC>MOL_PROPERTY
Idih
SciTegic.value.DoubleValue
0.000

@<SCITEGIC>MOL_PROPERTY
Tether
SciTegic.value.DoubleValue
0.000

@<TRIPOS>MOLECULE
guest-s19_confgen4.mol2 : confsearch ligand conformer 506
          17          16           1
SMALL
USER_CHARGES
 
@<TRIPOS>ATOM
       1    C1      19.393386   19.541508   18.628614 C.2        1 MOL1         0.6173
       2    O1      19.581478   18.469475   18.084775 O.co2      1 MOL1        -0.6755
       3    O2      19.230425   20.575534   18.010602 O.co2      1 MOL1        -0.6755
       4    C2      19.355530   19.615247   20.114310 C.2        1 MOL1        -0.1504
       5    H1      19.183466   20.602806   20.536245 H          1 MOL1         0.0814
       6    C3      19.522091   18.546743   20.926493 C.2        1 MOL1        -0.1394
       7    H2      19.697251   17.553127   20.514400 H          1 MOL1         0.0817
       8    C4      19.484005   18.630678   22.436706 C.3        1 MOL1        -0.1849
       9    H3      19.200559   17.654299   22.852313 H          1 MOL1         0.0736
      10    H4      18.709360   19.342108   22.753882 H          1 MOL1         0.0736
      11    C5      20.850259   19.058813   23.010351 C.3        1 MOL1        -0.1866
      12    H5      21.622965   18.344575   22.693562 H          1 MOL1         0.0738
      13    H6      21.133456   20.037515   22.598644 H          1 MOL1         0.0738
      14    C6      20.822332   19.137767   24.549998 C.3        1 MOL1        -0.2879
      15    H7      20.572389   18.162980   24.989030 H          1 MOL1         0.0750
      16    H8      21.802132   19.443516   24.939406 H          1 MOL1         0.0750
      17    H9      20.078407   19.869042   24.892415 H          1 MOL1         0.0750
@<TRIPOS>BOND
    1     1     2    1
    2     1     3    2
    3     1     4    1
    4     4     5    1
    5     4     6    2
    6     6     7    1
    7     6     8    1
    8     8     9    1
    9     8    10    1
   10     8    11    1
   11    11    12    1
   12    11    13    1
   13    11    14    1
   14    14    15    1
   15    14    16    1
   16    14    17    1
@<TRIPOS>SUBSTRUCTURE
       1 MOL1            1 RESIDUE      1      MOL     
@<SCITEGIC>MOL_PROPERTY
VConf Rank
SciTegic.value.IntegerValue
506

@<SCITEGIC>MOL_PROPERTY
Conf_Id
SciTegic.value.IntegerValue
1

@<SCITEGIC>MOL_PROPERTY
Delta U+W
SciTegic.value.DoubleValue
0.030

@<SCITEGIC>MOL_PROPERTY
U+W
SciTegic.value.DoubleValue
-53.378

@<SCITEGIC>MOL_PROPERTY
Grad RMS
SciTegic.value.DoubleValue
0.000000

@<SCITEGIC>MOL_PROPERTY
U
SciTegic.value.DoubleValue
9.048

@<SCITEGIC>MOL_PROPERTY
W
SciTegic.value.DoubleValue
-62.426

@<SCITEGIC>MOL_PROPERTY
W(PB)
SciTegic.value.DoubleValue
-64.506

@<SCITEGIC>MOL_PROPERTY
W(SA)
SciTegic.value.DoubleValue
2.080

@<SCITEGIC>MOL_PROPERTY
Valence
SciTegic.value.DoubleValue
2.652

@<SCITEGIC>MOL_PROPERTY
Coulomb
SciTegic.value.DoubleValue
5.578

@<SCITEGIC>MOL_PROPERTY
VdW
SciTegic.value.DoubleValue
0.818

@<SCITEGIC>MOL_PROPERTY
VdW6
SciTegic.value.DoubleValue
-4.535

@<SCITEGIC>MOL_PROPERTY
VdW12
SciTegic.value.DoubleValue
5.352

@<SCITEGIC>MOL_PROPERTY
Bond
SciTegic.value.DoubleValue
0.063

@<SCITEGIC>MOL_PROPERTY
Angle
SciTegic.value.DoubleValue
2.579

@<SCITEGIC>MOL_PROPERTY
Pdih
SciTegic.value.DoubleValue
0.010

@<SCITEGIC>MOL_PROPERTY
Idih
SciTegic.value.DoubleValue
0.000

@<SCITEGIC>MOL_PROPERTY
Tether
SciTegic.value.DoubleValue
0.000

@<TRIPOS>MOLECULE
guest-s19_confgen4.mol2 : confsearch ligand conformer 507
          17          16           1
SMALL
USER_CHARGES
 
@<TRIPOS>ATOM
       1    C1      22.817585   18.791275   23.301926 C.2        1 MOL1         0.6173
       2    O1      23.514953   18.942640   22.316428 O.co2      1 MOL1        -0.6755
       3    O2      23.252927   18.858455   24.434964 O.co2      1 MOL1        -0.6755
       4    C2      21.366100   18.507097   23.139060 C.2        1 MOL1        -0.1504
       5    H1      20.800711   18.381689   24.059586 H          1 MOL1         0.0814
       6    C3      20.747738   18.406261   21.940541 C.2        1 MOL1        -0.1394
       7    H2      21.303957   18.533485   21.012084 H          1 MOL1         0.0817
       8    C4      19.269058   18.120618   21.782654 C.3        1 MOL1        -0.1849
       9    H3      18.960358   17.361748   22.514328 H          1 MOL1         0.0736
      10    H4      19.076742   17.686914   20.792094 H          1 MOL1         0.0736
      11    C5      18.402942   19.385737   21.969411 C.3        1 MOL1        -0.1866
      12    H5      17.342003   19.100848   21.949431 H          1 MOL1         0.0738
      13    H6      18.592291   19.821315   22.960292 H          1 MOL1         0.0738
      14    C6      18.661270   20.445832   20.877542 C.3        1 MOL1        -0.2879
      15    H7      18.465920   20.035837   19.878098 H          1 MOL1         0.0750
      16    H8      18.006624   21.315151   21.021172 H          1 MOL1         0.0750
      17    H9      19.700377   20.798899   20.906220 H          1 MOL1         0.0750
@<TRIPOS>BOND
    1     1     2    1
    2     1     3    2
    3     1     4    1
    4     4     5    1
    5     4     6    2
    6     6     7    1
    7     6     8    1
    8     8     9    1
    9     8    10    1
   10     8    11    1
   11    11    12    1
   12    11    13    1
   13    11    14    1
   14    14    15    1
   15    14    16    1
   16    14    17    1
@<TRIPOS>SUBSTRUCTURE
       1 MOL1            1 RESIDUE      1      MOL     
@<SCITEGIC>MOL_PROPERTY
VConf Rank
SciTegic.value.IntegerValue
507

@<SCITEGIC>MOL_PROPERTY
Conf_Id
SciTegic.value.IntegerValue
3

@<SCITEGIC>MOL_PROPERTY
Delta U+W
SciTegic.value.DoubleValue
0.531

@<SCITEGIC>MOL_PROPERTY
U+W
SciTegic.value.DoubleValue
-52.878

@<SCITEGIC>MOL_PROPERTY
Grad RMS
SciTegic.value.DoubleValue
0.000000

@<SCITEGIC>MOL_PROPERTY
U
SciTegic.value.DoubleValue
10.067

@<SCITEGIC>MOL_PROPERTY
W
SciTegic.value.DoubleValue
-62.945

@<SCITEGIC>MOL_PROPERTY
W(PB)
SciTegic.value.DoubleValue
-64.982

@<SCITEGIC>MOL_PROPERTY
W(SA)
SciTegic.value.DoubleValue
2.037

@<SCITEGIC>MOL_PROPERTY
Valence
SciTegic.value.DoubleValue
2.779

@<SCITEGIC>MOL_PROPERTY
Coulomb
SciTegic.value.DoubleValue
6.474

@<SCITEGIC>MOL_PROPERTY
VdW
SciTegic.value.DoubleValue
0.815

@<SCITEGIC>MOL_PROPERTY
VdW6
SciTegic.value.DoubleValue
-5.088

@<SCITEGIC>MOL_PROPERTY
VdW12
SciTegic.value.DoubleValue
5.902

@<SCITEGIC>MOL_PROPERTY
Bond
SciTegic.value.DoubleValue
0.078

@<SCITEGIC>MOL_PROPERTY
Angle
SciTegic.value.DoubleValue
2.651

@<SCITEGIC>MOL_PROPERTY
Pdih
SciTegic.value.DoubleValue
0.050

@<SCITEGIC>MOL_PROPERTY
Idih
SciTegic.value.DoubleValue
0.000

@<SCITEGIC>MOL_PROPERTY
Tether
SciTegic.value.DoubleValue
0.000

@<TRIPOS>MOLECULE
guest-s19_confgen4.mol2 : confsearch ligand conformer 508
          17          16           1
SMALL
USER_CHARGES
 
@<TRIPOS>ATOM
       1    C1      17.480332   17.416616   22.306360 C.2        1 MOL1         0.6173
       2    O1      16.960339   16.686213   21.485447 O.co2      1 MOL1        -0.6755
       3    O2      16.877698   17.873294   23.259631 O.co2      1 MOL1        -0.6755
       4    C2      18.918200   17.749525   22.117201 C.2        1 MOL1        -0.1504
       5    H1      19.396070   17.308334   21.245596 H          1 MOL1         0.0814
       6    C3      19.622207   18.550053   22.949736 C.2        1 MOL1        -0.1394
       7    H2      19.150217   18.999132   23.823276 H          1 MOL1         0.0817
       8    C4      21.085254   18.889338   22.752976 C.3        1 MOL1        -0.1849
       9    H3      21.556338   18.180398   22.058554 H          1 MOL1         0.0736
      10    H4      21.611580   18.774632   23.709968 H          1 MOL1         0.0736
      11    C5      21.288563   20.331565   22.239347 C.3        1 MOL1        -0.1866
      12    H5      20.815324   21.041240   22.932069 H          1 MOL1         0.0738
      13    H6      22.362540   20.563447   22.237752 H          1 MOL1         0.0738
      14    C6      20.726977   20.540086   20.816683 C.3        1 MOL1        -0.2879
      15    H7      19.641298   20.379650   20.791892 H          1 MOL1         0.0750
      16    H8      20.923743   21.562817   20.470025 H          1 MOL1         0.0750
      17    H9      21.192199   19.845380   20.105315 H          1 MOL1         0.0750
@<TRIPOS>BOND
    1     1     2    1
    2     1     3    2
    3     1     4    1
    4     4     5    1
    5     4     6    2
    6     6     7    1
    7     6     8    1
    8     8     9    1
    9     8    10    1
   10     8    11    1
   11    11    12    1
   12    11    13    1
   13    11    14    1
   14    14    15    1
   15    14    16    1
   16    14    17    1
@<TRIPOS>SUBSTRUCTURE
       1 MOL1            1 RESIDUE      1      MOL     
@<SCITEGIC>MOL_PROPERTY
VConf Rank
SciTegic.value.IntegerValue
508

@<SCITEGIC>MOL_PROPERTY
Conf_Id
SciTegic.value.IntegerValue
45

@<SCITEGIC>MOL_PROPERTY
Delta U+W
SciTegic.value.DoubleValue
0.562

@<SCITEGIC>MOL_PROPERTY
U+W
SciTegic.value.DoubleValue
-52.846

@<SCITEGIC>MOL_PROPERTY
Grad RMS
SciTegic.value.DoubleValue
0.000000

@<SCITEGIC>MOL_PROPERTY
U
SciTegic.value.DoubleValue
10.243

@<SCITEGIC>MOL_PROPERTY
W
SciTegic.value.DoubleValue
-63.089

@<SCITEGIC>MOL_PROPERTY
W(PB)
SciTegic.value.DoubleValue
-65.116

@<SCITEGIC>MOL_PROPERTY
W(SA)
SciTegic.value.DoubleValue
2.026

@<SCITEGIC>MOL_PROPERTY
Valence
SciTegic.value.DoubleValue
2.822

@<SCITEGIC>MOL_PROPERTY
Coulomb
SciTegic.value.DoubleValue
6.637

@<SCITEGIC>MOL_PROPERTY
VdW
SciTegic.value.DoubleValue
0.785

@<SCITEGIC>MOL_PROPERTY
VdW6
SciTegic.value.DoubleValue
-5.216

@<SCITEGIC>MOL_PROPERTY
VdW12
SciTegic.value.DoubleValue
6.001

@<SCITEGIC>MOL_PROPERTY
Bond
SciTegic.value.DoubleValue
0.080

@<SCITEGIC>MOL_PROPERTY
Angle
SciTegic.value.DoubleValue
2.678

@<SCITEGIC>MOL_PROPERTY
Pdih
SciTegic.value.DoubleValue
0.064

@<SCITEGIC>MOL_PROPERTY
Idih
SciTegic.value.DoubleValue
0.000

@<SCITEGIC>MOL_PROPERTY
Tether
SciTegic.value.DoubleValue
0.000

@<TRIPOS>MOLECULE
guest-s19_confgen4.mol2 : confsearch ligand conformer 509
          17          16           1
SMALL
USER_CHARGES
 
@<TRIPOS>ATOM
       1    C1      22.562138   20.315380   20.084867 C.2        1 MOL1         0.6173
       2    O1      23.737295   20.412665   20.380240 O.co2      1 MOL1        -0.6755
       3    O2      22.077231   20.865641   19.114056 O.co2      1 MOL1        -0.6755
       4    C2      21.699244   19.480181   20.963513 C.2        1 MOL1        -0.1504
       5    H1      22.194893   19.016749   21.813495 H          1 MOL1         0.0814
       6    C3      20.377107   19.285147   20.756145 C.2        1 MOL1        -0.1394
       7    H2      19.869979   19.746625   19.909013 H          1 MOL1         0.0817
       8    C4      19.506170   18.435908   21.655867 C.3        1 MOL1        -0.1849
       9    H3      20.062714   17.549481   21.989504 H          1 MOL1         0.0736
      10    H4      18.641264   18.066546   21.088508 H          1 MOL1         0.0736
      11    C5      19.016702   19.234837   22.881080 C.3        1 MOL1        -0.1866
      12    H5      19.880923   19.601584   23.452202 H          1 MOL1         0.0738
      13    H6      18.458637   20.119758   22.544860 H          1 MOL1         0.0738
      14    C6      18.120442   18.378907   23.798482 C.3        1 MOL1        -0.2879
      15    H7      17.231260   18.025174   23.260282 H          1 MOL1         0.0750
      16    H8      18.665403   17.502733   24.173680 H          1 MOL1         0.0750
      17    H9      17.782349   18.963720   24.663825 H          1 MOL1         0.0750
@<TRIPOS>BOND
    1     1     2    1
    2     1     3    2
    3     1     4    1
    4     4     5    1
    5     4     6    2
    6     6     7    1
    7     6     8    1
    8     8     9    1
    9     8    10    1
   10     8    11    1
   11    11    12    1
   12    11    13    1
   13    11    14    1
   14    14    15    1
   15    14    16    1
   16    14    17    1
@<TRIPOS>SUBSTRUCTURE
       1 MOL1            1 RESIDUE      1      MOL     
@<SCITEGIC>MOL_PROPERTY
VConf Rank
SciTegic.value.IntegerValue
509

@<SCITEGIC>MOL_PROPERTY
Conf_Id
SciTegic.value.IntegerValue
36

@<SCITEGIC>MOL_PROPERTY
Delta U+W
SciTegic.value.DoubleValue
0.000

@<SCITEGIC>MOL_PROPERTY
U+W
SciTegic.value.DoubleValue
-53.409

@<SCITEGIC>MOL_PROPERTY
Grad RMS
SciTegic.value.DoubleValue
0.000000

@<SCITEGIC>MOL_PROPERTY
U
SciTegic.value.DoubleValue
9.048

@<SCITEGIC>MOL_PROPERTY
W
SciTegic.value.DoubleValue
-62.457

@<SCITEGIC>MOL_PROPERTY
W(PB)
SciTegic.value.DoubleValue
-64.540

@<SCITEGIC>MOL_PROPERTY
W(SA)
SciTegic.value.DoubleValue
2.084

@<SCITEGIC>MOL_PROPERTY
Valence
SciTegic.value.DoubleValue
2.652

@<SCITEGIC>MOL_PROPERTY
Coulomb
SciTegic.value.DoubleValue
5.578

@<SCITEGIC>MOL_PROPERTY
VdW
SciTegic.value.DoubleValue
0.818

@<SCITEGIC>MOL_PROPERTY
VdW6
SciTegic.value.DoubleValue
-4.534

@<SCITEGIC>MOL_PROPERTY
VdW12
SciTegic.value.DoubleValue
5.352

@<SCITEGIC>MOL_PROPERTY
Bond
SciTegic.value.DoubleValue
0.063

@<SCITEGIC>MOL_PROPERTY
Angle
SciTegic.value.DoubleValue
2.579

@<SCITEGIC>MOL_PROPERTY
Pdih
SciTegic.value.DoubleValue
0.010

@<SCITEGIC>MOL_PROPERTY
Idih
SciTegic.value.DoubleValue
0.000

@<SCITEGIC>MOL_PROPERTY
Tether
SciTegic.value.DoubleValue
0.000

@<TRIPOS>MOLECULE
guest-s19_confgen4.mol2 : confsearch ligand conformer 510
          17          16           1
SMALL
USER_CHARGES
 
@<TRIPOS>ATOM
       1    C1      19.101651   21.289139   24.305949 C.2        1 MOL1         0.6173
       2    O1      18.505344   22.190987   23.747842 O.co2      1 MOL1        -0.6755
       3    O2      19.451222   21.349350   25.468653 O.co2      1 MOL1        -0.6755
       4    C2      19.427442   20.047433   23.553494 C.2        1 MOL1        -0.1504
       5    H1      19.961099   19.280964   24.110850 H          1 MOL1         0.0814
       6    C3      19.101246   19.844391   22.256784 C.2        1 MOL1        -0.1394
       7    H2      18.568523   20.606513   21.688320 H          1 MOL1         0.0817
       8    C4      19.437991   18.579255   21.498318 C.3        1 MOL1        -0.1849
       9    H3      18.730659   18.448758   20.668234 H          1 MOL1         0.0736
      10    H4      19.316397   17.705376   22.152808 H          1 MOL1         0.0736
      11    C5      20.878113   18.620728   20.947547 C.3        1 MOL1        -0.1866
      12    H5      20.996624   19.494348   20.291566 H          1 MOL1         0.0738
      13    H6      21.587432   18.747154   21.777271 H          1 MOL1         0.0738
      14    C6      21.226062   17.338452   20.165100 C.3        1 MOL1        -0.2879
      15    H7      20.550783   17.204528   19.309826 H          1 MOL1         0.0750
      16    H8      22.253464   17.386362   19.781331 H          1 MOL1         0.0750
      17    H9      21.145439   16.451994   20.807851 H          1 MOL1         0.0750
@<TRIPOS>BOND
    1     1     2    1
    2     1     3    2
    3     1     4    1
    4     4     5    1
    5     4     6    2
    6     6     7    1
    7     6     8    1
    8     8     9    1
    9     8    10    1
   10     8    11    1
   11    11    12    1
   12    11    13    1
   13    11    14    1
   14    14    15    1
   15    14    16    1
   16    14    17    1
@<TRIPOS>SUBSTRUCTURE
       1 MOL1            1 RESIDUE      1      MOL     
@<SCITEGIC>MOL_PROPERTY
VConf Rank
SciTegic.value.IntegerValue
510

@<SCITEGIC>MOL_PROPERTY
Conf_Id
SciTegic.value.IntegerValue
1

@<SCITEGIC>MOL_PROPERTY
Delta U+W
SciTegic.value.DoubleValue
0.030

@<SCITEGIC>MOL_PROPERTY
U+W
SciTegic.value.DoubleValue
-53.378

@<SCITEGIC>MOL_PROPERTY
Grad RMS
SciTegic.value.DoubleValue
0.000000

@<SCITEGIC>MOL_PROPERTY
U
SciTegic.value.DoubleValue
9.048

@<SCITEGIC>MOL_PROPERTY
W
SciTegic.value.DoubleValue
-62.426

@<SCITEGIC>MOL_PROPERTY
W(PB)
SciTegic.value.DoubleValue
-64.506

@<SCITEGIC>MOL_PROPERTY
W(SA)
SciTegic.value.DoubleValue
2.080

@<SCITEGIC>MOL_PROPERTY
Valence
SciTegic.value.DoubleValue
2.652

@<SCITEGIC>MOL_PROPERTY
Coulomb
SciTegic.value.DoubleValue
5.578

@<SCITEGIC>MOL_PROPERTY
VdW
SciTegic.value.DoubleValue
0.818

@<SCITEGIC>MOL_PROPERTY
VdW6
SciTegic.value.DoubleValue
-4.535

@<SCITEGIC>MOL_PROPERTY
VdW12
SciTegic.value.DoubleValue
5.352

@<SCITEGIC>MOL_PROPERTY
Bond
SciTegic.value.DoubleValue
0.063

@<SCITEGIC>MOL_PROPERTY
Angle
SciTegic.value.DoubleValue
2.579

@<SCITEGIC>MOL_PROPERTY
Pdih
SciTegic.value.DoubleValue
0.010

@<SCITEGIC>MOL_PROPERTY
Idih
SciTegic.value.DoubleValue
0.000

@<SCITEGIC>MOL_PROPERTY
Tether
SciTegic.value.DoubleValue
0.000

@<TRIPOS>MOLECULE
guest-s19_confgen4.mol2 : confsearch ligand conformer 511
          17          16           1
SMALL
USER_CHARGES
 
@<TRIPOS>ATOM
       1    C1      18.060786   18.375144   19.777214 C.2        1 MOL1         0.6173
       2    O1      16.997591   18.503448   20.354791 O.co2      1 MOL1        -0.6755
       3    O2      18.151054   18.316773   18.566323 O.co2      1 MOL1        -0.6755
       4    C2      19.319123   18.279770   20.565619 C.2        1 MOL1        -0.1504
       5    H1      20.233586   18.165339   19.988190 H          1 MOL1         0.0814
       6    C3      19.368016   18.331135   21.916158 C.2        1 MOL1        -0.1394
       7    H2      18.458238   18.448982   22.504388 H          1 MOL1         0.0817
       8    C4      20.653065   18.237285   22.711680 C.3        1 MOL1        -0.1849
       9    H3      21.307632   17.476304   22.265613 H          1 MOL1         0.0736
      10    H4      20.435703   17.894074   23.732099 H          1 MOL1         0.0736
      11    C5      21.408038   19.583477   22.769518 C.3        1 MOL1        -0.1866
      12    H5      22.376743   19.431004   23.265014 H          1 MOL1         0.0738
      13    H6      21.628051   19.928884   21.749854 H          1 MOL1         0.0738
      14    C6      20.619106   20.671904   23.528219 C.3        1 MOL1        -0.2879
      15    H7      20.398703   20.353112   24.555321 H          1 MOL1         0.0750
      16    H8      21.197956   21.603161   23.579213 H          1 MOL1         0.0750
      17    H9      19.668165   20.894004   23.026618 H          1 MOL1         0.0750
@<TRIPOS>BOND
    1     1     2    1
    2     1     3    2
    3     1     4    1
    4     4     5    1
    5     4     6    2
    6     6     7    1
    7     6     8    1
    8     8     9    1
    9     8    10    1
   10     8    11    1
   11    11    12    1
   12    11    13    1
   13    11    14    1
   14    14    15    1
   15    14    16    1
   16    14    17    1
@<TRIPOS>SUBSTRUCTURE
       1 MOL1            1 RESIDUE      1      MOL     
@<SCITEGIC>MOL_PROPERTY
VConf Rank
SciTegic.value.IntegerValue
511

@<SCITEGIC>MOL_PROPERTY
Conf_Id
SciTegic.value.IntegerValue
3

@<SCITEGIC>MOL_PROPERTY
Delta U+W
SciTegic.value.DoubleValue
0.531

@<SCITEGIC>MOL_PROPERTY
U+W
SciTegic.value.DoubleValue
-52.878

@<SCITEGIC>MOL_PROPERTY
Grad RMS
SciTegic.value.DoubleValue
0.000000

@<SCITEGIC>MOL_PROPERTY
U
SciTegic.value.DoubleValue
10.067

@<SCITEGIC>MOL_PROPERTY
W
SciTegic.value.DoubleValue
-62.945

@<SCITEGIC>MOL_PROPERTY
W(PB)
SciTegic.value.DoubleValue
-64.982

@<SCITEGIC>MOL_PROPERTY
W(SA)
SciTegic.value.DoubleValue
2.037

@<SCITEGIC>MOL_PROPERTY
Valence
SciTegic.value.DoubleValue
2.779

@<SCITEGIC>MOL_PROPERTY
Coulomb
SciTegic.value.DoubleValue
6.474

@<SCITEGIC>MOL_PROPERTY
VdW
SciTegic.value.DoubleValue
0.815

@<SCITEGIC>MOL_PROPERTY
VdW6
SciTegic.value.DoubleValue
-5.088

@<SCITEGIC>MOL_PROPERTY
VdW12
SciTegic.value.DoubleValue
5.902

@<SCITEGIC>MOL_PROPERTY
Bond
SciTegic.value.DoubleValue
0.078

@<SCITEGIC>MOL_PROPERTY
Angle
SciTegic.value.DoubleValue
2.651

@<SCITEGIC>MOL_PROPERTY
Pdih
SciTegic.value.DoubleValue
0.050

@<SCITEGIC>MOL_PROPERTY
Idih
SciTegic.value.DoubleValue
0.000

@<SCITEGIC>MOL_PROPERTY
Tether
SciTegic.value.DoubleValue
0.000

@<TRIPOS>MOLECULE
guest-s19_confgen4.mol2 : confsearch ligand conformer 512
          17          16           1
SMALL
USER_CHARGES
 
@<TRIPOS>ATOM
       1    C1      20.478023   20.074153   24.890348 C.2        1 MOL1         0.6173
       2    O1      21.286131   19.686896   25.711794 O.co2      1 MOL1        -0.6755
       3    O2      19.478544   20.699459   25.191153 O.co2      1 MOL1        -0.6755
       4    C2      20.746638   19.760173   23.460896 C.2        1 MOL1        -0.1504
       5    H1      21.656710   19.199037   23.261893 H          1 MOL1         0.0814
       6    C3      19.933975   20.126049   22.443400 C.2        1 MOL1        -0.1394
       7    H2      19.018342   20.685242   22.634287 H          1 MOL1         0.0817
       8    C4      20.208743   19.802524   20.989381 C.3        1 MOL1        -0.1849
       9    H3      21.261692   19.523167   20.847964 H          1 MOL1         0.0736
      10    H4      20.048645   20.705306   20.384928 H          1 MOL1         0.0736
      11    C5      19.296888   18.675346   20.457257 C.3        1 MOL1        -0.1866
      12    H5      18.243387   18.952843   20.600751 H          1 MOL1         0.0738
      13    H6      19.449450   18.572146   19.374080 H          1 MOL1         0.0738
      14    C6      19.574213   17.316868   21.135829 C.3        1 MOL1        -0.2879
      15    H7      19.369888   17.363263   22.213397 H          1 MOL1         0.0750
      16    H8      18.936702   16.533408   20.706135 H          1 MOL1         0.0750
      17    H9      20.620908   17.015841   20.998336 H          1 MOL1         0.0750
@<TRIPOS>BOND
    1     1     2    1
    2     1     3    2
    3     1     4    1
    4     4     5    1
    5     4     6    2
    6     6     7    1
    7     6     8    1
    8     8     9    1
    9     8    10    1
   10     8    11    1
   11    11    12    1
   12    11    13    1
   13    11    14    1
   14    14    15    1
   15    14    16    1
   16    14    17    1
@<TRIPOS>SUBSTRUCTURE
       1 MOL1            1 RESIDUE      1      MOL     
@<SCITEGIC>MOL_PROPERTY
VConf Rank
SciTegic.value.IntegerValue
512

@<SCITEGIC>MOL_PROPERTY
Conf_Id
SciTegic.value.IntegerValue
45

@<SCITEGIC>MOL_PROPERTY
Delta U+W
SciTegic.value.DoubleValue
0.562

@<SCITEGIC>MOL_PROPERTY
U+W
SciTegic.value.DoubleValue
-52.846

@<SCITEGIC>MOL_PROPERTY
Grad RMS
SciTegic.value.DoubleValue
0.000000

@<SCITEGIC>MOL_PROPERTY
U
SciTegic.value.DoubleValue
10.243

@<SCITEGIC>MOL_PROPERTY
W
SciTegic.value.DoubleValue
-63.089

@<SCITEGIC>MOL_PROPERTY
W(PB)
SciTegic.value.DoubleValue
-65.116

@<SCITEGIC>MOL_PROPERTY
W(SA)
SciTegic.value.DoubleValue
2.026

@<SCITEGIC>MOL_PROPERTY
Valence
SciTegic.value.DoubleValue
2.822

@<SCITEGIC>MOL_PROPERTY
Coulomb
SciTegic.value.DoubleValue
6.637

@<SCITEGIC>MOL_PROPERTY
VdW
SciTegic.value.DoubleValue
0.785

@<SCITEGIC>MOL_PROPERTY
VdW6
SciTegic.value.DoubleValue
-5.216

@<SCITEGIC>MOL_PROPERTY
VdW12
SciTegic.value.DoubleValue
6.001

@<SCITEGIC>MOL_PROPERTY
Bond
SciTegic.value.DoubleValue
0.080

@<SCITEGIC>MOL_PROPERTY
Angle
SciTegic.value.DoubleValue
2.678

@<SCITEGIC>MOL_PROPERTY
Pdih
SciTegic.value.DoubleValue
0.064

@<SCITEGIC>MOL_PROPERTY
Idih
SciTegic.value.DoubleValue
0.000

@<SCITEGIC>MOL_PROPERTY
Tether
SciTegic.value.DoubleValue
0.000

@<TRIPOS>MOLECULE
guest-s19_confgen4.mol2 : confsearch ligand conformer 513
          17          16           1
SMALL
USER_CHARGES
 
@<TRIPOS>ATOM
       1    C1      17.719148   20.499179   23.986760 C.2        1 MOL1         0.6173
       2    O1      17.852789   21.414896   24.774989 O.co2      1 MOL1        -0.6755
       3    O2      16.749407   19.764334   23.986059 O.co2      1 MOL1        -0.6755
       4    C2      18.801542   20.288539   22.987654 C.2        1 MOL1        -0.1504
       5    H1      19.639418   20.979792   23.042810 H          1 MOL1         0.0814
       6    C3      18.785622   19.310082   22.054137 C.2        1 MOL1        -0.1394
       7    H2      17.952217   18.610591   21.991506 H          1 MOL1         0.0817
       8    C4      19.891622   19.101351   21.042983 C.3        1 MOL1        -0.1849
       9    H3      20.271609   20.072020   20.696254 H          1 MOL1         0.0736
      10    H4      19.489460   18.589220   20.158463 H          1 MOL1         0.0736
      11    C5      21.047996   18.272177   21.638201 C.3        1 MOL1        -0.1866
      12    H5      21.454295   18.785327   22.520900 H          1 MOL1         0.0738
      13    H6      20.665858   17.301059   21.982394 H          1 MOL1         0.0738
      14    C6      22.175380   18.046900   20.610689 C.3        1 MOL1        -0.2879
      15    H7      21.802738   17.506606   19.730546 H          1 MOL1         0.0750
      16    H8      22.596258   19.003181   20.273312 H          1 MOL1         0.0750
      17    H9      22.988391   17.455783   21.051963 H          1 MOL1         0.0750
@<TRIPOS>BOND
    1     1     2    1
    2     1     3    2
    3     1     4    1
    4     4     5    1
    5     4     6    2
    6     6     7    1
    7     6     8    1
    8     8     9    1
    9     8    10    1
   10     8    11    1
   11    11    12    1
   12    11    13    1
   13    11    14    1
   14    14    15    1
   15    14    16    1
   16    14    17    1
@<TRIPOS>SUBSTRUCTURE
       1 MOL1            1 RESIDUE      1      MOL     
@<SCITEGIC>MOL_PROPERTY
VConf Rank
SciTegic.value.IntegerValue
513

@<SCITEGIC>MOL_PROPERTY
Conf_Id
SciTegic.value.IntegerValue
36

@<SCITEGIC>MOL_PROPERTY
Delta U+W
SciTegic.value.DoubleValue
0.000

@<SCITEGIC>MOL_PROPERTY
U+W
SciTegic.value.DoubleValue
-53.409

@<SCITEGIC>MOL_PROPERTY
Grad RMS
SciTegic.value.DoubleValue
0.000000

@<SCITEGIC>MOL_PROPERTY
U
SciTegic.value.DoubleValue
9.048

@<SCITEGIC>MOL_PROPERTY
W
SciTegic.value.DoubleValue
-62.457

@<SCITEGIC>MOL_PROPERTY
W(PB)
SciTegic.value.DoubleValue
-64.540

@<SCITEGIC>MOL_PROPERTY
W(SA)
SciTegic.value.DoubleValue
2.084

@<SCITEGIC>MOL_PROPERTY
Valence
SciTegic.value.DoubleValue
2.652

@<SCITEGIC>MOL_PROPERTY
Coulomb
SciTegic.value.DoubleValue
5.578

@<SCITEGIC>MOL_PROPERTY
VdW
SciTegic.value.DoubleValue
0.818

@<SCITEGIC>MOL_PROPERTY
VdW6
SciTegic.value.DoubleValue
-4.534

@<SCITEGIC>MOL_PROPERTY
VdW12
SciTegic.value.DoubleValue
5.352

@<SCITEGIC>MOL_PROPERTY
Bond
SciTegic.value.DoubleValue
0.063

@<SCITEGIC>MOL_PROPERTY
Angle
SciTegic.value.DoubleValue
2.579

@<SCITEGIC>MOL_PROPERTY
Pdih
SciTegic.value.DoubleValue
0.010

@<SCITEGIC>MOL_PROPERTY
Idih
SciTegic.value.DoubleValue
0.000

@<SCITEGIC>MOL_PROPERTY
Tether
SciTegic.value.DoubleValue
0.000

@<TRIPOS>MOLECULE
guest-s19_confgen4.mol2 : confsearch ligand conformer 514
          17          16           1
SMALL
USER_CHARGES
 
@<TRIPOS>ATOM
       1    C1      22.768498   18.932467   19.973300 C.2        1 MOL1         0.6173
       2    O1      22.797087   19.956046   19.316138 O.co2      1 MOL1        -0.6755
       3    O2      23.502675   17.988183   19.756464 O.co2      1 MOL1        -0.6755
       4    C2      21.802032   18.807888   21.097838 C.2        1 MOL1        -0.1504
       5    H1      21.828448   17.867955   21.644407 H          1 MOL1         0.0814
       6    C3      20.926970   19.776905   21.450483 C.2        1 MOL1        -0.1394
       7    H2      20.890514   20.721628   20.908319 H          1 MOL1         0.0817
       8    C4      19.946007   19.641440   22.594423 C.3        1 MOL1        -0.1849
       9    H3      19.676778   20.638568   22.968105 H          1 MOL1         0.0736
      10    H4      20.417502   19.110416   23.432583 H          1 MOL1         0.0736
      11    C5      18.670728   18.893111   22.155462 C.3        1 MOL1        -0.1866
      12    H5      18.199804   19.427290   21.318533 H          1 MOL1         0.0738
      13    H6      18.937937   17.893618   21.785094 H          1 MOL1         0.0738
      14    C6      17.661639   18.758991   23.313596 C.3        1 MOL1        -0.2879
      15    H7      17.353074   19.746052   23.682280 H          1 MOL1         0.0750
      16    H8      16.761738   18.224491   22.982513 H          1 MOL1         0.0750
      17    H9      18.098061   18.200684   24.152205 H          1 MOL1         0.0750
@<TRIPOS>BOND
    1     1     2    1
    2     1     3    2
    3     1     4    1
    4     4     5    1
    5     4     6    2
    6     6     7    1
    7     6     8    1
    8     8     9    1
    9     8    10    1
   10     8    11    1
   11    11    12    1
   12    11    13    1
   13    11    14    1
   14    14    15    1
   15    14    16    1
   16    14    17    1
@<TRIPOS>SUBSTRUCTURE
       1 MOL1            1 RESIDUE      1      MOL     
@<SCITEGIC>MOL_PROPERTY
VConf Rank
SciTegic.value.IntegerValue
514

@<SCITEGIC>MOL_PROPERTY
Conf_Id
SciTegic.value.IntegerValue
1

@<SCITEGIC>MOL_PROPERTY
Delta U+W
SciTegic.value.DoubleValue
0.030

@<SCITEGIC>MOL_PROPERTY
U+W
SciTegic.value.DoubleValue
-53.378

@<SCITEGIC>MOL_PROPERTY
Grad RMS
SciTegic.value.DoubleValue
0.000000

@<SCITEGIC>MOL_PROPERTY
U
SciTegic.value.DoubleValue
9.048

@<SCITEGIC>MOL_PROPERTY
W
SciTegic.value.DoubleValue
-62.426

@<SCITEGIC>MOL_PROPERTY
W(PB)
SciTegic.value.DoubleValue
-64.506

@<SCITEGIC>MOL_PROPERTY
W(SA)
SciTegic.value.DoubleValue
2.080

@<SCITEGIC>MOL_PROPERTY
Valence
SciTegic.value.DoubleValue
2.652

@<SCITEGIC>MOL_PROPERTY
Coulomb
SciTegic.value.DoubleValue
5.578

@<SCITEGIC>MOL_PROPERTY
VdW
SciTegic.value.DoubleValue
0.818

@<SCITEGIC>MOL_PROPERTY
VdW6
SciTegic.value.DoubleValue
-4.535

@<SCITEGIC>MOL_PROPERTY
VdW12
SciTegic.value.DoubleValue
5.352

@<SCITEGIC>MOL_PROPERTY
Bond
SciTegic.value.DoubleValue
0.063

@<SCITEGIC>MOL_PROPERTY
Angle
SciTegic.value.DoubleValue
2.579

@<SCITEGIC>MOL_PROPERTY
Pdih
SciTegic.value.DoubleValue
0.010

@<SCITEGIC>MOL_PROPERTY
Idih
SciTegic.value.DoubleValue
0.000

@<SCITEGIC>MOL_PROPERTY
Tether
SciTegic.value.DoubleValue
0.000

@<TRIPOS>MOLECULE
guest-s19_confgen4.mol2 : confsearch ligand conformer 515
          17          16           1
SMALL
USER_CHARGES
 
@<TRIPOS>ATOM
       1    C1      18.134533   19.582520   24.440625 C.2        1 MOL1         0.6173
       2    O1      17.090470   19.801831   23.855580 O.co2      1 MOL1        -0.6755
       3    O2      18.184381   19.326444   25.627954 O.co2      1 MOL1        -0.6755
       4    C2      19.420056   19.627292   23.692616 C.2        1 MOL1        -0.1504
       5    H1      20.315514   19.422920   24.274980 H          1 MOL1         0.0814
       6    C3      19.513870   19.897710   22.370852 C.2        1 MOL1        -0.1394
       7    H2      18.622824   20.100575   21.777151 H          1 MOL1         0.0817
       8    C4      20.825633   19.937716   21.615412 C.3        1 MOL1        -0.1849
       9    H3      21.590577   20.429520   22.231460 H          1 MOL1         0.0736
      10    H4      20.717298   20.553530   20.712456 H          1 MOL1         0.0736
      11    C5      21.320926   18.528397   21.222896 C.3        1 MOL1        -0.1866
      12    H5      22.320587   18.610963   20.774549 H          1 MOL1         0.0738
      13    H6      21.431491   17.910176   22.124564 H          1 MOL1         0.0738
      14    C6      20.376407   17.826504   20.223925 C.3        1 MOL1        -0.2879
      15    H7      20.260852   18.421287   19.308488 H          1 MOL1         0.0750
      16    H8      20.775047   16.843559   19.941413 H          1 MOL1         0.0750
      17    H9      19.381091   17.672855   20.660912 H          1 MOL1         0.0750
@<TRIPOS>BOND
    1     1     2    1
    2     1     3    2
    3     1     4    1
    4     4     5    1
    5     4     6    2
    6     6     7    1
    7     6     8    1
    8     8     9    1
    9     8    10    1
   10     8    11    1
   11    11    12    1
   12    11    13    1
   13    11    14    1
   14    14    15    1
   15    14    16    1
   16    14    17    1
@<TRIPOS>SUBSTRUCTURE
       1 MOL1            1 RESIDUE      1      MOL     
@<SCITEGIC>MOL_PROPERTY
VConf Rank
SciTegic.value.IntegerValue
515

@<SCITEGIC>MOL_PROPERTY
Conf_Id
SciTegic.value.IntegerValue
3

@<SCITEGIC>MOL_PROPERTY
Delta U+W
SciTegic.value.DoubleValue
0.531

@<SCITEGIC>MOL_PROPERTY
U+W
SciTegic.value.DoubleValue
-52.878

@<SCITEGIC>MOL_PROPERTY
Grad RMS
SciTegic.value.DoubleValue
0.000000

@<SCITEGIC>MOL_PROPERTY
U
SciTegic.value.DoubleValue
10.067

@<SCITEGIC>MOL_PROPERTY
W
SciTegic.value.DoubleValue
-62.945

@<SCITEGIC>MOL_PROPERTY
W(PB)
SciTegic.value.DoubleValue
-64.982

@<SCITEGIC>MOL_PROPERTY
W(SA)
SciTegic.value.DoubleValue
2.037

@<SCITEGIC>MOL_PROPERTY
Valence
SciTegic.value.DoubleValue
2.779

@<SCITEGIC>MOL_PROPERTY
Coulomb
SciTegic.value.DoubleValue
6.474

@<SCITEGIC>MOL_PROPERTY
VdW
SciTegic.value.DoubleValue
0.815

@<SCITEGIC>MOL_PROPERTY
VdW6
SciTegic.value.DoubleValue
-5.088

@<SCITEGIC>MOL_PROPERTY
VdW12
SciTegic.value.DoubleValue
5.902

@<SCITEGIC>MOL_PROPERTY
Bond
SciTegic.value.DoubleValue
0.078

@<SCITEGIC>MOL_PROPERTY
Angle
SciTegic.value.DoubleValue
2.651

@<SCITEGIC>MOL_PROPERTY
Pdih
SciTegic.value.DoubleValue
0.050

@<SCITEGIC>MOL_PROPERTY
Idih
SciTegic.value.DoubleValue
0.000

@<SCITEGIC>MOL_PROPERTY
Tether
SciTegic.value.DoubleValue
0.000

@<TRIPOS>MOLECULE
guest-s19_confgen4.mol2 : confsearch ligand conformer 516
          17          16           1
SMALL
USER_CHARGES
 
@<TRIPOS>ATOM
       1    C1      17.790076   17.125763   22.739874 C.2        1 MOL1         0.6173
       2    O1      16.588364   17.219246   22.581988 O.co2      1 MOL1        -0.6755
       3    O2      18.293942   16.348830   23.529141 O.co2      1 MOL1        -0.6755
       4    C2      18.661979   18.008261   21.918256 C.2        1 MOL1        -0.1504
       5    H1      18.147282   18.678162   21.233402 H          1 MOL1         0.0814
       6    C3      20.012617   18.012475   21.991349 C.2        1 MOL1        -0.1394
       7    H2      20.536166   17.347120   22.677437 H          1 MOL1         0.0817
       8    C4      20.897447   18.914055   21.155546 C.3        1 MOL1        -0.1849
       9    H3      20.339876   19.316162   20.298712 H          1 MOL1         0.0736
      10    H4      21.718391   18.319155   20.733463 H          1 MOL1         0.0736
      11    C5      21.493454   20.076970   21.978692 C.3        1 MOL1        -0.1866
      12    H5      22.049179   19.675681   22.837526 H          1 MOL1         0.0738
      13    H6      22.221550   20.618424   21.359093 H          1 MOL1         0.0738
      14    C6      20.417600   21.067885   22.472104 C.3        1 MOL1        -0.2879
      15    H7      19.706272   20.576037   23.148235 H          1 MOL1         0.0750
      16    H8      20.880498   21.899850   23.018388 H          1 MOL1         0.0750
      17    H9      19.854186   21.487646   21.628624 H          1 MOL1         0.0750
@<TRIPOS>BOND
    1     1     2    1
    2     1     3    2
    3     1     4    1
    4     4     5    1
    5     4     6    2
    6     6     7    1
    7     6     8    1
    8     8     9    1
    9     8    10    1
   10     8    11    1
   11    11    12    1
   12    11    13    1
   13    11    14    1
   14    14    15    1
   15    14    16    1
   16    14    17    1
@<TRIPOS>SUBSTRUCTURE
       1 MOL1            1 RESIDUE      1      MOL     
@<SCITEGIC>MOL_PROPERTY
VConf Rank
SciTegic.value.IntegerValue
516

@<SCITEGIC>MOL_PROPERTY
Conf_Id
SciTegic.value.IntegerValue
45

@<SCITEGIC>MOL_PROPERTY
Delta U+W
SciTegic.value.DoubleValue
0.562

@<SCITEGIC>MOL_PROPERTY
U+W
SciTegic.value.DoubleValue
-52.846

@<SCITEGIC>MOL_PROPERTY
Grad RMS
SciTegic.value.DoubleValue
0.000000

@<SCITEGIC>MOL_PROPERTY
U
SciTegic.value.DoubleValue
10.243

@<SCITEGIC>MOL_PROPERTY
W
SciTegic.value.DoubleValue
-63.089

@<SCITEGIC>MOL_PROPERTY
W(PB)
SciTegic.value.DoubleValue
-65.116

@<SCITEGIC>MOL_PROPERTY
W(SA)
SciTegic.value.DoubleValue
2.026

@<SCITEGIC>MOL_PROPERTY
Valence
SciTegic.value.DoubleValue
2.822

@<SCITEGIC>MOL_PROPERTY
Coulomb
SciTegic.value.DoubleValue
6.637

@<SCITEGIC>MOL_PROPERTY
VdW
SciTegic.value.DoubleValue
0.785

@<SCITEGIC>MOL_PROPERTY
VdW6
SciTegic.value.DoubleValue
-5.216

@<SCITEGIC>MOL_PROPERTY
VdW12
SciTegic.value.DoubleValue
6.001

@<SCITEGIC>MOL_PROPERTY
Bond
SciTegic.value.DoubleValue
0.080

@<SCITEGIC>MOL_PROPERTY
Angle
SciTegic.value.DoubleValue
2.678

@<SCITEGIC>MOL_PROPERTY
Pdih
SciTegic.value.DoubleValue
0.064

@<SCITEGIC>MOL_PROPERTY
Idih
SciTegic.value.DoubleValue
0.000

@<SCITEGIC>MOL_PROPERTY
Tether
SciTegic.value.DoubleValue
0.000

@<TRIPOS>MOLECULE
guest-s19_confgen4.mol2 : confsearch ligand conformer 517
          17          16           1
SMALL
USER_CHARGES
 
@<TRIPOS>ATOM
       1    C1      23.341341   19.312115   22.273896 C.2        1 MOL1         0.6173
       2    O1      24.064647   18.738643   23.064885 O.co2      1 MOL1        -0.6755
       3    O2      23.713867   20.255637   21.602043 O.co2      1 MOL1        -0.6755
       4    C2      21.943861   18.819428   22.137996 C.2        1 MOL1        -0.1504
       5    H1      21.675590   17.973549   22.766825 H          1 MOL1         0.0814
       6    C3      21.031669   19.361678   21.299570 C.2        1 MOL1        -0.1394
       7    H2      21.289107   20.210867   20.666817 H          1 MOL1         0.0817
       8    C4      19.611672   18.855921   21.168978 C.3        1 MOL1        -0.1849
       9    H3      19.596491   17.759181   21.230128 H          1 MOL1         0.0736
      10    H4      19.217148   19.119106   20.178285 H          1 MOL1         0.0736
      11    C5      18.700533   19.450867   22.262084 C.3        1 MOL1        -0.1866
      12    H5      19.091569   19.184888   23.254004 H          1 MOL1         0.0738
      13    H6      18.715770   20.547760   22.197583 H          1 MOL1         0.0738
      14    C6      17.249054   18.947538   22.130195 C.3        1 MOL1        -0.2879
      15    H7      16.822533   19.228292   21.158244 H          1 MOL1         0.0750
      16    H8      17.202402   17.854485   22.222370 H          1 MOL1         0.0750
      17    H9      16.616497   19.381081   22.915716 H          1 MOL1         0.0750
@<TRIPOS>BOND
    1     1     2    1
    2     1     3    2
    3     1     4    1
    4     4     5    1
    5     4     6    2
    6     6     7    1
    7     6     8    1
    8     8     9    1
    9     8    10    1
   10     8    11    1
   11    11    12    1
   12    11    13    1
   13    11    14    1
   14    14    15    1
   15    14    16    1
   16    14    17    1
@<TRIPOS>SUBSTRUCTURE
       1 MOL1            1 RESIDUE      1      MOL     
@<SCITEGIC>MOL_PROPERTY
VConf Rank
SciTegic.value.IntegerValue
517

@<SCITEGIC>MOL_PROPERTY
Conf_Id
SciTegic.value.IntegerValue
36

@<SCITEGIC>MOL_PROPERTY
Delta U+W
SciTegic.value.DoubleValue
0.000

@<SCITEGIC>MOL_PROPERTY
U+W
SciTegic.value.DoubleValue
-53.409

@<SCITEGIC>MOL_PROPERTY
Grad RMS
SciTegic.value.DoubleValue
0.000000

@<SCITEGIC>MOL_PROPERTY
U
SciTegic.value.DoubleValue
9.048

@<SCITEGIC>MOL_PROPERTY
W
SciTegic.value.DoubleValue
-62.457

@<SCITEGIC>MOL_PROPERTY
W(PB)
SciTegic.value.DoubleValue
-64.540

@<SCITEGIC>MOL_PROPERTY
W(SA)
SciTegic.value.DoubleValue
2.084

@<SCITEGIC>MOL_PROPERTY
Valence
SciTegic.value.DoubleValue
2.652

@<SCITEGIC>MOL_PROPERTY
Coulomb
SciTegic.value.DoubleValue
5.578

@<SCITEGIC>MOL_PROPERTY
VdW
SciTegic.value.DoubleValue
0.818

@<SCITEGIC>MOL_PROPERTY
VdW6
SciTegic.value.DoubleValue
-4.534

@<SCITEGIC>MOL_PROPERTY
VdW12
SciTegic.value.DoubleValue
5.352

@<SCITEGIC>MOL_PROPERTY
Bond
SciTegic.value.DoubleValue
0.063

@<SCITEGIC>MOL_PROPERTY
Angle
SciTegic.value.DoubleValue
2.579

@<SCITEGIC>MOL_PROPERTY
Pdih
SciTegic.value.DoubleValue
0.010

@<SCITEGIC>MOL_PROPERTY
Idih
SciTegic.value.DoubleValue
0.000

@<SCITEGIC>MOL_PROPERTY
Tether
SciTegic.value.DoubleValue
0.000

@<TRIPOS>MOLECULE
guest-s19_confgen4.mol2 : confsearch ligand conformer 518
          17          16           1
SMALL
USER_CHARGES
 
@<TRIPOS>ATOM
       1    C1      17.750957   16.592130   21.908956 C.2        1 MOL1         0.6173
       2    O1      17.450970   16.385915   23.069936 O.co2      1 MOL1        -0.6755
       3    O2      17.423154   15.852988   21.001256 O.co2      1 MOL1        -0.6755
       4    C2      18.552634   17.796105   21.559785 C.2        1 MOL1        -0.1504
       5    H1      18.786227   17.921206   20.504943 H          1 MOL1         0.0814
       6    C3      18.985915   18.701909   22.465806 C.2        1 MOL1        -0.1394
       7    H2      18.759443   18.585138   23.525451 H          1 MOL1         0.0817
       8    C4      19.802430   19.922802   22.102537 C.3        1 MOL1        -0.1849
       9    H3      19.660175   20.700588   22.864902 H          1 MOL1         0.0736
      10    H4      19.444108   20.345643   21.154056 H          1 MOL1         0.0736
      11    C5      21.302195   19.581737   21.986785 C.3        1 MOL1        -0.1866
      12    H5      21.658739   19.161030   22.937285 H          1 MOL1         0.0738
      13    H6      21.446736   18.806531   21.221459 H          1 MOL1         0.0738
      14    C6      22.142622   20.823060   21.625783 C.3        1 MOL1        -0.2879
      15    H7      22.041049   21.602825   22.391995 H          1 MOL1         0.0750
      16    H8      23.205823   20.560994   21.547960 H          1 MOL1         0.0750
      17    H9      21.826314   21.245131   20.662849 H          1 MOL1         0.0750
@<TRIPOS>BOND
    1     1     2    1
    2     1     3    2
    3     1     4    1
    4     4     5    1
    5     4     6    2
    6     6     7    1
    7     6     8    1
    8     8     9    1
    9     8    10    1
   10     8    11    1
   11    11    12    1
   12    11    13    1
   13    11    14    1
   14    14    15    1
   15    14    16    1
   16    14    17    1
@<TRIPOS>SUBSTRUCTURE
       1 MOL1            1 RESIDUE      1      MOL     
@<SCITEGIC>MOL_PROPERTY
VConf Rank
SciTegic.value.IntegerValue
518

@<SCITEGIC>MOL_PROPERTY
Conf_Id
SciTegic.value.IntegerValue
1

@<SCITEGIC>MOL_PROPERTY
Delta U+W
SciTegic.value.DoubleValue
0.030

@<SCITEGIC>MOL_PROPERTY
U+W
SciTegic.value.DoubleValue
-53.378

@<SCITEGIC>MOL_PROPERTY
Grad RMS
SciTegic.value.DoubleValue
0.000000

@<SCITEGIC>MOL_PROPERTY
U
SciTegic.value.DoubleValue
9.048

@<SCITEGIC>MOL_PROPERTY
W
SciTegic.value.DoubleValue
-62.426

@<SCITEGIC>MOL_PROPERTY
W(PB)
SciTegic.value.DoubleValue
-64.506

@<SCITEGIC>MOL_PROPERTY
W(SA)
SciTegic.value.DoubleValue
2.080

@<SCITEGIC>MOL_PROPERTY
Valence
SciTegic.value.DoubleValue
2.652

@<SCITEGIC>MOL_PROPERTY
Coulomb
SciTegic.value.DoubleValue
5.578

@<SCITEGIC>MOL_PROPERTY
VdW
SciTegic.value.DoubleValue
0.818

@<SCITEGIC>MOL_PROPERTY
VdW6
SciTegic.value.DoubleValue
-4.535

@<SCITEGIC>MOL_PROPERTY
VdW12
SciTegic.value.DoubleValue
5.352

@<SCITEGIC>MOL_PROPERTY
Bond
SciTegic.value.DoubleValue
0.063

@<SCITEGIC>MOL_PROPERTY
Angle
SciTegic.value.DoubleValue
2.579

@<SCITEGIC>MOL_PROPERTY
Pdih
SciTegic.value.DoubleValue
0.010

@<SCITEGIC>MOL_PROPERTY
Idih
SciTegic.value.DoubleValue
0.000

@<SCITEGIC>MOL_PROPERTY
Tether
SciTegic.value.DoubleValue
0.000

@<TRIPOS>MOLECULE
guest-s19_confgen4.mol2 : confsearch ligand conformer 519
          17          16           1
SMALL
USER_CHARGES
 
@<TRIPOS>ATOM
       1    C1      20.559007   17.495957   19.467375 C.2        1 MOL1         0.6173
       2    O1      20.510098   18.390729   18.644312 O.co2      1 MOL1        -0.6755
       3    O2      21.035896   16.403845   19.227211 O.co2      1 MOL1        -0.6755
       4    C2      20.014689   17.722897   20.833504 C.2        1 MOL1        -0.1504
       5    H1      20.088874   16.882453   21.519734 H          1 MOL1         0.0814
       6    C3      19.457506   18.886538   21.239056 C.2        1 MOL1        -0.1394
       7    H2      19.381170   19.736067   20.560770 H          1 MOL1         0.0817
       8    C4      18.909064   19.111438   22.632485 C.3        1 MOL1        -0.1849
       9    H3      18.370879   18.213778   22.965787 H          1 MOL1         0.0736
      10    H4      18.169444   19.923208   22.615584 H          1 MOL1         0.0736
      11    C5      20.018546   19.444964   23.653941 C.3        1 MOL1        -0.1866
      12    H5      19.578398   19.492806   24.659492 H          1 MOL1         0.0738
      13    H6      20.759559   18.633838   23.674014 H          1 MOL1         0.0738
      14    C6      20.721959   20.784238   23.346912 C.3        1 MOL1        -0.2879
      15    H7      20.001426   21.612379   23.334247 H          1 MOL1         0.0750
      16    H8      21.479665   21.005854   24.109588 H          1 MOL1         0.0750
      17    H9      21.225379   20.752810   22.371821 H          1 MOL1         0.0750
@<TRIPOS>BOND
    1     1     2    1
    2     1     3    2
    3     1     4    1
    4     4     5    1
    5     4     6    2
    6     6     7    1
    7     6     8    1
    8     8     9    1
    9     8    10    1
   10     8    11    1
   11    11    12    1
   12    11    13    1
   13    11    14    1
   14    14    15    1
   15    14    16    1
   16    14    17    1
@<TRIPOS>SUBSTRUCTURE
       1 MOL1            1 RESIDUE      1      MOL     
@<SCITEGIC>MOL_PROPERTY
VConf Rank
SciTegic.value.IntegerValue
519

@<SCITEGIC>MOL_PROPERTY
Conf_Id
SciTegic.value.IntegerValue
3

@<SCITEGIC>MOL_PROPERTY
Delta U+W
SciTegic.value.DoubleValue
0.531

@<SCITEGIC>MOL_PROPERTY
U+W
SciTegic.value.DoubleValue
-52.878

@<SCITEGIC>MOL_PROPERTY
Grad RMS
SciTegic.value.DoubleValue
0.000000

@<SCITEGIC>MOL_PROPERTY
U
SciTegic.value.DoubleValue
10.067

@<SCITEGIC>MOL_PROPERTY
W
SciTegic.value.DoubleValue
-62.945

@<SCITEGIC>MOL_PROPERTY
W(PB)
SciTegic.value.DoubleValue
-64.982

@<SCITEGIC>MOL_PROPERTY
W(SA)
SciTegic.value.DoubleValue
2.037

@<SCITEGIC>MOL_PROPERTY
Valence
SciTegic.value.DoubleValue
2.779

@<SCITEGIC>MOL_PROPERTY
Coulomb
SciTegic.value.DoubleValue
6.474

@<SCITEGIC>MOL_PROPERTY
VdW
SciTegic.value.DoubleValue
0.815

@<SCITEGIC>MOL_PROPERTY
VdW6
SciTegic.value.DoubleValue
-5.088

@<SCITEGIC>MOL_PROPERTY
VdW12
SciTegic.value.DoubleValue
5.902

@<SCITEGIC>MOL_PROPERTY
Bond
SciTegic.value.DoubleValue
0.078

@<SCITEGIC>MOL_PROPERTY
Angle
SciTegic.value.DoubleValue
2.651

@<SCITEGIC>MOL_PROPERTY
Pdih
SciTegic.value.DoubleValue
0.050

@<SCITEGIC>MOL_PROPERTY
Idih
SciTegic.value.DoubleValue
0.000

@<SCITEGIC>MOL_PROPERTY
Tether
SciTegic.value.DoubleValue
0.000

@<TRIPOS>MOLECULE
guest-s19_confgen4.mol2 : confsearch ligand conformer 520
          17          16           1
SMALL
USER_CHARGES
 
@<TRIPOS>ATOM
       1    C1      20.758230   16.679731   23.705253 C.2        1 MOL1         0.6173
       2    O1      21.521843   15.774692   23.430335 O.co2      1 MOL1        -0.6755
       3    O2      19.895253   16.579806   24.557152 O.co2      1 MOL1        -0.6755
       4    C2      20.907403   17.956485   22.955772 C.2        1 MOL1        -0.1504
       5    H1      21.697803   17.978096   22.209108 H          1 MOL1         0.0814
       6    C3      20.127249   19.043216   23.155670 C.2        1 MOL1        -0.1394
       7    H2      19.330695   19.028868   23.899185 H          1 MOL1         0.0817
       8    C4      20.279783   20.340706   22.389128 C.3        1 MOL1        -0.1849
       9    H3      21.261812   20.386809   21.898993 H          1 MOL1         0.0736
      10    H4      20.252001   21.180253   23.096516 H          1 MOL1         0.0736
      11    C5      19.165421   20.534757   21.337601 C.3        1 MOL1        -0.1866
      12    H5      18.182616   20.486136   21.826671 H          1 MOL1         0.0738
      13    H6      19.251504   21.541344   20.905663 H          1 MOL1         0.0738
      14    C6      19.233193   19.492374   20.201082 C.3        1 MOL1        -0.2879
      15    H7      19.086140   18.475302   20.587080 H          1 MOL1         0.0750
      16    H8      18.452431   19.684596   19.453869 H          1 MOL1         0.0750
      17    H9      20.205502   19.528550   19.692751 H          1 MOL1         0.0750
@<TRIPOS>BOND
    1     1     2    1
    2     1     3    2
    3     1     4    1
    4     4     5    1
    5     4     6    2
    6     6     7    1
    7     6     8    1
    8     8     9    1
    9     8    10    1
   10     8    11    1
   11    11    12    1
   12    11    13    1
   13    11    14    1
   14    14    15    1
   15    14    16    1
   16    14    17    1
@<TRIPOS>SUBSTRUCTURE
       1 MOL1            1 RESIDUE      1      MOL     
@<SCITEGIC>MOL_PROPERTY
VConf Rank
SciTegic.value.IntegerValue
520

@<SCITEGIC>MOL_PROPERTY
Conf_Id
SciTegic.value.IntegerValue
45

@<SCITEGIC>MOL_PROPERTY
Delta U+W
SciTegic.value.DoubleValue
0.562

@<SCITEGIC>MOL_PROPERTY
U+W
SciTegic.value.DoubleValue
-52.846

@<SCITEGIC>MOL_PROPERTY
Grad RMS
SciTegic.value.DoubleValue
0.000000

@<SCITEGIC>MOL_PROPERTY
U
SciTegic.value.DoubleValue
10.243

@<SCITEGIC>MOL_PROPERTY
W
SciTegic.value.DoubleValue
-63.089

@<SCITEGIC>MOL_PROPERTY
W(PB)
SciTegic.value.DoubleValue
-65.116

@<SCITEGIC>MOL_PROPERTY
W(SA)
SciTegic.value.DoubleValue
2.026

@<SCITEGIC>MOL_PROPERTY
Valence
SciTegic.value.DoubleValue
2.822

@<SCITEGIC>MOL_PROPERTY
Coulomb
SciTegic.value.DoubleValue
6.637

@<SCITEGIC>MOL_PROPERTY
VdW
SciTegic.value.DoubleValue
0.785

@<SCITEGIC>MOL_PROPERTY
VdW6
SciTegic.value.DoubleValue
-5.216

@<SCITEGIC>MOL_PROPERTY
VdW12
SciTegic.value.DoubleValue
6.001

@<SCITEGIC>MOL_PROPERTY
Bond
SciTegic.value.DoubleValue
0.080

@<SCITEGIC>MOL_PROPERTY
Angle
SciTegic.value.DoubleValue
2.678

@<SCITEGIC>MOL_PROPERTY
Pdih
SciTegic.value.DoubleValue
0.064

@<SCITEGIC>MOL_PROPERTY
Idih
SciTegic.value.DoubleValue
0.000

@<SCITEGIC>MOL_PROPERTY
Tether
SciTegic.value.DoubleValue
0.000

@<TRIPOS>MOLECULE
guest-s19_confgen4.mol2 : confsearch ligand conformer 521
          17          16           1
SMALL
USER_CHARGES
 
@<TRIPOS>ATOM
       1    C1      17.360287   21.226126   21.936415 C.2        1 MOL1         0.6173
       2    O1      16.712483   21.658264   21.002975 O.co2      1 MOL1        -0.6755
       3    O2      17.286627   21.685661   23.060602 O.co2      1 MOL1        -0.6755
       4    C2      18.275405   20.083928   21.667896 C.2        1 MOL1        -0.1504
       5    H1      18.293539   19.721185   20.642714 H          1 MOL1         0.0814
       6    C3      19.054816   19.505104   22.609473 C.2        1 MOL1        -0.1394
       7    H2      19.046219   19.862137   23.639146 H          1 MOL1         0.0817
       8    C4      19.984460   18.345135   22.327567 C.3        1 MOL1        -0.1849
       9    H3      19.513794   17.650317   21.618687 H          1 MOL1         0.0736
      10    H4      20.156730   17.778630   23.252652 H          1 MOL1         0.0736
      11    C5      21.334183   18.831553   21.761300 C.3        1 MOL1        -0.1866
      12    H5      21.163925   19.395018   20.833356 H          1 MOL1         0.0738
      13    H6      21.803922   19.524715   22.472946 H          1 MOL1         0.0738
      14    C6      22.291118   17.655666   21.480069 C.3        1 MOL1        -0.2879
      15    H7      22.503706   17.093586   22.398928 H          1 MOL1         0.0750
      16    H8      21.857467   16.962999   20.746860 H          1 MOL1         0.0750
      17    H9      23.245069   18.021013   21.078034 H          1 MOL1         0.0750
@<TRIPOS>BOND
    1     1     2    1
    2     1     3    2
    3     1     4    1
    4     4     5    1
    5     4     6    2
    6     6     7    1
    7     6     8    1
    8     8     9    1
    9     8    10    1
   10     8    11    1
   11    11    12    1
   12    11    13    1
   13    11    14    1
   14    14    15    1
   15    14    16    1
   16    14    17    1
@<TRIPOS>SUBSTRUCTURE
       1 MOL1            1 RESIDUE      1      MOL     
@<SCITEGIC>MOL_PROPERTY
VConf Rank
SciTegic.value.IntegerValue
521

@<SCITEGIC>MOL_PROPERTY
Conf_Id
SciTegic.value.IntegerValue
36

@<SCITEGIC>MOL_PROPERTY
Delta U+W
SciTegic.value.DoubleValue
0.000

@<SCITEGIC>MOL_PROPERTY
U+W
SciTegic.value.DoubleValue
-53.409

@<SCITEGIC>MOL_PROPERTY
Grad RMS
SciTegic.value.DoubleValue
0.000000

@<SCITEGIC>MOL_PROPERTY
U
SciTegic.value.DoubleValue
9.048

@<SCITEGIC>MOL_PROPERTY
W
SciTegic.value.DoubleValue
-62.457

@<SCITEGIC>MOL_PROPERTY
W(PB)
SciTegic.value.DoubleValue
-64.540

@<SCITEGIC>MOL_PROPERTY
W(SA)
SciTegic.value.DoubleValue
2.084

@<SCITEGIC>MOL_PROPERTY
Valence
SciTegic.value.DoubleValue
2.652

@<SCITEGIC>MOL_PROPERTY
Coulomb
SciTegic.value.DoubleValue
5.578

@<SCITEGIC>MOL_PROPERTY
VdW
SciTegic.value.DoubleValue
0.818

@<SCITEGIC>MOL_PROPERTY
VdW6
SciTegic.value.DoubleValue
-4.534

@<SCITEGIC>MOL_PROPERTY
VdW12
SciTegic.value.DoubleValue
5.352

@<SCITEGIC>MOL_PROPERTY
Bond
SciTegic.value.DoubleValue
0.063

@<SCITEGIC>MOL_PROPERTY
Angle
SciTegic.value.DoubleValue
2.579

@<SCITEGIC>MOL_PROPERTY
Pdih
SciTegic.value.DoubleValue
0.010

@<SCITEGIC>MOL_PROPERTY
Idih
SciTegic.value.DoubleValue
0.000

@<SCITEGIC>MOL_PROPERTY
Tether
SciTegic.value.DoubleValue
0.000

@<TRIPOS>MOLECULE
guest-s19_confgen4.mol2 : confsearch ligand conformer 522
          17          16           1
SMALL
USER_CHARGES
 
@<TRIPOS>ATOM
       1    C1      21.794415   20.328425   19.328603 C.2        1 MOL1         0.6173
       2    O1      21.816301   19.465373   18.471248 O.co2      1 MOL1        -0.6755
       3    O2      22.486930   21.326232   19.278519 O.co2      1 MOL1        -0.6755
       4    C2      20.887316   20.179119   20.498664 C.2        1 MOL1        -0.1504
       5    H1      20.916480   20.985647   21.227753 H          1 MOL1         0.0814
       6    C3      20.063961   19.122329   20.684049 C.2        1 MOL1        -0.1394
       7    H2      20.028367   18.307685   19.960957 H          1 MOL1         0.0817
       8    C4      19.145836   18.977288   21.877887 C.3        1 MOL1        -0.1849
       9    H3      18.299733   18.328351   21.614489 H          1 MOL1         0.0736
      10    H4      18.719415   19.953943   22.144563 H          1 MOL1         0.0736
      11    C5      19.891504   18.385933   23.091681 C.3        1 MOL1        -0.1866
      12    H5      20.315229   17.408223   22.823156 H          1 MOL1         0.0738
      13    H6      20.735997   19.036222   23.359108 H          1 MOL1         0.0738
      14    C6      18.960137   18.226266   24.310117 C.3        1 MOL1        -0.2879
      15    H7      18.122930   17.554468   24.079460 H          1 MOL1         0.0750
      16    H8      19.507849   17.804580   25.162948 H          1 MOL1         0.0750
      17    H9      18.547091   19.195649   24.618541 H          1 MOL1         0.0750
@<TRIPOS>BOND
    1     1     2    1
    2     1     3    2
    3     1     4    1
    4     4     5    1
    5     4     6    2
    6     6     7    1
    7     6     8    1
    8     8     9    1
    9     8    10    1
   10     8    11    1
   11    11    12    1
   12    11    13    1
   13    11    14    1
   14    14    15    1
   15    14    16    1
   16    14    17    1
@<TRIPOS>SUBSTRUCTURE
       1 MOL1            1 RESIDUE      1      MOL     
@<SCITEGIC>MOL_PROPERTY
VConf Rank
SciTegic.value.IntegerValue
522

@<SCITEGIC>MOL_PROPERTY
Conf_Id
SciTegic.value.IntegerValue
1

@<SCITEGIC>MOL_PROPERTY
Delta U+W
SciTegic.value.DoubleValue
0.030

@<SCITEGIC>MOL_PROPERTY
U+W
SciTegic.value.DoubleValue
-53.378

@<SCITEGIC>MOL_PROPERTY
Grad RMS
SciTegic.value.DoubleValue
0.000000

@<SCITEGIC>MOL_PROPERTY
U
SciTegic.value.DoubleValue
9.048

@<SCITEGIC>MOL_PROPERTY
W
SciTegic.value.DoubleValue
-62.426

@<SCITEGIC>MOL_PROPERTY
W(PB)
SciTegic.value.DoubleValue
-64.506

@<SCITEGIC>MOL_PROPERTY
W(SA)
SciTegic.value.DoubleValue
2.080

@<SCITEGIC>MOL_PROPERTY
Valence
SciTegic.value.DoubleValue
2.652

@<SCITEGIC>MOL_PROPERTY
Coulomb
SciTegic.value.DoubleValue
5.578

@<SCITEGIC>MOL_PROPERTY
VdW
SciTegic.value.DoubleValue
0.818

@<SCITEGIC>MOL_PROPERTY
VdW6
SciTegic.value.DoubleValue
-4.535

@<SCITEGIC>MOL_PROPERTY
VdW12
SciTegic.value.DoubleValue
5.352

@<SCITEGIC>MOL_PROPERTY
Bond
SciTegic.value.DoubleValue
0.063

@<SCITEGIC>MOL_PROPERTY
Angle
SciTegic.value.DoubleValue
2.579

@<SCITEGIC>MOL_PROPERTY
Pdih
SciTegic.value.DoubleValue
0.010

@<SCITEGIC>MOL_PROPERTY
Idih
SciTegic.value.DoubleValue
0.000

@<SCITEGIC>MOL_PROPERTY
Tether
SciTegic.value.DoubleValue
0.000

@<TRIPOS>MOLECULE
guest-s19_confgen4.mol2 : confsearch ligand conformer 523
          17          16           1
SMALL
USER_CHARGES
 
@<TRIPOS>ATOM
       1    C1      19.262513   21.977644   21.288256 C.2        1 MOL1         0.6173
       2    O1      19.780807   22.588062   22.204336 O.co2      1 MOL1        -0.6755
       3    O2      18.889521   22.516042   20.264139 O.co2      1 MOL1        -0.6755
       4    C2      19.062447   20.507739   21.404206 C.2        1 MOL1        -0.1504
       5    H1      18.593089   20.023754   20.550848 H          1 MOL1         0.0814
       6    C3      19.429481   19.780009   22.483410 C.2        1 MOL1        -0.1394
       7    H2      19.903561   20.254218   23.342462 H          1 MOL1         0.0817
       8    C4      19.226147   18.283436   22.592678 C.3        1 MOL1        -0.1849
       9    H3      18.244449   18.014034   22.180104 H          1 MOL1         0.0736
      10    H4      19.206041   17.986050   23.649774 H          1 MOL1         0.0736
      11    C5      20.322431   17.485867   21.852673 C.3        1 MOL1        -0.1866
      12    H5      20.066899   16.417542   21.875889 H          1 MOL1         0.0738
      13    H6      20.344144   17.780400   20.794275 H          1 MOL1         0.0738
      14    C6      21.720567   17.683813   22.476167 C.3        1 MOL1        -0.2879
      15    H7      21.725763   17.383492   23.532067 H          1 MOL1         0.0750
      16    H8      22.467988   17.077941   21.947783 H          1 MOL1         0.0750
      17    H9      22.035708   18.733755   22.416762 H          1 MOL1         0.0750
@<TRIPOS>BOND
    1     1     2    1
    2     1     3    2
    3     1     4    1
    4     4     5    1
    5     4     6    2
    6     6     7    1
    7     6     8    1
    8     8     9    1
    9     8    10    1
   10     8    11    1
   11    11    12    1
   12    11    13    1
   13    11    14    1
   14    14    15    1
   15    14    16    1
   16    14    17    1
@<TRIPOS>SUBSTRUCTURE
       1 MOL1            1 RESIDUE      1      MOL     
@<SCITEGIC>MOL_PROPERTY
VConf Rank
SciTegic.value.IntegerValue
523

@<SCITEGIC>MOL_PROPERTY
Conf_Id
SciTegic.value.IntegerValue
3

@<SCITEGIC>MOL_PROPERTY
Delta U+W
SciTegic.value.DoubleValue
0.531

@<SCITEGIC>MOL_PROPERTY
U+W
SciTegic.value.DoubleValue
-52.878

@<SCITEGIC>MOL_PROPERTY
Grad RMS
SciTegic.value.DoubleValue
0.000000

@<SCITEGIC>MOL_PROPERTY
U
SciTegic.value.DoubleValue
10.067

@<SCITEGIC>MOL_PROPERTY
W
SciTegic.value.DoubleValue
-62.945

@<SCITEGIC>MOL_PROPERTY
W(PB)
SciTegic.value.DoubleValue
-64.982

@<SCITEGIC>MOL_PROPERTY
W(SA)
SciTegic.value.DoubleValue
2.037

@<SCITEGIC>MOL_PROPERTY
Valence
SciTegic.value.DoubleValue
2.779

@<SCITEGIC>MOL_PROPERTY
Coulomb
SciTegic.value.DoubleValue
6.474

@<SCITEGIC>MOL_PROPERTY
VdW
SciTegic.value.DoubleValue
0.815

@<SCITEGIC>MOL_PROPERTY
VdW6
SciTegic.value.DoubleValue
-5.088

@<SCITEGIC>MOL_PROPERTY
VdW12
SciTegic.value.DoubleValue
5.902

@<SCITEGIC>MOL_PROPERTY
Bond
SciTegic.value.DoubleValue
0.078

@<SCITEGIC>MOL_PROPERTY
Angle
SciTegic.value.DoubleValue
2.651

@<SCITEGIC>MOL_PROPERTY
Pdih
SciTegic.value.DoubleValue
0.050

@<SCITEGIC>MOL_PROPERTY
Idih
SciTegic.value.DoubleValue
0.000

@<SCITEGIC>MOL_PROPERTY
Tether
SciTegic.value.DoubleValue
0.000

@<TRIPOS>MOLECULE
guest-s19_confgen4.mol2 : confsearch ligand conformer 524
          17          16           1
SMALL
USER_CHARGES
 
@<TRIPOS>ATOM
       1    C1      22.362510   20.924104   21.762846 C.2        1 MOL1         0.6173
       2    O1      23.129995   21.041667   20.827470 O.co2      1 MOL1        -0.6755
       3    O2      22.639457   21.279788   22.892995 O.co2      1 MOL1        -0.6755
       4    C2      21.031284   20.318919   21.487783 C.2        1 MOL1        -0.1504
       5    H1      20.848874   20.023471   20.457180 H          1 MOL1         0.0814
       6    C3      20.081789   20.125761   22.431570 C.2        1 MOL1        -0.1394
       7    H2      20.257692   20.415508   23.467245 H          1 MOL1         0.0817
       8    C4      18.728487   19.506849   22.148976 C.3        1 MOL1        -0.1849
       9    H3      18.511438   19.527324   21.072310 H          1 MOL1         0.0736
      10    H4      17.949447   20.114048   22.628991 H          1 MOL1         0.0736
      11    C5      18.626366   18.057088   22.671405 C.3        1 MOL1        -0.1866
      12    H5      18.845943   18.035330   23.747867 H          1 MOL1         0.0738
      13    H6      17.591700   17.706193   22.555063 H          1 MOL1         0.0738
      14    C6      19.572019   17.089805   21.927809 C.3        1 MOL1        -0.2879
      15    H7      20.622698   17.371820   22.074759 H          1 MOL1         0.0750
      16    H8      19.444213   16.064318   22.297819 H          1 MOL1         0.0750
      17    H9      19.364966   17.089731   20.849745 H          1 MOL1         0.0750
@<TRIPOS>BOND
    1     1     2    1
    2     1     3    2
    3     1     4    1
    4     4     5    1
    5     4     6    2
    6     6     7    1
    7     6     8    1
    8     8     9    1
    9     8    10    1
   10     8    11    1
   11    11    12    1
   12    11    13    1
   13    11    14    1
   14    14    15    1
   15    14    16    1
   16    14    17    1
@<TRIPOS>SUBSTRUCTURE
       1 MOL1            1 RESIDUE      1      MOL     
@<SCITEGIC>MOL_PROPERTY
VConf Rank
SciTegic.value.IntegerValue
524

@<SCITEGIC>MOL_PROPERTY
Conf_Id
SciTegic.value.IntegerValue
45

@<SCITEGIC>MOL_PROPERTY
Delta U+W
SciTegic.value.DoubleValue
0.562

@<SCITEGIC>MOL_PROPERTY
U+W
SciTegic.value.DoubleValue
-52.846

@<SCITEGIC>MOL_PROPERTY
Grad RMS
SciTegic.value.DoubleValue
0.000000

@<SCITEGIC>MOL_PROPERTY
U
SciTegic.value.DoubleValue
10.243

@<SCITEGIC>MOL_PROPERTY
W
SciTegic.value.DoubleValue
-63.089

@<SCITEGIC>MOL_PROPERTY
W(PB)
SciTegic.value.DoubleValue
-65.116

@<SCITEGIC>MOL_PROPERTY
W(SA)
SciTegic.value.DoubleValue
2.026

@<SCITEGIC>MOL_PROPERTY
Valence
SciTegic.value.DoubleValue
2.822

@<SCITEGIC>MOL_PROPERTY
Coulomb
SciTegic.value.DoubleValue
6.637

@<SCITEGIC>MOL_PROPERTY
VdW
SciTegic.value.DoubleValue
0.785

@<SCITEGIC>MOL_PROPERTY
VdW6
SciTegic.value.DoubleValue
-5.216

@<SCITEGIC>MOL_PROPERTY
VdW12
SciTegic.value.DoubleValue
6.001

@<SCITEGIC>MOL_PROPERTY
Bond
SciTegic.value.DoubleValue
0.080

@<SCITEGIC>MOL_PROPERTY
Angle
SciTegic.value.DoubleValue
2.678

@<SCITEGIC>MOL_PROPERTY
Pdih
SciTegic.value.DoubleValue
0.064

@<SCITEGIC>MOL_PROPERTY
Idih
SciTegic.value.DoubleValue
0.000

@<SCITEGIC>MOL_PROPERTY
Tether
SciTegic.value.DoubleValue
0.000

@<TRIPOS>MOLECULE
guest-s19_confgen4.mol2 : confsearch ligand conformer 525
          17          16           1
SMALL
USER_CHARGES
 
@<TRIPOS>ATOM
       1    C1      22.104611   19.721416   19.353175 C.2        1 MOL1         0.6173
       2    O1      22.279971   20.747976   18.726176 O.co2      1 MOL1        -0.6755
       3    O2      22.532731   18.642755   18.987665 O.co2      1 MOL1        -0.6755
       4    C2      21.330665   19.813673   20.620715 C.2        1 MOL1        -0.1504
       5    H1      20.976961   20.806389   20.889635 H          1 MOL1         0.0814
       6    C3      21.059227   18.754654   21.416884 C.2        1 MOL1        -0.1394
       7    H2      21.406742   17.755246   21.155751 H          1 MOL1         0.0817
       8    C4      20.269479   18.856724   22.703397 C.3        1 MOL1        -0.1849
       9    H3      20.530340   19.783918   23.231670 H          1 MOL1         0.0736
      10    H4      20.544835   18.028885   23.370667 H          1 MOL1         0.0736
      11    C5      18.751044   18.820113   22.435015 C.3        1 MOL1        -0.1866
      12    H5      18.473200   19.650324   21.770852 H          1 MOL1         0.0738
      13    H6      18.492318   17.890955   21.908427 H          1 MOL1         0.0738
      14    C6      17.938902   18.914184   23.742341 C.3        1 MOL1        -0.2879
      15    H7      18.174414   18.076940   24.412406 H          1 MOL1         0.0750
      16    H8      18.156390   19.850177   24.273428 H          1 MOL1         0.0750
      17    H9      16.861922   18.886705   23.531415 H          1 MOL1         0.0750
@<TRIPOS>BOND
    1     1     2    1
    2     1     3    2
    3     1     4    1
    4     4     5    1
    5     4     6    2
    6     6     7    1
    7     6     8    1
    8     8     9    1
    9     8    10    1
   10     8    11    1
   11    11    12    1
   12    11    13    1
   13    11    14    1
   14    14    15    1
   15    14    16    1
   16    14    17    1
@<TRIPOS>SUBSTRUCTURE
       1 MOL1            1 RESIDUE      1      MOL     
@<SCITEGIC>MOL_PROPERTY
VConf Rank
SciTegic.value.IntegerValue
525

@<SCITEGIC>MOL_PROPERTY
Conf_Id
SciTegic.value.IntegerValue
36

@<SCITEGIC>MOL_PROPERTY
Delta U+W
SciTegic.value.DoubleValue
0.000

@<SCITEGIC>MOL_PROPERTY
U+W
SciTegic.value.DoubleValue
-53.409

@<SCITEGIC>MOL_PROPERTY
Grad RMS
SciTegic.value.DoubleValue
0.000000

@<SCITEGIC>MOL_PROPERTY
U
SciTegic.value.DoubleValue
9.048

@<SCITEGIC>MOL_PROPERTY
W
SciTegic.value.DoubleValue
-62.457

@<SCITEGIC>MOL_PROPERTY
W(PB)
SciTegic.value.DoubleValue
-64.540

@<SCITEGIC>MOL_PROPERTY
W(SA)
SciTegic.value.DoubleValue
2.084

@<SCITEGIC>MOL_PROPERTY
Valence
SciTegic.value.DoubleValue
2.652

@<SCITEGIC>MOL_PROPERTY
Coulomb
SciTegic.value.DoubleValue
5.578

@<SCITEGIC>MOL_PROPERTY
VdW
SciTegic.value.DoubleValue
0.818

@<SCITEGIC>MOL_PROPERTY
VdW6
SciTegic.value.DoubleValue
-4.534

@<SCITEGIC>MOL_PROPERTY
VdW12
SciTegic.value.DoubleValue
5.352

@<SCITEGIC>MOL_PROPERTY
Bond
SciTegic.value.DoubleValue
0.063

@<SCITEGIC>MOL_PROPERTY
Angle
SciTegic.value.DoubleValue
2.579

@<SCITEGIC>MOL_PROPERTY
Pdih
SciTegic.value.DoubleValue
0.010

@<SCITEGIC>MOL_PROPERTY
Idih
SciTegic.value.DoubleValue
0.000

@<SCITEGIC>MOL_PROPERTY
Tether
SciTegic.value.DoubleValue
0.000

@<TRIPOS>MOLECULE
guest-s19_confgen4.mol2 : confsearch ligand conformer 526
          17          16           1
SMALL
USER_CHARGES
 
@<TRIPOS>ATOM
       1    C1      19.170661   22.285425   22.603817 C.2        1 MOL1         0.6173
       2    O1      19.548000   22.960735   21.664687 O.co2      1 MOL1        -0.6755
       3    O2      18.774208   22.768064   23.646693 O.co2      1 MOL1        -0.6755
       4    C2      19.184409   20.801511   22.494394 C.2        1 MOL1        -0.1504
       5    H1      18.834487   20.257871   23.368990 H          1 MOL1         0.0814
       6    C3      19.599967   20.130534   21.396129 C.2        1 MOL1        -0.1394
       7    H2      19.954582   20.665214   20.515141 H          1 MOL1         0.0817
       8    C4      19.612507   18.621034   21.293704 C.3        1 MOL1        -0.1849
       9    H3      19.551629   18.323486   20.238173 H          1 MOL1         0.0736
      10    H4      18.724491   18.203705   21.787739 H          1 MOL1         0.0736
      11    C5      20.887561   18.025535   21.925080 C.3        1 MOL1        -0.1866
      12    H5      21.774267   18.442788   21.427871 H          1 MOL1         0.0738
      13    H6      20.947897   18.318922   22.982361 H          1 MOL1         0.0738
      14    C6      20.912351   16.487641   21.816484 C.3        1 MOL1        -0.2879
      15    H7      20.884960   16.167302   20.766692 H          1 MOL1         0.0750
      16    H8      21.826036   16.082547   22.270585 H          1 MOL1         0.0750
      17    H9      20.051478   16.043417   22.333204 H          1 MOL1         0.0750
@<TRIPOS>BOND
    1     1     2    1
    2     1     3    2
    3     1     4    1
    4     4     5    1
    5     4     6    2
    6     6     7    1
    7     6     8    1
    8     8     9    1
    9     8    10    1
   10     8    11    1
   11    11    12    1
   12    11    13    1
   13    11    14    1
   14    14    15    1
   15    14    16    1
   16    14    17    1
@<TRIPOS>SUBSTRUCTURE
       1 MOL1            1 RESIDUE      1      MOL     
@<SCITEGIC>MOL_PROPERTY
VConf Rank
SciTegic.value.IntegerValue
526

@<SCITEGIC>MOL_PROPERTY
Conf_Id
SciTegic.value.IntegerValue
1

@<SCITEGIC>MOL_PROPERTY
Delta U+W
SciTegic.value.DoubleValue
0.030

@<SCITEGIC>MOL_PROPERTY
U+W
SciTegic.value.DoubleValue
-53.378

@<SCITEGIC>MOL_PROPERTY
Grad RMS
SciTegic.value.DoubleValue
0.000000

@<SCITEGIC>MOL_PROPERTY
U
SciTegic.value.DoubleValue
9.048

@<SCITEGIC>MOL_PROPERTY
W
SciTegic.value.DoubleValue
-62.426

@<SCITEGIC>MOL_PROPERTY
W(PB)
SciTegic.value.DoubleValue
-64.506

@<SCITEGIC>MOL_PROPERTY
W(SA)
SciTegic.value.DoubleValue
2.080

@<SCITEGIC>MOL_PROPERTY
Valence
SciTegic.value.DoubleValue
2.652

@<SCITEGIC>MOL_PROPERTY
Coulomb
SciTegic.value.DoubleValue
5.578

@<SCITEGIC>MOL_PROPERTY
VdW
SciTegic.value.DoubleValue
0.818

@<SCITEGIC>MOL_PROPERTY
VdW6
SciTegic.value.DoubleValue
-4.535

@<SCITEGIC>MOL_PROPERTY
VdW12
SciTegic.value.DoubleValue
5.352

@<SCITEGIC>MOL_PROPERTY
Bond
SciTegic.value.DoubleValue
0.063

@<SCITEGIC>MOL_PROPERTY
Angle
SciTegic.value.DoubleValue
2.579

@<SCITEGIC>MOL_PROPERTY
Pdih
SciTegic.value.DoubleValue
0.010

@<SCITEGIC>MOL_PROPERTY
Idih
SciTegic.value.DoubleValue
0.000

@<SCITEGIC>MOL_PROPERTY
Tether
SciTegic.value.DoubleValue
0.000

@<TRIPOS>MOLECULE
guest-s19_confgen4.mol2 : confsearch ligand conformer 527
          17          16           1
SMALL
USER_CHARGES
 
@<TRIPOS>ATOM
       1    C1      18.335680   16.506643   22.160154 C.2        1 MOL1         0.6173
       2    O1      17.503572   16.822294   22.989853 O.co2      1 MOL1        -0.6755
       3    O2      18.204012   15.547053   21.425536 O.co2      1 MOL1        -0.6755
       4    C2      19.578785   17.312654   22.021851 C.2        1 MOL1        -0.1504
       5    H1      20.280859   16.975945   21.262588 H          1 MOL1         0.0814
       6    C3      19.856324   18.404330   22.770317 C.2        1 MOL1        -0.1394
       7    H2      19.158420   18.752409   23.531480 H          1 MOL1         0.0817
       8    C4      21.122052   19.222076   22.621200 C.3        1 MOL1        -0.1849
       9    H3      21.978129   18.551103   22.468055 H          1 MOL1         0.0736
      10    H4      21.324432   19.769040   23.551881 H          1 MOL1         0.0736
      11    C5      21.042703   20.218332   21.443601 C.3        1 MOL1        -0.1866
      12    H5      22.019764   20.704980   21.318389 H          1 MOL1         0.0738
      13    H6      20.841495   19.673787   20.510641 H          1 MOL1         0.0738
      14    C6      19.963415   21.301132   21.656658 C.3        1 MOL1        -0.2879
      15    H7      20.151650   21.867241   22.578196 H          1 MOL1         0.0750
      16    H8      19.957356   22.010062   20.818631 H          1 MOL1         0.0750
      17    H9      18.962908   20.854717   21.726804 H          1 MOL1         0.0750
@<TRIPOS>BOND
    1     1     2    1
    2     1     3    2
    3     1     4    1
    4     4     5    1
    5     4     6    2
    6     6     7    1
    7     6     8    1
    8     8     9    1
    9     8    10    1
   10     8    11    1
   11    11    12    1
   12    11    13    1
   13    11    14    1
   14    14    15    1
   15    14    16    1
   16    14    17    1
@<TRIPOS>SUBSTRUCTURE
       1 MOL1            1 RESIDUE      1      MOL     
@<SCITEGIC>MOL_PROPERTY
VConf Rank
SciTegic.value.IntegerValue
527

@<SCITEGIC>MOL_PROPERTY
Conf_Id
SciTegic.value.IntegerValue
3

@<SCITEGIC>MOL_PROPERTY
Delta U+W
SciTegic.value.DoubleValue
0.531

@<SCITEGIC>MOL_PROPERTY
U+W
SciTegic.value.DoubleValue
-52.878

@<SCITEGIC>MOL_PROPERTY
Grad RMS
SciTegic.value.DoubleValue
0.000000

@<SCITEGIC>MOL_PROPERTY
U
SciTegic.value.DoubleValue
10.067

@<SCITEGIC>MOL_PROPERTY
W
SciTegic.value.DoubleValue
-62.945

@<SCITEGIC>MOL_PROPERTY
W(PB)
SciTegic.value.DoubleValue
-64.982

@<SCITEGIC>MOL_PROPERTY
W(SA)
SciTegic.value.DoubleValue
2.037

@<SCITEGIC>MOL_PROPERTY
Valence
SciTegic.value.DoubleValue
2.779

@<SCITEGIC>MOL_PROPERTY
Coulomb
SciTegic.value.DoubleValue
6.474

@<SCITEGIC>MOL_PROPERTY
VdW
SciTegic.value.DoubleValue
0.815

@<SCITEGIC>MOL_PROPERTY
VdW6
SciTegic.value.DoubleValue
-5.088

@<SCITEGIC>MOL_PROPERTY
VdW12
SciTegic.value.DoubleValue
5.902

@<SCITEGIC>MOL_PROPERTY
Bond
SciTegic.value.DoubleValue
0.078

@<SCITEGIC>MOL_PROPERTY
Angle
SciTegic.value.DoubleValue
2.651

@<SCITEGIC>MOL_PROPERTY
Pdih
SciTegic.value.DoubleValue
0.050

@<SCITEGIC>MOL_PROPERTY
Idih
SciTegic.value.DoubleValue
0.000

@<SCITEGIC>MOL_PROPERTY
Tether
SciTegic.value.DoubleValue
0.000

@<TRIPOS>MOLECULE
guest-s19_confgen4.mol2 : confsearch ligand conformer 528
          17          16           1
SMALL
USER_CHARGES
 
@<TRIPOS>ATOM
       1    C1      19.057422   21.378427   20.321814 C.2        1 MOL1         0.6173
       2    O1      17.935912   21.668135   19.952944 O.co2      1 MOL1        -0.6755
       3    O2      20.060426   21.761430   19.749329 O.co2      1 MOL1        -0.6755
       4    C2      19.183084   20.519561   21.530380 C.2        1 MOL1        -0.1504
       5    H1      18.247914   20.212907   21.993119 H          1 MOL1         0.0814
       6    C3      20.365680   20.118538   22.050218 C.2        1 MOL1        -0.1394
       7    H2      21.307260   20.418186   21.590700 H          1 MOL1         0.0817
       8    C4      20.490311   19.241874   23.279145 C.3        1 MOL1        -0.1849
       9    H3      19.550642   19.238239   23.848134 H          1 MOL1         0.0736
      10    H4      21.250295   19.667894   23.947682 H          1 MOL1         0.0736
      11    C5      20.889228   17.792061   22.926906 C.3        1 MOL1        -0.1866
      12    H5      21.827765   17.794960   22.355417 H          1 MOL1         0.0738
      13    H6      21.088933   17.239590   23.855395 H          1 MOL1         0.0738
      14    C6      19.795339   17.052685   22.127179 C.3        1 MOL1        -0.2879
      15    H7      19.613182   17.540423   21.160751 H          1 MOL1         0.0750
      16    H8      20.096196   16.015805   21.929114 H          1 MOL1         0.0750
      17    H9      18.849289   17.031006   22.683605 H          1 MOL1         0.0750
@<TRIPOS>BOND
    1     1     2    1
    2     1     3    2
    3     1     4    1
    4     4     5    1
    5     4     6    2
    6     6     7    1
    7     6     8    1
    8     8     9    1
    9     8    10    1
   10     8    11    1
   11    11    12    1
   12    11    13    1
   13    11    14    1
   14    14    15    1
   15    14    16    1
   16    14    17    1
@<TRIPOS>SUBSTRUCTURE
       1 MOL1            1 RESIDUE      1      MOL     
@<SCITEGIC>MOL_PROPERTY
VConf Rank
SciTegic.value.IntegerValue
528

@<SCITEGIC>MOL_PROPERTY
Conf_Id
SciTegic.value.IntegerValue
45

@<SCITEGIC>MOL_PROPERTY
Delta U+W
SciTegic.value.DoubleValue
0.562

@<SCITEGIC>MOL_PROPERTY
U+W
SciTegic.value.DoubleValue
-52.846

@<SCITEGIC>MOL_PROPERTY
Grad RMS
SciTegic.value.DoubleValue
0.000000

@<SCITEGIC>MOL_PROPERTY
U
SciTegic.value.DoubleValue
10.243

@<SCITEGIC>MOL_PROPERTY
W
SciTegic.value.DoubleValue
-63.089

@<SCITEGIC>MOL_PROPERTY
W(PB)
SciTegic.value.DoubleValue
-65.116

@<SCITEGIC>MOL_PROPERTY
W(SA)
SciTegic.value.DoubleValue
2.026

@<SCITEGIC>MOL_PROPERTY
Valence
SciTegic.value.DoubleValue
2.822

@<SCITEGIC>MOL_PROPERTY
Coulomb
SciTegic.value.DoubleValue
6.637

@<SCITEGIC>MOL_PROPERTY
VdW
SciTegic.value.DoubleValue
0.785

@<SCITEGIC>MOL_PROPERTY
VdW6
SciTegic.value.DoubleValue
-5.216

@<SCITEGIC>MOL_PROPERTY
VdW12
SciTegic.value.DoubleValue
6.001

@<SCITEGIC>MOL_PROPERTY
Bond
SciTegic.value.DoubleValue
0.080

@<SCITEGIC>MOL_PROPERTY
Angle
SciTegic.value.DoubleValue
2.678

@<SCITEGIC>MOL_PROPERTY
Pdih
SciTegic.value.DoubleValue
0.064

@<SCITEGIC>MOL_PROPERTY
Idih
SciTegic.value.DoubleValue
0.000

@<SCITEGIC>MOL_PROPERTY
Tether
SciTegic.value.DoubleValue
0.000

@<TRIPOS>MOLECULE
guest-s19_confgen4.mol2 : confsearch ligand conformer 529
          17          16           1
SMALL
USER_CHARGES
 
@<TRIPOS>ATOM
       1    C1      20.469146   20.634572   24.888493 C.2        1 MOL1         0.6173
       2    O1      19.651460   20.950038   25.730856 O.co2      1 MOL1        -0.6755
       3    O2      21.617517   21.036466   24.899370 O.co2      1 MOL1        -0.6755
       4    C2      20.022757   19.714485   23.807596 C.2        1 MOL1        -0.1504
       5    H1      18.984919   19.392926   23.856576 H          1 MOL1         0.0814
       6    C3      20.823530   19.282546   22.806958 C.2        1 MOL1        -0.1394
       7    H2      21.864282   19.600365   22.746967 H          1 MOL1         0.0817
       8    C4      20.361040   18.348469   21.710218 C.3        1 MOL1        -0.1849
       9    H3      19.680068   17.591991   22.123531 H          1 MOL1         0.0736
      10    H4      21.223474   17.803503   21.303268 H          1 MOL1         0.0736
      11    C5      19.655666   19.119532   20.575791 C.3        1 MOL1        -0.1866
      12    H5      18.789975   19.662022   20.980567 H          1 MOL1         0.0738
      13    H6      20.339403   19.874118   20.162667 H          1 MOL1         0.0738
      14    C6      19.189478   18.175511   19.449284 C.3        1 MOL1        -0.2879
      15    H7      20.040862   17.643388   19.004960 H          1 MOL1         0.0750
      16    H8      18.479821   17.429490   19.830435 H          1 MOL1         0.0750
      17    H9      18.690352   18.741615   18.652082 H          1 MOL1         0.0750
@<TRIPOS>BOND
    1     1     2    1
    2     1     3    2
    3     1     4    1
    4     4     5    1
    5     4     6    2
    6     6     7    1
    7     6     8    1
    8     8     9    1
    9     8    10    1
   10     8    11    1
   11    11    12    1
   12    11    13    1
   13    11    14    1
   14    14    15    1
   15    14    16    1
   16    14    17    1
@<TRIPOS>SUBSTRUCTURE
       1 MOL1            1 RESIDUE      1      MOL     
@<SCITEGIC>MOL_PROPERTY
VConf Rank
SciTegic.value.IntegerValue
529

@<SCITEGIC>MOL_PROPERTY
Conf_Id
SciTegic.value.IntegerValue
36

@<SCITEGIC>MOL_PROPERTY
Delta U+W
SciTegic.value.DoubleValue
0.000

@<SCITEGIC>MOL_PROPERTY
U+W
SciTegic.value.DoubleValue
-53.409

@<SCITEGIC>MOL_PROPERTY
Grad RMS
SciTegic.value.DoubleValue
0.000000

@<SCITEGIC>MOL_PROPERTY
U
SciTegic.value.DoubleValue
9.048

@<SCITEGIC>MOL_PROPERTY
W
SciTegic.value.DoubleValue
-62.457

@<SCITEGIC>MOL_PROPERTY
W(PB)
SciTegic.value.DoubleValue
-64.540

@<SCITEGIC>MOL_PROPERTY
W(SA)
SciTegic.value.DoubleValue
2.084

@<SCITEGIC>MOL_PROPERTY
Valence
SciTegic.value.DoubleValue
2.652

@<SCITEGIC>MOL_PROPERTY
Coulomb
SciTegic.value.DoubleValue
5.578

@<SCITEGIC>MOL_PROPERTY
VdW
SciTegic.value.DoubleValue
0.818

@<SCITEGIC>MOL_PROPERTY
VdW6
SciTegic.value.DoubleValue
-4.534

@<SCITEGIC>MOL_PROPERTY
VdW12
SciTegic.value.DoubleValue
5.352

@<SCITEGIC>MOL_PROPERTY
Bond
SciTegic.value.DoubleValue
0.063

@<SCITEGIC>MOL_PROPERTY
Angle
SciTegic.value.DoubleValue
2.579

@<SCITEGIC>MOL_PROPERTY
Pdih
SciTegic.value.DoubleValue
0.010

@<SCITEGIC>MOL_PROPERTY
Idih
SciTegic.value.DoubleValue
0.000

@<SCITEGIC>MOL_PROPERTY
Tether
SciTegic.value.DoubleValue
0.000

@<TRIPOS>MOLECULE
guest-s19_confgen4.mol2 : confsearch ligand conformer 530
          17          16           1
SMALL
USER_CHARGES
 
@<TRIPOS>ATOM
       1    C1      22.552073   20.546244   23.594421 C.2        1 MOL1         0.6173
       2    O1      22.663068   21.676347   23.157454 O.co2      1 MOL1        -0.6755
       3    O2      23.373608   20.041070   24.334410 O.co2      1 MOL1        -0.6755
       4    C2      21.366694   19.727475   23.222052 C.2        1 MOL1        -0.1504
       5    H1      21.328659   18.726901   23.646684 H          1 MOL1         0.0814
       6    C3      20.377143   20.160441   22.408162 C.2        1 MOL1        -0.1394
       7    H2      20.406319   21.160311   21.975518 H          1 MOL1         0.0817
       8    C4      19.175831   19.320623   22.032935 C.3        1 MOL1        -0.1849
       9    H3      18.338020   19.977318   21.762357 H          1 MOL1         0.0736
      10    H4      18.844150   18.731582   22.898859 H          1 MOL1         0.0736
      11    C5      19.494848   18.378644   20.853986 C.3        1 MOL1        -0.1866
      12    H5      19.824263   18.970231   19.988493 H          1 MOL1         0.0738
      13    H6      20.330298   17.718066   21.124576 H          1 MOL1         0.0738
      14    C6      18.272500   17.525630   20.459324 C.3        1 MOL1        -0.2879
      15    H7      17.431552   18.161796   20.153497 H          1 MOL1         0.0750
      16    H8      18.518488   16.862488   19.619763 H          1 MOL1         0.0750
      17    H9      17.941977   16.900565   21.299255 H          1 MOL1         0.0750
@<TRIPOS>BOND
    1     1     2    1
    2     1     3    2
    3     1     4    1
    4     4     5    1
    5     4     6    2
    6     6     7    1
    7     6     8    1
    8     8     9    1
    9     8    10    1
   10     8    11    1
   11    11    12    1
   12    11    13    1
   13    11    14    1
   14    14    15    1
   15    14    16    1
   16    14    17    1
@<TRIPOS>SUBSTRUCTURE
       1 MOL1            1 RESIDUE      1      MOL     
@<SCITEGIC>MOL_PROPERTY
VConf Rank
SciTegic.value.IntegerValue
530

@<SCITEGIC>MOL_PROPERTY
Conf_Id
SciTegic.value.IntegerValue
1

@<SCITEGIC>MOL_PROPERTY
Delta U+W
SciTegic.value.DoubleValue
0.030

@<SCITEGIC>MOL_PROPERTY
U+W
SciTegic.value.DoubleValue
-53.378

@<SCITEGIC>MOL_PROPERTY
Grad RMS
SciTegic.value.DoubleValue
0.000000

@<SCITEGIC>MOL_PROPERTY
U
SciTegic.value.DoubleValue
9.048

@<SCITEGIC>MOL_PROPERTY
W
SciTegic.value.DoubleValue
-62.426

@<SCITEGIC>MOL_PROPERTY
W(PB)
SciTegic.value.DoubleValue
-64.506

@<SCITEGIC>MOL_PROPERTY
W(SA)
SciTegic.value.DoubleValue
2.080

@<SCITEGIC>MOL_PROPERTY
Valence
SciTegic.value.DoubleValue
2.652

@<SCITEGIC>MOL_PROPERTY
Coulomb
SciTegic.value.DoubleValue
5.578

@<SCITEGIC>MOL_PROPERTY
VdW
SciTegic.value.DoubleValue
0.818

@<SCITEGIC>MOL_PROPERTY
VdW6
SciTegic.value.DoubleValue
-4.535

@<SCITEGIC>MOL_PROPERTY
VdW12
SciTegic.value.DoubleValue
5.352

@<SCITEGIC>MOL_PROPERTY
Bond
SciTegic.value.DoubleValue
0.063

@<SCITEGIC>MOL_PROPERTY
Angle
SciTegic.value.DoubleValue
2.579

@<SCITEGIC>MOL_PROPERTY
Pdih
SciTegic.value.DoubleValue
0.010

@<SCITEGIC>MOL_PROPERTY
Idih
SciTegic.value.DoubleValue
0.000

@<SCITEGIC>MOL_PROPERTY
Tether
SciTegic.value.DoubleValue
0.000

@<TRIPOS>MOLECULE
guest-s19_confgen4.mol2 : confsearch ligand conformer 531
          17          16           1
SMALL
USER_CHARGES
 
@<TRIPOS>ATOM
       1    C1      19.415093   21.521203   23.844022 C.2        1 MOL1         0.6173
       2    O1      20.376245   21.486816   24.589304 O.co2      1 MOL1        -0.6755
       3    O2      18.694680   22.494939   23.740793 O.co2      1 MOL1        -0.6755
       4    C2      19.084437   20.330628   23.014994 C.2        1 MOL1        -0.1504
       5    H1      18.212885   20.427314   22.371714 H          1 MOL1         0.0814
       6    C3      19.798046   19.181892   23.027419 C.2        1 MOL1        -0.1394
       7    H2      20.674965   19.075433   23.665602 H          1 MOL1         0.0817
       8    C4      19.457681   17.975490   22.177854 C.3        1 MOL1        -0.1849
       9    H3      18.369062   17.829680   22.164579 H          1 MOL1         0.0736
      10    H4      19.882459   17.069177   22.630018 H          1 MOL1         0.0736
      11    C5      19.967330   18.116068   20.726628 C.3        1 MOL1        -0.1866
      12    H5      19.602401   17.266003   20.133864 H          1 MOL1         0.0738
      13    H6      19.542960   19.021502   20.271076 H          1 MOL1         0.0738
      14    C6      21.507884   18.165100   20.642937 C.3        1 MOL1        -0.2879
      15    H7      21.953898   17.263012   21.081633 H          1 MOL1         0.0750
      16    H8      21.835611   18.231149   19.597404 H          1 MOL1         0.0750
      17    H9      21.905920   19.038393   21.175992 H          1 MOL1         0.0750
@<TRIPOS>BOND
    1     1     2    1
    2     1     3    2
    3     1     4    1
    4     4     5    1
    5     4     6    2
    6     6     7    1
    7     6     8    1
    8     8     9    1
    9     8    10    1
   10     8    11    1
   11    11    12    1
   12    11    13    1
   13    11    14    1
   14    14    15    1
   15    14    16    1
   16    14    17    1
@<TRIPOS>SUBSTRUCTURE
       1 MOL1            1 RESIDUE      1      MOL     
@<SCITEGIC>MOL_PROPERTY
VConf Rank
SciTegic.value.IntegerValue
531

@<SCITEGIC>MOL_PROPERTY
Conf_Id
SciTegic.value.IntegerValue
3

@<SCITEGIC>MOL_PROPERTY
Delta U+W
SciTegic.value.DoubleValue
0.531

@<SCITEGIC>MOL_PROPERTY
U+W
SciTegic.value.DoubleValue
-52.878

@<SCITEGIC>MOL_PROPERTY
Grad RMS
SciTegic.value.DoubleValue
0.000000

@<SCITEGIC>MOL_PROPERTY
U
SciTegic.value.DoubleValue
10.067

@<SCITEGIC>MOL_PROPERTY
W
SciTegic.value.DoubleValue
-62.945

@<SCITEGIC>MOL_PROPERTY
W(PB)
SciTegic.value.DoubleValue
-64.982

@<SCITEGIC>MOL_PROPERTY
W(SA)
SciTegic.value.DoubleValue
2.037

@<SCITEGIC>MOL_PROPERTY
Valence
SciTegic.value.DoubleValue
2.779

@<SCITEGIC>MOL_PROPERTY
Coulomb
SciTegic.value.DoubleValue
6.474

@<SCITEGIC>MOL_PROPERTY
VdW
SciTegic.value.DoubleValue
0.815

@<SCITEGIC>MOL_PROPERTY
VdW6
SciTegic.value.DoubleValue
-5.088

@<SCITEGIC>MOL_PROPERTY
VdW12
SciTegic.value.DoubleValue
5.902

@<SCITEGIC>MOL_PROPERTY
Bond
SciTegic.value.DoubleValue
0.078

@<SCITEGIC>MOL_PROPERTY
Angle
SciTegic.value.DoubleValue
2.651

@<SCITEGIC>MOL_PROPERTY
Pdih
SciTegic.value.DoubleValue
0.050

@<SCITEGIC>MOL_PROPERTY
Idih
SciTegic.value.DoubleValue
0.000

@<SCITEGIC>MOL_PROPERTY
Tether
SciTegic.value.DoubleValue
0.000

@<TRIPOS>MOLECULE
guest-s19_confgen4.mol2 : confsearch ligand conformer 532
          17          16           1
SMALL
USER_CHARGES
 
@<TRIPOS>ATOM
       1    C1      21.816712   16.895146   23.011700 C.2        1 MOL1         0.6173
       2    O1      22.721041   16.933139   23.823196 O.co2      1 MOL1        -0.6755
       3    O2      21.725788   16.026592   22.164472 O.co2      1 MOL1        -0.6755
       4    C2      20.786607   17.966740   23.079828 C.2        1 MOL1        -0.1504
       5    H1      20.927890   18.710944   23.860152 H          1 MOL1         0.0814
       6    C3      19.729044   18.049851   22.240639 C.2        1 MOL1        -0.1394
       7    H2      19.581964   17.310494   21.453723 H          1 MOL1         0.0817
       8    C4      18.683491   19.143577   22.310760 C.3        1 MOL1        -0.1849
       9    H3      18.721261   19.652477   23.283557 H          1 MOL1         0.0736
      10    H4      17.685572   18.690330   22.241944 H          1 MOL1         0.0736
      11    C5      18.842190   20.179756   21.176602 C.3        1 MOL1        -0.1866
      12    H5      18.807169   19.671178   20.203165 H          1 MOL1         0.0738
      13    H6      17.988386   20.870878   21.200438 H          1 MOL1         0.0738
      14    C6      20.149849   20.991782   21.292676 C.3        1 MOL1        -0.2879
      15    H7      21.029447   20.340468   21.208114 H          1 MOL1         0.0750
      16    H8      20.209841   21.743126   20.494710 H          1 MOL1         0.0750
      17    H9      20.202625   21.515245   22.256155 H          1 MOL1         0.0750
@<TRIPOS>BOND
    1     1     2    1
    2     1     3    2
    3     1     4    1
    4     4     5    1
    5     4     6    2
    6     6     7    1
    7     6     8    1
    8     8     9    1
    9     8    10    1
   10     8    11    1
   11    11    12    1
   12    11    13    1
   13    11    14    1
   14    14    15    1
   15    14    16    1
   16    14    17    1
@<TRIPOS>SUBSTRUCTURE
       1 MOL1            1 RESIDUE      1      MOL     
@<SCITEGIC>MOL_PROPERTY
VConf Rank
SciTegic.value.IntegerValue
532

@<SCITEGIC>MOL_PROPERTY
Conf_Id
SciTegic.value.IntegerValue
45

@<SCITEGIC>MOL_PROPERTY
Delta U+W
SciTegic.value.DoubleValue
0.562

@<SCITEGIC>MOL_PROPERTY
U+W
SciTegic.value.DoubleValue
-52.846

@<SCITEGIC>MOL_PROPERTY
Grad RMS
SciTegic.value.DoubleValue
0.000000

@<SCITEGIC>MOL_PROPERTY
U
SciTegic.value.DoubleValue
10.243

@<SCITEGIC>MOL_PROPERTY
W
SciTegic.value.DoubleValue
-63.089

@<SCITEGIC>MOL_PROPERTY
W(PB)
SciTegic.value.DoubleValue
-65.116

@<SCITEGIC>MOL_PROPERTY
W(SA)
SciTegic.value.DoubleValue
2.026

@<SCITEGIC>MOL_PROPERTY
Valence
SciTegic.value.DoubleValue
2.822

@<SCITEGIC>MOL_PROPERTY
Coulomb
SciTegic.value.DoubleValue
6.637

@<SCITEGIC>MOL_PROPERTY
VdW
SciTegic.value.DoubleValue
0.785

@<SCITEGIC>MOL_PROPERTY
VdW6
SciTegic.value.DoubleValue
-5.216

@<SCITEGIC>MOL_PROPERTY
VdW12
SciTegic.value.DoubleValue
6.001

@<SCITEGIC>MOL_PROPERTY
Bond
SciTegic.value.DoubleValue
0.080

@<SCITEGIC>MOL_PROPERTY
Angle
SciTegic.value.DoubleValue
2.678

@<SCITEGIC>MOL_PROPERTY
Pdih
SciTegic.value.DoubleValue
0.064

@<SCITEGIC>MOL_PROPERTY
Idih
SciTegic.value.DoubleValue
0.000

@<SCITEGIC>MOL_PROPERTY
Tether
SciTegic.value.DoubleValue
0.000

@<TRIPOS>MOLECULE
guest-s19_confgen4.mol2 : confsearch ligand conformer 533
          17          16           1
SMALL
USER_CHARGES
 
@<TRIPOS>ATOM
       1    C1      18.163289   19.022542   24.745554 C.2        1 MOL1         0.6173
       2    O1      18.465709   19.374236   25.869190 O.co2      1 MOL1        -0.6755
       3    O2      17.179489   18.347580   24.506900 O.co2      1 MOL1        -0.6755
       4    C2      19.049807   19.449772   23.629434 C.2        1 MOL1        -0.1504
       5    H1      19.911376   20.050825   23.911111 H          1 MOL1         0.0814
       6    C3      18.835973   19.130859   22.332648 C.2        1 MOL1        -0.1394
       7    H2      17.977202   18.527190   22.039612 H          1 MOL1         0.0817
       8    C4      19.743746   19.567610   21.203739 C.3        1 MOL1        -0.1849
       9    H3      20.096850   20.592670   21.380884 H          1 MOL1         0.0736
      10    H4      19.176426   19.590672   20.263525 H          1 MOL1         0.0736
      11    C5      20.951233   18.619553   21.054827 C.3        1 MOL1        -0.1866
      12    H5      21.522355   18.598577   21.993411 H          1 MOL1         0.0738
      13    H6      20.595561   17.595355   20.875703 H          1 MOL1         0.0738
      14    C6      21.876609   19.052520   19.899949 C.3        1 MOL1        -0.2879
      15    H7      21.337990   19.051342   18.943226 H          1 MOL1         0.0750
      16    H8      22.271002   20.062907   20.070273 H          1 MOL1         0.0750
      17    H9      22.729133   18.366826   19.809632 H          1 MOL1         0.0750
@<TRIPOS>BOND
    1     1     2    1
    2     1     3    2
    3     1     4    1
    4     4     5    1
    5     4     6    2
    6     6     7    1
    7     6     8    1
    8     8     9    1
    9     8    10    1
   10     8    11    1
   11    11    12    1
   12    11    13    1
   13    11    14    1
   14    14    15    1
   15    14    16    1
   16    14    17    1
@<TRIPOS>SUBSTRUCTURE
       1 MOL1            1 RESIDUE      1      MOL     
@<SCITEGIC>MOL_PROPERTY
VConf Rank
SciTegic.value.IntegerValue
533

@<SCITEGIC>MOL_PROPERTY
Conf_Id
SciTegic.value.IntegerValue
36

@<SCITEGIC>MOL_PROPERTY
Delta U+W
SciTegic.value.DoubleValue
0.000

@<SCITEGIC>MOL_PROPERTY
U+W
SciTegic.value.DoubleValue
-53.409

@<SCITEGIC>MOL_PROPERTY
Grad RMS
SciTegic.value.DoubleValue
0.000000

@<SCITEGIC>MOL_PROPERTY
U
SciTegic.value.DoubleValue
9.048

@<SCITEGIC>MOL_PROPERTY
W
SciTegic.value.DoubleValue
-62.457

@<SCITEGIC>MOL_PROPERTY
W(PB)
SciTegic.value.DoubleValue
-64.540

@<SCITEGIC>MOL_PROPERTY
W(SA)
SciTegic.value.DoubleValue
2.084

@<SCITEGIC>MOL_PROPERTY
Valence
SciTegic.value.DoubleValue
2.652

@<SCITEGIC>MOL_PROPERTY
Coulomb
SciTegic.value.DoubleValue
5.578

@<SCITEGIC>MOL_PROPERTY
VdW
SciTegic.value.DoubleValue
0.818

@<SCITEGIC>MOL_PROPERTY
VdW6
SciTegic.value.DoubleValue
-4.534

@<SCITEGIC>MOL_PROPERTY
VdW12
SciTegic.value.DoubleValue
5.352

@<SCITEGIC>MOL_PROPERTY
Bond
SciTegic.value.DoubleValue
0.063

@<SCITEGIC>MOL_PROPERTY
Angle
SciTegic.value.DoubleValue
2.579

@<SCITEGIC>MOL_PROPERTY
Pdih
SciTegic.value.DoubleValue
0.010

@<SCITEGIC>MOL_PROPERTY
Idih
SciTegic.value.DoubleValue
0.000

@<SCITEGIC>MOL_PROPERTY
Tether
SciTegic.value.DoubleValue
0.000

@<TRIPOS>MOLECULE
guest-s19_confgen4.mol2 : confsearch ligand conformer 534
          17          16           1
SMALL
USER_CHARGES
 
@<TRIPOS>ATOM
       1    C1      19.560315   15.855178   22.742077 C.2        1 MOL1         0.6173
       2    O1      19.383922   15.246845   21.703226 O.co2      1 MOL1        -0.6755
       3    O2      19.375115   15.359826   23.836623 O.co2      1 MOL1        -0.6755
       4    C2      20.024296   17.268263   22.696528 C.2        1 MOL1        -0.1504
       5    H1      20.162272   17.753774   23.659934 H          1 MOL1         0.0814
       6    C3      20.268734   17.944783   21.551252 C.2        1 MOL1        -0.1394
       7    H2      20.131664   17.468689   20.580521 H          1 MOL1         0.0817
       8    C4      20.738644   19.382494   21.513675 C.3        1 MOL1        -0.1849
       9    H3      21.276352   19.569266   20.574327 H          1 MOL1         0.0736
      10    H4      21.455716   19.564573   22.325746 H          1 MOL1         0.0736
      11    C5      19.554934   20.363923   21.634699 C.3        1 MOL1        -0.1866
      12    H5      18.840228   20.181300   20.820198 H          1 MOL1         0.0738
      13    H6      19.018263   20.181102   22.576039 H          1 MOL1         0.0738
      14    C6      20.024718   21.831792   21.587911 C.3        1 MOL1        -0.2879
      15    H7      20.537512   22.050348   20.642022 H          1 MOL1         0.0750
      16    H8      19.169522   22.514533   21.675288 H          1 MOL1         0.0750
      17    H9      20.717282   22.049046   22.411677 H          1 MOL1         0.0750
@<TRIPOS>BOND
    1     1     2    1
    2     1     3    2
    3     1     4    1
    4     4     5    1
    5     4     6    2
    6     6     7    1
    7     6     8    1
    8     8     9    1
    9     8    10    1
   10     8    11    1
   11    11    12    1
   12    11    13    1
   13    11    14    1
   14    14    15    1
   15    14    16    1
   16    14    17    1
@<TRIPOS>SUBSTRUCTURE
       1 MOL1            1 RESIDUE      1      MOL     
@<SCITEGIC>MOL_PROPERTY
VConf Rank
SciTegic.value.IntegerValue
534

@<SCITEGIC>MOL_PROPERTY
Conf_Id
SciTegic.value.IntegerValue
1

@<SCITEGIC>MOL_PROPERTY
Delta U+W
SciTegic.value.DoubleValue
0.030

@<SCITEGIC>MOL_PROPERTY
U+W
SciTegic.value.DoubleValue
-53.378

@<SCITEGIC>MOL_PROPERTY
Grad RMS
SciTegic.value.DoubleValue
0.000000

@<SCITEGIC>MOL_PROPERTY
U
SciTegic.value.DoubleValue
9.048

@<SCITEGIC>MOL_PROPERTY
W
SciTegic.value.DoubleValue
-62.426

@<SCITEGIC>MOL_PROPERTY
W(PB)
SciTegic.value.DoubleValue
-64.506

@<SCITEGIC>MOL_PROPERTY
W(SA)
SciTegic.value.DoubleValue
2.080

@<SCITEGIC>MOL_PROPERTY
Valence
SciTegic.value.DoubleValue
2.652

@<SCITEGIC>MOL_PROPERTY
Coulomb
SciTegic.value.DoubleValue
5.578

@<SCITEGIC>MOL_PROPERTY
VdW
SciTegic.value.DoubleValue
0.818

@<SCITEGIC>MOL_PROPERTY
VdW6
SciTegic.value.DoubleValue
-4.535

@<SCITEGIC>MOL_PROPERTY
VdW12
SciTegic.value.DoubleValue
5.352

@<SCITEGIC>MOL_PROPERTY
Bond
SciTegic.value.DoubleValue
0.063

@<SCITEGIC>MOL_PROPERTY
Angle
SciTegic.value.DoubleValue
2.579

@<SCITEGIC>MOL_PROPERTY
Pdih
SciTegic.value.DoubleValue
0.010

@<SCITEGIC>MOL_PROPERTY
Idih
SciTegic.value.DoubleValue
0.000

@<SCITEGIC>MOL_PROPERTY
Tether
SciTegic.value.DoubleValue
0.000

@<TRIPOS>MOLECULE
guest-s19_confgen4.mol2 : confsearch ligand conformer 535
          17          16           1
SMALL
USER_CHARGES
 
@<TRIPOS>ATOM
       1    C1      18.379884   21.028871   20.302785 C.2        1 MOL1         0.6173
       2    O1      17.751247   20.237060   19.625813 O.co2      1 MOL1        -0.6755
       3    O2      18.083654   22.204764   20.388432 O.co2      1 MOL1        -0.6755
       4    C2      19.569193   20.562376   21.065686 C.2        1 MOL1        -0.1504
       5    H1      20.086124   21.320583   21.649351 H          1 MOL1         0.0814
       6    C3      20.011834   19.284466   21.064141 C.2        1 MOL1        -0.1394
       7    H2      19.499475   18.516105   20.485602 H          1 MOL1         0.0817
       8    C4      21.220955   18.816205   21.846299 C.3        1 MOL1        -0.1849
       9    H3      22.017737   19.569239   21.778438 H          1 MOL1         0.0736
      10    H4      21.625712   17.900649   21.394391 H          1 MOL1         0.0736
      11    C5      20.894525   18.557219   23.333556 C.3        1 MOL1        -0.1866
      12    H5      21.824551   18.324120   23.870091 H          1 MOL1         0.0738
      13    H6      20.490433   19.472015   23.788841 H          1 MOL1         0.0738
      14    C6      19.896208   17.395804   23.526407 C.3        1 MOL1        -0.2879
      15    H7      20.285317   16.466880   23.089555 H          1 MOL1         0.0750
      16    H8      19.713101   17.217618   24.593941 H          1 MOL1         0.0750
      17    H9      18.931608   17.619825   23.052504 H          1 MOL1         0.0750
@<TRIPOS>BOND
    1     1     2    1
    2     1     3    2
    3     1     4    1
    4     4     5    1
    5     4     6    2
    6     6     7    1
    7     6     8    1
    8     8     9    1
    9     8    10    1
   10     8    11    1
   11    11    12    1
   12    11    13    1
   13    11    14    1
   14    14    15    1
   15    14    16    1
   16    14    17    1
@<TRIPOS>SUBSTRUCTURE
       1 MOL1            1 RESIDUE      1      MOL     
@<SCITEGIC>MOL_PROPERTY
VConf Rank
SciTegic.value.IntegerValue
535

@<SCITEGIC>MOL_PROPERTY
Conf_Id
SciTegic.value.IntegerValue
3

@<SCITEGIC>MOL_PROPERTY
Delta U+W
SciTegic.value.DoubleValue
0.531

@<SCITEGIC>MOL_PROPERTY
U+W
SciTegic.value.DoubleValue
-52.878

@<SCITEGIC>MOL_PROPERTY
Grad RMS
SciTegic.value.DoubleValue
0.000000

@<SCITEGIC>MOL_PROPERTY
U
SciTegic.value.DoubleValue
10.067

@<SCITEGIC>MOL_PROPERTY
W
SciTegic.value.DoubleValue
-62.945

@<SCITEGIC>MOL_PROPERTY
W(PB)
SciTegic.value.DoubleValue
-64.982

@<SCITEGIC>MOL_PROPERTY
W(SA)
SciTegic.value.DoubleValue
2.037

@<SCITEGIC>MOL_PROPERTY
Valence
SciTegic.value.DoubleValue
2.779

@<SCITEGIC>MOL_PROPERTY
Coulomb
SciTegic.value.DoubleValue
6.474

@<SCITEGIC>MOL_PROPERTY
VdW
SciTegic.value.DoubleValue
0.815

@<SCITEGIC>MOL_PROPERTY
VdW6
SciTegic.value.DoubleValue
-5.088

@<SCITEGIC>MOL_PROPERTY
VdW12
SciTegic.value.DoubleValue
5.902

@<SCITEGIC>MOL_PROPERTY
Bond
SciTegic.value.DoubleValue
0.078

@<SCITEGIC>MOL_PROPERTY
Angle
SciTegic.value.DoubleValue
2.651

@<SCITEGIC>MOL_PROPERTY
Pdih
SciTegic.value.DoubleValue
0.050

@<SCITEGIC>MOL_PROPERTY
Idih
SciTegic.value.DoubleValue
0.000

@<SCITEGIC>MOL_PROPERTY
Tether
SciTegic.value.DoubleValue
0.000

@<TRIPOS>MOLECULE
guest-s19_confgen4.mol2 : confsearch ligand conformer 536
          17          16           1
SMALL
USER_CHARGES
 
@<TRIPOS>ATOM
       1    C1      17.874024   21.264179   21.976575 C.2        1 MOL1         0.6173
       2    O1      16.788345   21.264627   21.429692 O.co2      1 MOL1        -0.6755
       3    O2      18.456563   22.285750   22.288806 O.co2      1 MOL1        -0.6755
       4    C2      18.495673   19.944341   22.269239 C.2        1 MOL1        -0.1504
       5    H1      17.922013   19.072252   21.964145 H          1 MOL1         0.0814
       6    C3      19.698225   19.794406   22.870050 C.2        1 MOL1        -0.1394
       7    H2      20.281227   20.662882   23.175626 H          1 MOL1         0.0817
       8    C4      20.329731   18.449405   23.164175 C.3        1 MOL1        -0.1849
       9    H3      19.577412   17.650400   23.115730 H          1 MOL1         0.0736
      10    H4      20.709137   18.449322   24.194738 H          1 MOL1         0.0736
      11    C5      21.493531   18.125330   22.202036 C.3        1 MOL1        -0.1866
      12    H5      22.245320   18.925434   22.247915 H          1 MOL1         0.0738
      13    H6      21.992330   17.206367   22.539535 H          1 MOL1         0.0738
      14    C6      21.023529   17.935948   20.743934 C.3        1 MOL1        -0.2879
      15    H7      20.576133   18.857349   20.349080 H          1 MOL1         0.0750
      16    H8      21.869337   17.668921   20.097272 H          1 MOL1         0.0750
      17    H9      20.276350   17.134808   20.673282 H          1 MOL1         0.0750
@<TRIPOS>BOND
    1     1     2    1
    2     1     3    2
    3     1     4    1
    4     4     5    1
    5     4     6    2
    6     6     7    1
    7     6     8    1
    8     8     9    1
    9     8    10    1
   10     8    11    1
   11    11    12    1
   12    11    13    1
   13    11    14    1
   14    14    15    1
   15    14    16    1
   16    14    17    1
@<TRIPOS>SUBSTRUCTURE
       1 MOL1            1 RESIDUE      1      MOL     
@<SCITEGIC>MOL_PROPERTY
VConf Rank
SciTegic.value.IntegerValue
536

@<SCITEGIC>MOL_PROPERTY
Conf_Id
SciTegic.value.IntegerValue
45

@<SCITEGIC>MOL_PROPERTY
Delta U+W
SciTegic.value.DoubleValue
0.562

@<SCITEGIC>MOL_PROPERTY
U+W
SciTegic.value.DoubleValue
-52.846

@<SCITEGIC>MOL_PROPERTY
Grad RMS
SciTegic.value.DoubleValue
0.000000

@<SCITEGIC>MOL_PROPERTY
U
SciTegic.value.DoubleValue
10.243

@<SCITEGIC>MOL_PROPERTY
W
SciTegic.value.DoubleValue
-63.089

@<SCITEGIC>MOL_PROPERTY
W(PB)
SciTegic.value.DoubleValue
-65.116

@<SCITEGIC>MOL_PROPERTY
W(SA)
SciTegic.value.DoubleValue
2.026

@<SCITEGIC>MOL_PROPERTY
Valence
SciTegic.value.DoubleValue
2.822

@<SCITEGIC>MOL_PROPERTY
Coulomb
SciTegic.value.DoubleValue
6.637

@<SCITEGIC>MOL_PROPERTY
VdW
SciTegic.value.DoubleValue
0.785

@<SCITEGIC>MOL_PROPERTY
VdW6
SciTegic.value.DoubleValue
-5.216

@<SCITEGIC>MOL_PROPERTY
VdW12
SciTegic.value.DoubleValue
6.001

@<SCITEGIC>MOL_PROPERTY
Bond
SciTegic.value.DoubleValue
0.080

@<SCITEGIC>MOL_PROPERTY
Angle
SciTegic.value.DoubleValue
2.678

@<SCITEGIC>MOL_PROPERTY
Pdih
SciTegic.value.DoubleValue
0.064

@<SCITEGIC>MOL_PROPERTY
Idih
SciTegic.value.DoubleValue
0.000

@<SCITEGIC>MOL_PROPERTY
Tether
SciTegic.value.DoubleValue
0.000

@<TRIPOS>MOLECULE
guest-s19_confgen4.mol2 : confsearch ligand conformer 537
          17          16           1
SMALL
USER_CHARGES
 
@<TRIPOS>ATOM
       1    C1      19.702209   16.993059   19.309818 C.2        1 MOL1         0.6173
       2    O1      18.861082   16.140161   19.102998 O.co2      1 MOL1        -0.6755
       3    O2      20.741193   17.062593   18.680476 O.co2      1 MOL1        -0.6755
       4    C2      19.425749   17.985178   20.383798 C.2        1 MOL1        -0.1504
       5    H1      18.479774   17.866732   20.907259 H          1 MOL1         0.0814
       6    C3      20.271077   18.985308   20.721798 C.2        1 MOL1        -0.1394
       7    H2      21.222495   19.111708   20.205464 H          1 MOL1         0.0817
       8    C4      19.983263   19.988890   21.816889 C.3        1 MOL1        -0.1849
       9    H3      18.918666   20.259737   21.807785 H          1 MOL1         0.0736
      10    H4      20.542735   20.914207   21.624105 H          1 MOL1         0.0736
      11    C5      20.367121   19.433053   23.203508 C.3        1 MOL1        -0.1866
      12    H5      19.805046   18.509406   23.399742 H          1 MOL1         0.0738
      13    H6      21.432747   19.164804   23.210756 H          1 MOL1         0.0738
      14    C6      20.085563   20.453735   24.324427 C.3        1 MOL1        -0.2879
      15    H7      20.660538   21.376144   24.169524 H          1 MOL1         0.0750
      16    H8      19.019862   20.715542   24.358724 H          1 MOL1         0.0750
      17    H9      20.364630   20.040780   25.302548 H          1 MOL1         0.0750
@<TRIPOS>BOND
    1     1     2    1
    2     1     3    2
    3     1     4    1
    4     4     5    1
    5     4     6    2
    6     6     7    1
    7     6     8    1
    8     8     9    1
    9     8    10    1
   10     8    11    1
   11    11    12    1
   12    11    13    1
   13    11    14    1
   14    14    15    1
   15    14    16    1
   16    14    17    1
@<TRIPOS>SUBSTRUCTURE
       1 MOL1            1 RESIDUE      1      MOL     
@<SCITEGIC>MOL_PROPERTY
VConf Rank
SciTegic.value.IntegerValue
537

@<SCITEGIC>MOL_PROPERTY
Conf_Id
SciTegic.value.IntegerValue
36

@<SCITEGIC>MOL_PROPERTY
Delta U+W
SciTegic.value.DoubleValue
0.000

@<SCITEGIC>MOL_PROPERTY
U+W
SciTegic.value.DoubleValue
-53.409

@<SCITEGIC>MOL_PROPERTY
Grad RMS
SciTegic.value.DoubleValue
0.000000

@<SCITEGIC>MOL_PROPERTY
U
SciTegic.value.DoubleValue
9.048

@<SCITEGIC>MOL_PROPERTY
W
SciTegic.value.DoubleValue
-62.457

@<SCITEGIC>MOL_PROPERTY
W(PB)
SciTegic.value.DoubleValue
-64.540

@<SCITEGIC>MOL_PROPERTY
W(SA)
SciTegic.value.DoubleValue
2.084

@<SCITEGIC>MOL_PROPERTY
Valence
SciTegic.value.DoubleValue
2.652

@<SCITEGIC>MOL_PROPERTY
Coulomb
SciTegic.value.DoubleValue
5.578

@<SCITEGIC>MOL_PROPERTY
VdW
SciTegic.value.DoubleValue
0.818

@<SCITEGIC>MOL_PROPERTY
VdW6
SciTegic.value.DoubleValue
-4.534

@<SCITEGIC>MOL_PROPERTY
VdW12
SciTegic.value.DoubleValue
5.352

@<SCITEGIC>MOL_PROPERTY
Bond
SciTegic.value.DoubleValue
0.063

@<SCITEGIC>MOL_PROPERTY
Angle
SciTegic.value.DoubleValue
2.579

@<SCITEGIC>MOL_PROPERTY
Pdih
SciTegic.value.DoubleValue
0.010

@<SCITEGIC>MOL_PROPERTY
Idih
SciTegic.value.DoubleValue
0.000

@<SCITEGIC>MOL_PROPERTY
Tether
SciTegic.value.DoubleValue
0.000

@<TRIPOS>MOLECULE
guest-s19_confgen4.mol2 : confsearch ligand conformer 538
          17          16           1
SMALL
USER_CHARGES
 
@<TRIPOS>ATOM
       1    C1      22.829857   20.949628   21.859435 C.2        1 MOL1         0.6173
       2    O1      23.498469   20.548825   20.925246 O.co2      1 MOL1        -0.6755
       3    O2      23.258997   21.720902   22.695307 O.co2      1 MOL1        -0.6755
       4    C2      21.421914   20.490868   22.005718 C.2        1 MOL1        -0.1504
       5    H1      20.880272   20.886763   22.861756 H          1 MOL1         0.0814
       6    C3      20.815644   19.634620   21.152277 C.2        1 MOL1        -0.1394
       7    H2      21.349694   19.230218   20.292613 H          1 MOL1         0.0817
       8    C4      19.383802   19.171578   21.309312 C.3        1 MOL1        -0.1849
       9    H3      18.984770   18.871836   20.330888 H          1 MOL1         0.0736
      10    H4      18.756941   20.002213   21.661303 H          1 MOL1         0.0736
      11    C5      19.280581   17.988291   22.293282 C.3        1 MOL1        -0.1866
      12    H5      19.906663   17.158026   21.937967 H          1 MOL1         0.0738
      13    H6      19.675677   18.287814   23.273968 H          1 MOL1         0.0738
      14    C6      17.825181   17.504340   22.451800 C.3        1 MOL1        -0.2879
      15    H7      17.415667   17.168711   21.489989 H          1 MOL1         0.0750
      16    H8      17.771808   16.662934   23.154878 H          1 MOL1         0.0750
      17    H9      17.183555   18.308166   22.836007 H          1 MOL1         0.0750
@<TRIPOS>BOND
    1     1     2    1
    2     1     3    2
    3     1     4    1
    4     4     5    1
    5     4     6    2
    6     6     7    1
    7     6     8    1
    8     8     9    1
    9     8    10    1
   10     8    11    1
   11    11    12    1
   12    11    13    1
   13    11    14    1
   14    14    15    1
   15    14    16    1
   16    14    17    1
@<TRIPOS>SUBSTRUCTURE
       1 MOL1            1 RESIDUE      1      MOL     
@<SCITEGIC>MOL_PROPERTY
VConf Rank
SciTegic.value.IntegerValue
538

@<SCITEGIC>MOL_PROPERTY
Conf_Id
SciTegic.value.IntegerValue
1

@<SCITEGIC>MOL_PROPERTY
Delta U+W
SciTegic.value.DoubleValue
0.030

@<SCITEGIC>MOL_PROPERTY
U+W
SciTegic.value.DoubleValue
-53.378

@<SCITEGIC>MOL_PROPERTY
Grad RMS
SciTegic.value.DoubleValue
0.000000

@<SCITEGIC>MOL_PROPERTY
U
SciTegic.value.DoubleValue
9.048

@<SCITEGIC>MOL_PROPERTY
W
SciTegic.value.DoubleValue
-62.426

@<SCITEGIC>MOL_PROPERTY
W(PB)
SciTegic.value.DoubleValue
-64.506

@<SCITEGIC>MOL_PROPERTY
W(SA)
SciTegic.value.DoubleValue
2.080

@<SCITEGIC>MOL_PROPERTY
Valence
SciTegic.value.DoubleValue
2.652

@<SCITEGIC>MOL_PROPERTY
Coulomb
SciTegic.value.DoubleValue
5.578

@<SCITEGIC>MOL_PROPERTY
VdW
SciTegic.value.DoubleValue
0.818

@<SCITEGIC>MOL_PROPERTY
VdW6
SciTegic.value.DoubleValue
-4.535

@<SCITEGIC>MOL_PROPERTY
VdW12
SciTegic.value.DoubleValue
5.352

@<SCITEGIC>MOL_PROPERTY
Bond
SciTegic.value.DoubleValue
0.063

@<SCITEGIC>MOL_PROPERTY
Angle
SciTegic.value.DoubleValue
2.579

@<SCITEGIC>MOL_PROPERTY
Pdih
SciTegic.value.DoubleValue
0.010

@<SCITEGIC>MOL_PROPERTY
Idih
SciTegic.value.DoubleValue
0.000

@<SCITEGIC>MOL_PROPERTY
Tether
SciTegic.value.DoubleValue
0.000

@<TRIPOS>MOLECULE
guest-s19_confgen4.mol2 : confsearch ligand conformer 539
          17          16           1
SMALL
USER_CHARGES
 
@<TRIPOS>ATOM
       1    C1      22.372353   20.573689   20.730210 C.2        1 MOL1         0.6173
       2    O1      22.873333   21.100536   21.705859 O.co2      1 MOL1        -0.6755
       3    O2      22.949359   20.474000   19.664875 O.co2      1 MOL1        -0.6755
       4    C2      20.992946   20.022819   20.818921 C.2        1 MOL1        -0.1504
       5    H1      20.604723   19.566506   19.911274 H          1 MOL1         0.0814
       6    C3      20.236009   20.062907   21.938933 C.2        1 MOL1        -0.1394
       7    H2      20.616365   20.514678   22.854810 H          1 MOL1         0.0817
       8    C4      18.834121   19.496616   22.022820 C.3        1 MOL1        -0.1849
       9    H3      18.286369   19.731064   21.100037 H          1 MOL1         0.0736
      10    H4      18.283126   19.984312   22.838204 H          1 MOL1         0.0736
      11    C5      18.830073   17.967336   22.239260 C.3        1 MOL1        -0.1866
      12    H5      17.796006   17.599832   22.186338 H          1 MOL1         0.0738
      13    H6      19.379676   17.476416   21.424176 H          1 MOL1         0.0738
      14    C6      19.441149   17.560566   23.597139 C.3        1 MOL1        -0.2879
      15    H7      18.899015   18.030211   24.428204 H          1 MOL1         0.0750
      16    H8      19.391613   16.472336   23.732080 H          1 MOL1         0.0750
      17    H9      20.495321   17.859974   23.662693 H          1 MOL1         0.0750
@<TRIPOS>BOND
    1     1     2    1
    2     1     3    2
    3     1     4    1
    4     4     5    1
    5     4     6    2
    6     6     7    1
    7     6     8    1
    8     8     9    1
    9     8    10    1
   10     8    11    1
   11    11    12    1
   12    11    13    1
   13    11    14    1
   14    14    15    1
   15    14    16    1
   16    14    17    1
@<TRIPOS>SUBSTRUCTURE
       1 MOL1            1 RESIDUE      1      MOL     
@<SCITEGIC>MOL_PROPERTY
VConf Rank
SciTegic.value.IntegerValue
539

@<SCITEGIC>MOL_PROPERTY
Conf_Id
SciTegic.value.IntegerValue
3

@<SCITEGIC>MOL_PROPERTY
Delta U+W
SciTegic.value.DoubleValue
0.531

@<SCITEGIC>MOL_PROPERTY
U+W
SciTegic.value.DoubleValue
-52.878

@<SCITEGIC>MOL_PROPERTY
Grad RMS
SciTegic.value.DoubleValue
0.000000

@<SCITEGIC>MOL_PROPERTY
U
SciTegic.value.DoubleValue
10.067

@<SCITEGIC>MOL_PROPERTY
W
SciTegic.value.DoubleValue
-62.945

@<SCITEGIC>MOL_PROPERTY
W(PB)
SciTegic.value.DoubleValue
-64.982

@<SCITEGIC>MOL_PROPERTY
W(SA)
SciTegic.value.DoubleValue
2.037

@<SCITEGIC>MOL_PROPERTY
Valence
SciTegic.value.DoubleValue
2.779

@<SCITEGIC>MOL_PROPERTY
Coulomb
SciTegic.value.DoubleValue
6.474

@<SCITEGIC>MOL_PROPERTY
VdW
SciTegic.value.DoubleValue
0.815

@<SCITEGIC>MOL_PROPERTY
VdW6
SciTegic.value.DoubleValue
-5.088

@<SCITEGIC>MOL_PROPERTY
VdW12
SciTegic.value.DoubleValue
5.902

@<SCITEGIC>MOL_PROPERTY
Bond
SciTegic.value.DoubleValue
0.078

@<SCITEGIC>MOL_PROPERTY
Angle
SciTegic.value.DoubleValue
2.651

@<SCITEGIC>MOL_PROPERTY
Pdih
SciTegic.value.DoubleValue
0.050

@<SCITEGIC>MOL_PROPERTY
Idih
SciTegic.value.DoubleValue
0.000

@<SCITEGIC>MOL_PROPERTY
Tether
SciTegic.value.DoubleValue
0.000

@<TRIPOS>MOLECULE
guest-s19_confgen4.mol2 : confsearch ligand conformer 540
          17          16           1
SMALL
USER_CHARGES
 
@<TRIPOS>ATOM
       1    C1      19.431011   22.065798   22.222558 C.2        1 MOL1         0.6173
       2    O1      18.755140   22.690787   23.016516 O.co2      1 MOL1        -0.6755
       3    O2      19.724819   22.495968   21.122977 O.co2      1 MOL1        -0.6755
       4    C2      19.910658   20.719892   22.637945 C.2        1 MOL1        -0.1504
       5    H1      19.612222   20.396590   23.632489 H          1 MOL1         0.0814
       6    C3      20.667182   19.915347   21.856944 C.2        1 MOL1        -0.1394
       7    H2      20.967568   20.229958   20.857791 H          1 MOL1         0.0817
       8    C4      21.151654   18.544472   22.281593 C.3        1 MOL1        -0.1849
       9    H3      21.078415   18.429265   23.371594 H          1 MOL1         0.0736
      10    H4      22.217648   18.449005   22.035520 H          1 MOL1         0.0736
      11    C5      20.373247   17.406282   21.586055 C.3        1 MOL1        -0.1866
      12    H5      20.443790   17.522278   20.495629 H          1 MOL1         0.0738
      13    H6      20.847617   16.445928   21.830782 H          1 MOL1         0.0738
      14    C6      18.889547   17.356534   22.009128 C.3        1 MOL1        -0.2879
      15    H7      18.364675   18.276947   21.722069 H          1 MOL1         0.0750
      16    H8      18.378506   16.513523   21.526392 H          1 MOL1         0.0750
      17    H9      18.795179   17.233146   23.095849 H          1 MOL1         0.0750
@<TRIPOS>BOND
    1     1     2    1
    2     1     3    2
    3     1     4    1
    4     4     5    1
    5     4     6    2
    6     6     7    1
    7     6     8    1
    8     8     9    1
    9     8    10    1
   10     8    11    1
   11    11    12    1
   12    11    13    1
   13    11    14    1
   14    14    15    1
   15    14    16    1
   16    14    17    1
@<TRIPOS>SUBSTRUCTURE
       1 MOL1            1 RESIDUE      1      MOL     
@<SCITEGIC>MOL_PROPERTY
VConf Rank
SciTegic.value.IntegerValue
540

@<SCITEGIC>MOL_PROPERTY
Conf_Id
SciTegic.value.IntegerValue
45

@<SCITEGIC>MOL_PROPERTY
Delta U+W
SciTegic.value.DoubleValue
0.562

@<SCITEGIC>MOL_PROPERTY
U+W
SciTegic.value.DoubleValue
-52.846

@<SCITEGIC>MOL_PROPERTY
Grad RMS
SciTegic.value.DoubleValue
0.000000

@<SCITEGIC>MOL_PROPERTY
U
SciTegic.value.DoubleValue
10.243

@<SCITEGIC>MOL_PROPERTY
W
SciTegic.value.DoubleValue
-63.089

@<SCITEGIC>MOL_PROPERTY
W(PB)
SciTegic.value.DoubleValue
-65.116

@<SCITEGIC>MOL_PROPERTY
W(SA)
SciTegic.value.DoubleValue
2.026

@<SCITEGIC>MOL_PROPERTY
Valence
SciTegic.value.DoubleValue
2.822

@<SCITEGIC>MOL_PROPERTY
Coulomb
SciTegic.value.DoubleValue
6.637

@<SCITEGIC>MOL_PROPERTY
VdW
SciTegic.value.DoubleValue
0.785

@<SCITEGIC>MOL_PROPERTY
VdW6
SciTegic.value.DoubleValue
-5.216

@<SCITEGIC>MOL_PROPERTY
VdW12
SciTegic.value.DoubleValue
6.001

@<SCITEGIC>MOL_PROPERTY
Bond
SciTegic.value.DoubleValue
0.080

@<SCITEGIC>MOL_PROPERTY
Angle
SciTegic.value.DoubleValue
2.678

@<SCITEGIC>MOL_PROPERTY
Pdih
SciTegic.value.DoubleValue
0.064

@<SCITEGIC>MOL_PROPERTY
Idih
SciTegic.value.DoubleValue
0.000

@<SCITEGIC>MOL_PROPERTY
Tether
SciTegic.value.DoubleValue
0.000

@<TRIPOS>MOLECULE
guest-s19_confgen4.mol2 : confsearch ligand conformer 541
          17          16           1
SMALL
USER_CHARGES
 
@<TRIPOS>ATOM
       1    C1      21.356489   21.406048   19.844010 C.2        1 MOL1         0.6173
       2    O1      21.735614   21.276411   18.696333 O.co2      1 MOL1        -0.6755
       3    O2      21.627107   22.378543   20.523284 O.co2      1 MOL1        -0.6755
       4    C2      20.525203   20.315007   20.420859 C.2        1 MOL1        -0.1504
       5    H1      20.320221   19.475056   19.761031 H          1 MOL1         0.0814
       6    C3      20.037074   20.325787   21.682088 C.2        1 MOL1        -0.1394
       7    H2      20.238349   21.161228   22.352386 H          1 MOL1         0.0817
       8    C4      19.194170   19.211020   22.261781 C.3        1 MOL1        -0.1849
       9    H3      18.506293   18.824038   21.497661 H          1 MOL1         0.0736
      10    H4      18.568889   19.606702   23.073475 H          1 MOL1         0.0736
      11    C5      20.073218   18.063545   22.799917 C.3        1 MOL1        -0.1866
      12    H5      20.696470   17.663704   21.987978 H          1 MOL1         0.0738
      13    H6      20.758902   18.452655   23.565423 H          1 MOL1         0.0738
      14    C6      19.221753   16.927303   23.401154 C.3        1 MOL1        -0.2879
      15    H7      18.611596   17.293616   24.237190 H          1 MOL1         0.0750
      16    H8      18.548441   16.499576   22.646743 H          1 MOL1         0.0750
      17    H9      19.863963   16.120796   23.778307 H          1 MOL1         0.0750
@<TRIPOS>BOND
    1     1     2    1
    2     1     3    2
    3     1     4    1
    4     4     5    1
    5     4     6    2
    6     6     7    1
    7     6     8    1
    8     8     9    1
    9     8    10    1
   10     8    11    1
   11    11    12    1
   12    11    13    1
   13    11    14    1
   14    14    15    1
   15    14    16    1
   16    14    17    1
@<TRIPOS>SUBSTRUCTURE
       1 MOL1            1 RESIDUE      1      MOL     
@<SCITEGIC>MOL_PROPERTY
VConf Rank
SciTegic.value.IntegerValue
541

@<SCITEGIC>MOL_PROPERTY
Conf_Id
SciTegic.value.IntegerValue
36

@<SCITEGIC>MOL_PROPERTY
Delta U+W
SciTegic.value.DoubleValue
0.000

@<SCITEGIC>MOL_PROPERTY
U+W
SciTegic.value.DoubleValue
-53.409

@<SCITEGIC>MOL_PROPERTY
Grad RMS
SciTegic.value.DoubleValue
0.000000

@<SCITEGIC>MOL_PROPERTY
U
SciTegic.value.DoubleValue
9.048

@<SCITEGIC>MOL_PROPERTY
W
SciTegic.value.DoubleValue
-62.457

@<SCITEGIC>MOL_PROPERTY
W(PB)
SciTegic.value.DoubleValue
-64.540

@<SCITEGIC>MOL_PROPERTY
W(SA)
SciTegic.value.DoubleValue
2.084

@<SCITEGIC>MOL_PROPERTY
Valence
SciTegic.value.DoubleValue
2.652

@<SCITEGIC>MOL_PROPERTY
Coulomb
SciTegic.value.DoubleValue
5.578

@<SCITEGIC>MOL_PROPERTY
VdW
SciTegic.value.DoubleValue
0.818

@<SCITEGIC>MOL_PROPERTY
VdW6
SciTegic.value.DoubleValue
-4.534

@<SCITEGIC>MOL_PROPERTY
VdW12
SciTegic.value.DoubleValue
5.352

@<SCITEGIC>MOL_PROPERTY
Bond
SciTegic.value.DoubleValue
0.063

@<SCITEGIC>MOL_PROPERTY
Angle
SciTegic.value.DoubleValue
2.579

@<SCITEGIC>MOL_PROPERTY
Pdih
SciTegic.value.DoubleValue
0.010

@<SCITEGIC>MOL_PROPERTY
Idih
SciTegic.value.DoubleValue
0.000

@<SCITEGIC>MOL_PROPERTY
Tether
SciTegic.value.DoubleValue
0.000

@<TRIPOS>MOLECULE
guest-s19_confgen4.mol2 : confsearch ligand conformer 542
          17          16           1
SMALL
USER_CHARGES
 
@<TRIPOS>ATOM
       1    C1      21.481282   21.816677   20.569026 C.2        1 MOL1         0.6173
       2    O1      22.237149   22.262303   21.411923 O.co2      1 MOL1        -0.6755
       3    O2      21.200979   22.417384   19.550062 O.co2      1 MOL1        -0.6755
       4    C2      20.861468   20.479097   20.771193 C.2        1 MOL1        -0.1504
       5    H1      20.196257   20.139853   19.980423 H          1 MOL1         0.0814
       6    C3      21.082291   19.702233   21.856000 C.2        1 MOL1        -0.1394
       7    H2      21.745188   20.033312   22.655205 H          1 MOL1         0.0817
       8    C4      20.446428   18.343774   22.054761 C.3        1 MOL1        -0.1849
       9    H3      21.073701   17.738249   22.722785 H          1 MOL1         0.0736
      10    H4      20.400516   17.806911   21.097432 H          1 MOL1         0.0736
      11    C5      19.029034   18.468457   22.650130 C.3        1 MOL1        -0.1866
      12    H5      19.077834   19.003817   23.608553 H          1 MOL1         0.0738
      13    H6      18.398918   19.070649   21.980893 H          1 MOL1         0.0738
      14    C6      18.377523   17.087469   22.864445 C.3        1 MOL1        -0.2879
      15    H7      18.971770   16.475611   23.555771 H          1 MOL1         0.0750
      16    H8      17.370714   17.196408   23.288236 H          1 MOL1         0.0750
      17    H9      18.288438   16.543529   21.914904 H          1 MOL1         0.0750
@<TRIPOS>BOND
    1     1     2    1
    2     1     3    2
    3     1     4    1
    4     4     5    1
    5     4     6    2
    6     6     7    1
    7     6     8    1
    8     8     9    1
    9     8    10    1
   10     8    11    1
   11    11    12    1
   12    11    13    1
   13    11    14    1
   14    14    15    1
   15    14    16    1
   16    14    17    1
@<TRIPOS>SUBSTRUCTURE
       1 MOL1            1 RESIDUE      1      MOL     
@<SCITEGIC>MOL_PROPERTY
VConf Rank
SciTegic.value.IntegerValue
542

@<SCITEGIC>MOL_PROPERTY
Conf_Id
SciTegic.value.IntegerValue
1

@<SCITEGIC>MOL_PROPERTY
Delta U+W
SciTegic.value.DoubleValue
0.030

@<SCITEGIC>MOL_PROPERTY
U+W
SciTegic.value.DoubleValue
-53.378

@<SCITEGIC>MOL_PROPERTY
Grad RMS
SciTegic.value.DoubleValue
0.000000

@<SCITEGIC>MOL_PROPERTY
U
SciTegic.value.DoubleValue
9.048

@<SCITEGIC>MOL_PROPERTY
W
SciTegic.value.DoubleValue
-62.426

@<SCITEGIC>MOL_PROPERTY
W(PB)
SciTegic.value.DoubleValue
-64.506

@<SCITEGIC>MOL_PROPERTY
W(SA)
SciTegic.value.DoubleValue
2.080

@<SCITEGIC>MOL_PROPERTY
Valence
SciTegic.value.DoubleValue
2.652

@<SCITEGIC>MOL_PROPERTY
Coulomb
SciTegic.value.DoubleValue
5.578

@<SCITEGIC>MOL_PROPERTY
VdW
SciTegic.value.DoubleValue
0.818

@<SCITEGIC>MOL_PROPERTY
VdW6
SciTegic.value.DoubleValue
-4.535

@<SCITEGIC>MOL_PROPERTY
VdW12
SciTegic.value.DoubleValue
5.352

@<SCITEGIC>MOL_PROPERTY
Bond
SciTegic.value.DoubleValue
0.063

@<SCITEGIC>MOL_PROPERTY
Angle
SciTegic.value.DoubleValue
2.579

@<SCITEGIC>MOL_PROPERTY
Pdih
SciTegic.value.DoubleValue
0.010

@<SCITEGIC>MOL_PROPERTY
Idih
SciTegic.value.DoubleValue
0.000

@<SCITEGIC>MOL_PROPERTY
Tether
SciTegic.value.DoubleValue
0.000

@<TRIPOS>MOLECULE
guest-s19_confgen4.mol2 : confsearch ligand conformer 543
          17          16           1
SMALL
USER_CHARGES
 
@<TRIPOS>ATOM
       1    C1      21.582863   17.119600   20.269115 C.2        1 MOL1         0.6173
       2    O1      21.547339   16.120613   20.962804 O.co2      1 MOL1        -0.6755
       3    O2      21.883855   17.094881   19.091574 O.co2      1 MOL1        -0.6755
       4    C2      21.250899   18.441552   20.866054 C.2        1 MOL1        -0.1504
       5    H1      21.302883   19.293362   20.191905 H          1 MOL1         0.0814
       6    C3      20.898404   18.617097   22.159854 C.2        1 MOL1        -0.1394
       7    H2      20.839872   17.770169   22.843144 H          1 MOL1         0.0817
       8    C4      20.558094   19.965311   22.759455 C.3        1 MOL1        -0.1849
       9    H3      21.251188   20.725324   22.374063 H          1 MOL1         0.0736
      10    H4      20.707593   19.938100   23.847206 H          1 MOL1         0.0736
      11    C5      19.108419   20.397858   22.448154 C.3        1 MOL1        -0.1866
      12    H5      18.952616   21.421888   22.814544 H          1 MOL1         0.0738
      13    H6      18.956129   20.427218   21.360325 H          1 MOL1         0.0738
      14    C6      18.061392   19.465968   23.094705 C.3        1 MOL1        -0.2879
      15    H7      18.186717   19.430976   24.184757 H          1 MOL1         0.0750
      16    H8      17.044844   19.821129   22.881636 H          1 MOL1         0.0750
      17    H9      18.148450   18.442753   22.706538 H          1 MOL1         0.0750
@<TRIPOS>BOND
    1     1     2    1
    2     1     3    2
    3     1     4    1
    4     4     5    1
    5     4     6    2
    6     6     7    1
    7     6     8    1
    8     8     9    1
    9     8    10    1
   10     8    11    1
   11    11    12    1
   12    11    13    1
   13    11    14    1
   14    14    15    1
   15    14    16    1
   16    14    17    1
@<TRIPOS>SUBSTRUCTURE
       1 MOL1            1 RESIDUE      1      MOL     
@<SCITEGIC>MOL_PROPERTY
VConf Rank
SciTegic.value.IntegerValue
543

@<SCITEGIC>MOL_PROPERTY
Conf_Id
SciTegic.value.IntegerValue
3

@<SCITEGIC>MOL_PROPERTY
Delta U+W
SciTegic.value.DoubleValue
0.531

@<SCITEGIC>MOL_PROPERTY
U+W
SciTegic.value.DoubleValue
-52.878

@<SCITEGIC>MOL_PROPERTY
Grad RMS
SciTegic.value.DoubleValue
0.000000

@<SCITEGIC>MOL_PROPERTY
U
SciTegic.value.DoubleValue
10.067

@<SCITEGIC>MOL_PROPERTY
W
SciTegic.value.DoubleValue
-62.945

@<SCITEGIC>MOL_PROPERTY
W(PB)
SciTegic.value.DoubleValue
-64.982

@<SCITEGIC>MOL_PROPERTY
W(SA)
SciTegic.value.DoubleValue
2.037

@<SCITEGIC>MOL_PROPERTY
Valence
SciTegic.value.DoubleValue
2.779

@<SCITEGIC>MOL_PROPERTY
Coulomb
SciTegic.value.DoubleValue
6.474

@<SCITEGIC>MOL_PROPERTY
VdW
SciTegic.value.DoubleValue
0.815

@<SCITEGIC>MOL_PROPERTY
VdW6
SciTegic.value.DoubleValue
-5.088

@<SCITEGIC>MOL_PROPERTY
VdW12
SciTegic.value.DoubleValue
5.902

@<SCITEGIC>MOL_PROPERTY
Bond
SciTegic.value.DoubleValue
0.078

@<SCITEGIC>MOL_PROPERTY
Angle
SciTegic.value.DoubleValue
2.651

@<SCITEGIC>MOL_PROPERTY
Pdih
SciTegic.value.DoubleValue
0.050

@<SCITEGIC>MOL_PROPERTY
Idih
SciTegic.value.DoubleValue
0.000

@<SCITEGIC>MOL_PROPERTY
Tether
SciTegic.value.DoubleValue
0.000

@<TRIPOS>MOLECULE
guest-s19_confgen4.mol2 : confsearch ligand conformer 544
          17          16           1
SMALL
USER_CHARGES
 
@<TRIPOS>ATOM
       1    C1      21.582643   17.434377   20.135583 C.2        1 MOL1         0.6173
       2    O1      22.701062   16.972479   20.252072 O.co2      1 MOL1        -0.6755
       3    O2      21.046523   17.601969   19.056261 O.co2      1 MOL1        -0.6755
       4    C2      20.856745   17.800013   21.381959 C.2        1 MOL1        -0.1504
       5    H1      21.393145   17.624515   22.311573 H          1 MOL1         0.0814
       6    C3      19.610235   18.324805   21.401670 C.2        1 MOL1        -0.1394
       7    H2      19.067133   18.507276   20.474705 H          1 MOL1         0.0817
       8    C4      18.874910   18.698597   22.672069 C.3        1 MOL1        -0.1849
       9    H3      19.338476   18.215853   23.543163 H          1 MOL1         0.0736
      10    H4      17.848466   18.311802   22.619042 H          1 MOL1         0.0736
      11    C5      18.823623   20.226436   22.891711 C.3        1 MOL1        -0.1866
      12    H5      18.362427   20.710383   22.019614 H          1 MOL1         0.0738
      13    H6      18.174157   20.443448   23.750954 H          1 MOL1         0.0738
      14    C6      20.218055   20.836700   23.148555 C.3        1 MOL1        -0.2879
      15    H7      20.877788   20.695758   22.282564 H          1 MOL1         0.0750
      16    H8      20.138554   21.914832   23.338754 H          1 MOL1         0.0750
      17    H9      20.694937   20.372478   24.021581 H          1 MOL1         0.0750
@<TRIPOS>BOND
    1     1     2    1
    2     1     3    2
    3     1     4    1
    4     4     5    1
    5     4     6    2
    6     6     7    1
    7     6     8    1
    8     8     9    1
    9     8    10    1
   10     8    11    1
   11    11    12    1
   12    11    13    1
   13    11    14    1
   14    14    15    1
   15    14    16    1
   16    14    17    1
@<TRIPOS>SUBSTRUCTURE
       1 MOL1            1 RESIDUE      1      MOL     
@<SCITEGIC>MOL_PROPERTY
VConf Rank
SciTegic.value.IntegerValue
544

@<SCITEGIC>MOL_PROPERTY
Conf_Id
SciTegic.value.IntegerValue
45

@<SCITEGIC>MOL_PROPERTY
Delta U+W
SciTegic.value.DoubleValue
0.562

@<SCITEGIC>MOL_PROPERTY
U+W
SciTegic.value.DoubleValue
-52.846

@<SCITEGIC>MOL_PROPERTY
Grad RMS
SciTegic.value.DoubleValue
0.000000

@<SCITEGIC>MOL_PROPERTY
U
SciTegic.value.DoubleValue
10.243

@<SCITEGIC>MOL_PROPERTY
W
SciTegic.value.DoubleValue
-63.089

@<SCITEGIC>MOL_PROPERTY
W(PB)
SciTegic.value.DoubleValue
-65.116

@<SCITEGIC>MOL_PROPERTY
W(SA)
SciTegic.value.DoubleValue
2.026

@<SCITEGIC>MOL_PROPERTY
Valence
SciTegic.value.DoubleValue
2.822

@<SCITEGIC>MOL_PROPERTY
Coulomb
SciTegic.value.DoubleValue
6.637

@<SCITEGIC>MOL_PROPERTY
VdW
SciTegic.value.DoubleValue
0.785

@<SCITEGIC>MOL_PROPERTY
VdW6
SciTegic.value.DoubleValue
-5.216

@<SCITEGIC>MOL_PROPERTY
VdW12
SciTegic.value.DoubleValue
6.001

@<SCITEGIC>MOL_PROPERTY
Bond
SciTegic.value.DoubleValue
0.080

@<SCITEGIC>MOL_PROPERTY
Angle
SciTegic.value.DoubleValue
2.678

@<SCITEGIC>MOL_PROPERTY
Pdih
SciTegic.value.DoubleValue
0.064

@<SCITEGIC>MOL_PROPERTY
Idih
SciTegic.value.DoubleValue
0.000

@<SCITEGIC>MOL_PROPERTY
Tether
SciTegic.value.DoubleValue
0.000

@<TRIPOS>MOLECULE
guest-s19_confgen4.mol2 : confsearch ligand conformer 545
          17          16           1
SMALL
USER_CHARGES
 
@<TRIPOS>ATOM
       1    C1      22.914283   17.487922   22.348050 C.2        1 MOL1         0.6173
       2    O1      23.111070   16.346878   22.718179 O.co2      1 MOL1        -0.6755
       3    O2      23.796695   18.323187   22.284200 O.co2      1 MOL1        -0.6755
       4    C2      21.525458   17.854972   21.959979 C.2        1 MOL1        -0.1504
       5    H1      20.785073   17.062313   22.040171 H          1 MOL1         0.0814
       6    C3      21.162799   19.085445   21.531609 C.2        1 MOL1        -0.1394
       7    H2      21.896039   19.887589   21.449773 H          1 MOL1         0.0817
       8    C4      19.747569   19.451111   21.140903 C.3        1 MOL1        -0.1849
       9    H3      19.276433   18.613334   20.608955 H          1 MOL1         0.0736
      10    H4      19.766351   20.295836   20.439138 H          1 MOL1         0.0736
      11    C5      18.902449   19.824780   22.375875 C.3        1 MOL1        -0.1866
      12    H5      18.879162   18.979079   23.077166 H          1 MOL1         0.0738
      13    H6      19.374571   20.664198   22.905069 H          1 MOL1         0.0738
      14    C6      17.460921   20.207969   21.985119 C.3        1 MOL1        -0.2879
      15    H7      17.453817   21.072450   21.308322 H          1 MOL1         0.0750
      16    H8      16.955560   19.373664   21.481155 H          1 MOL1         0.0750
      17    H9      16.875500   20.470308   22.875956 H          1 MOL1         0.0750
@<TRIPOS>BOND
    1     1     2    1
    2     1     3    2
    3     1     4    1
    4     4     5    1
    5     4     6    2
    6     6     7    1
    7     6     8    1
    8     8     9    1
    9     8    10    1
   10     8    11    1
   11    11    12    1
   12    11    13    1
   13    11    14    1
   14    14    15    1
   15    14    16    1
   16    14    17    1
@<TRIPOS>SUBSTRUCTURE
       1 MOL1            1 RESIDUE      1      MOL     
@<SCITEGIC>MOL_PROPERTY
VConf Rank
SciTegic.value.IntegerValue
545

@<SCITEGIC>MOL_PROPERTY
Conf_Id
SciTegic.value.IntegerValue
36

@<SCITEGIC>MOL_PROPERTY
Delta U+W
SciTegic.value.DoubleValue
0.000

@<SCITEGIC>MOL_PROPERTY
U+W
SciTegic.value.DoubleValue
-53.409

@<SCITEGIC>MOL_PROPERTY
Grad RMS
SciTegic.value.DoubleValue
0.000000

@<SCITEGIC>MOL_PROPERTY
U
SciTegic.value.DoubleValue
9.048

@<SCITEGIC>MOL_PROPERTY
W
SciTegic.value.DoubleValue
-62.457

@<SCITEGIC>MOL_PROPERTY
W(PB)
SciTegic.value.DoubleValue
-64.540

@<SCITEGIC>MOL_PROPERTY
W(SA)
SciTegic.value.DoubleValue
2.084

@<SCITEGIC>MOL_PROPERTY
Valence
SciTegic.value.DoubleValue
2.652

@<SCITEGIC>MOL_PROPERTY
Coulomb
SciTegic.value.DoubleValue
5.578

@<SCITEGIC>MOL_PROPERTY
VdW
SciTegic.value.DoubleValue
0.818

@<SCITEGIC>MOL_PROPERTY
VdW6
SciTegic.value.DoubleValue
-4.534

@<SCITEGIC>MOL_PROPERTY
VdW12
SciTegic.value.DoubleValue
5.352

@<SCITEGIC>MOL_PROPERTY
Bond
SciTegic.value.DoubleValue
0.063

@<SCITEGIC>MOL_PROPERTY
Angle
SciTegic.value.DoubleValue
2.579

@<SCITEGIC>MOL_PROPERTY
Pdih
SciTegic.value.DoubleValue
0.010

@<SCITEGIC>MOL_PROPERTY
Idih
SciTegic.value.DoubleValue
0.000

@<SCITEGIC>MOL_PROPERTY
Tether
SciTegic.value.DoubleValue
0.000

@<TRIPOS>MOLECULE
guest-s19_confgen4.mol2 : confsearch ligand conformer 546
          17          16           1
SMALL
USER_CHARGES
 
@<TRIPOS>ATOM
       1    C1      17.266245   17.624030   23.205217 C.2        1 MOL1         0.6173
       2    O1      17.046892   18.163815   24.273351 O.co2      1 MOL1        -0.6755
       3    O2      16.693541   16.613605   22.846391 O.co2      1 MOL1        -0.6755
       4    C2      18.274378   18.208391   22.279825 C.2        1 MOL1        -0.1504
       5    H1      18.422135   17.677285   21.342273 H          1 MOL1         0.0814
       6    C3      18.986012   19.326483   22.549148 C.2        1 MOL1        -0.1394
       7    H2      18.847486   19.865194   23.486364 H          1 MOL1         0.0817
       8    C4      20.010850   19.913183   21.603247 C.3        1 MOL1        -0.1849
       9    H3      20.121401   20.987869   21.801279 H          1 MOL1         0.0736
      10    H4      19.660808   19.820932   20.566055 H          1 MOL1         0.0736
      11    C5      21.378863   19.217057   21.754794 C.3        1 MOL1        -0.1866
      12    H5      21.727855   19.312550   22.792413 H          1 MOL1         0.0738
      13    H6      21.270801   18.142280   21.552960 H          1 MOL1         0.0738
      14    C6      22.431636   19.815676   20.800409 C.3        1 MOL1        -0.2879
      15    H7      22.582477   20.884311   21.002148 H          1 MOL1         0.0750
      16    H8      23.397389   19.308210   20.922593 H          1 MOL1         0.0750
      17    H9      22.120724   19.704861   19.753275 H          1 MOL1         0.0750
@<TRIPOS>BOND
    1     1     2    1
    2     1     3    2
    3     1     4    1
    4     4     5    1
    5     4     6    2
    6     6     7    1
    7     6     8    1
    8     8     9    1
    9     8    10    1
   10     8    11    1
   11    11    12    1
   12    11    13    1
   13    11    14    1
   14    14    15    1
   15    14    16    1
   16    14    17    1
@<TRIPOS>SUBSTRUCTURE
       1 MOL1            1 RESIDUE      1      MOL     
@<SCITEGIC>MOL_PROPERTY
VConf Rank
SciTegic.value.IntegerValue
546

@<SCITEGIC>MOL_PROPERTY
Conf_Id
SciTegic.value.IntegerValue
1

@<SCITEGIC>MOL_PROPERTY
Delta U+W
SciTegic.value.DoubleValue
0.030

@<SCITEGIC>MOL_PROPERTY
U+W
SciTegic.value.DoubleValue
-53.378

@<SCITEGIC>MOL_PROPERTY
Grad RMS
SciTegic.value.DoubleValue
0.000000

@<SCITEGIC>MOL_PROPERTY
U
SciTegic.value.DoubleValue
9.048

@<SCITEGIC>MOL_PROPERTY
W
SciTegic.value.DoubleValue
-62.426

@<SCITEGIC>MOL_PROPERTY
W(PB)
SciTegic.value.DoubleValue
-64.506

@<SCITEGIC>MOL_PROPERTY
W(SA)
SciTegic.value.DoubleValue
2.080

@<SCITEGIC>MOL_PROPERTY
Valence
SciTegic.value.DoubleValue
2.652

@<SCITEGIC>MOL_PROPERTY
Coulomb
SciTegic.value.DoubleValue
5.578

@<SCITEGIC>MOL_PROPERTY
VdW
SciTegic.value.DoubleValue
0.818

@<SCITEGIC>MOL_PROPERTY
VdW6
SciTegic.value.DoubleValue
-4.535

@<SCITEGIC>MOL_PROPERTY
VdW12
SciTegic.value.DoubleValue
5.352

@<SCITEGIC>MOL_PROPERTY
Bond
SciTegic.value.DoubleValue
0.063

@<SCITEGIC>MOL_PROPERTY
Angle
SciTegic.value.DoubleValue
2.579

@<SCITEGIC>MOL_PROPERTY
Pdih
SciTegic.value.DoubleValue
0.010

@<SCITEGIC>MOL_PROPERTY
Idih
SciTegic.value.DoubleValue
0.000

@<SCITEGIC>MOL_PROPERTY
Tether
SciTegic.value.DoubleValue
0.000

@<TRIPOS>MOLECULE
guest-s19_confgen4.mol2 : confsearch ligand conformer 547
          17          16           1
SMALL
USER_CHARGES
 
@<TRIPOS>ATOM
       1    C1      20.577531   21.875414   23.239913 C.2        1 MOL1         0.6173
       2    O1      20.328712   22.578038   22.278222 O.co2      1 MOL1        -0.6755
       3    O2      20.672034   22.313124   24.370086 O.co2      1 MOL1        -0.6755
       4    C2      20.782705   20.414001   23.049472 C.2        1 MOL1        -0.1504
       5    H1      21.002586   19.844257   23.949363 H          1 MOL1         0.0814
       6    C3      20.706189   19.792099   21.850985 C.2        1 MOL1        -0.1394
       7    H2      20.483145   20.352750   20.943505 H          1 MOL1         0.0817
       8    C4      20.912405   18.303456   21.665432 C.3        1 MOL1        -0.1849
       9    H3      21.745905   17.965667   22.296070 H          1 MOL1         0.0736
      10    H4      21.208650   18.094410   20.628691 H          1 MOL1         0.0736
      11    C5      19.649085   17.486986   22.016088 C.3        1 MOL1        -0.1866
      12    H5      19.888164   16.415810   21.965320 H          1 MOL1         0.0738
      13    H6      19.350909   17.693139   23.053402 H          1 MOL1         0.0738
      14    C6      18.469209   17.786074   21.066797 C.3        1 MOL1        -0.2879
      15    H7      18.740708   17.574914   20.024279 H          1 MOL1         0.0750
      16    H8      17.600792   17.165587   21.323224 H          1 MOL1         0.0750
      17    H9      18.162828   18.838073   21.134984 H          1 MOL1         0.0750
@<TRIPOS>BOND
    1     1     2    1
    2     1     3    2
    3     1     4    1
    4     4     5    1
    5     4     6    2
    6     6     7    1
    7     6     8    1
    8     8     9    1
    9     8    10    1
   10     8    11    1
   11    11    12    1
   12    11    13    1
   13    11    14    1
   14    14    15    1
   15    14    16    1
   16    14    17    1
@<TRIPOS>SUBSTRUCTURE
       1 MOL1            1 RESIDUE      1      MOL     
@<SCITEGIC>MOL_PROPERTY
VConf Rank
SciTegic.value.IntegerValue
547

@<SCITEGIC>MOL_PROPERTY
Conf_Id
SciTegic.value.IntegerValue
3

@<SCITEGIC>MOL_PROPERTY
Delta U+W
SciTegic.value.DoubleValue
0.531

@<SCITEGIC>MOL_PROPERTY
U+W
SciTegic.value.DoubleValue
-52.878

@<SCITEGIC>MOL_PROPERTY
Grad RMS
SciTegic.value.DoubleValue
0.000000

@<SCITEGIC>MOL_PROPERTY
U
SciTegic.value.DoubleValue
10.067

@<SCITEGIC>MOL_PROPERTY
W
SciTegic.value.DoubleValue
-62.945

@<SCITEGIC>MOL_PROPERTY
W(PB)
SciTegic.value.DoubleValue
-64.982

@<SCITEGIC>MOL_PROPERTY
W(SA)
SciTegic.value.DoubleValue
2.037

@<SCITEGIC>MOL_PROPERTY
Valence
SciTegic.value.DoubleValue
2.779

@<SCITEGIC>MOL_PROPERTY
Coulomb
SciTegic.value.DoubleValue
6.474

@<SCITEGIC>MOL_PROPERTY
VdW
SciTegic.value.DoubleValue
0.815

@<SCITEGIC>MOL_PROPERTY
VdW6
SciTegic.value.DoubleValue
-5.088

@<SCITEGIC>MOL_PROPERTY
VdW12
SciTegic.value.DoubleValue
5.902

@<SCITEGIC>MOL_PROPERTY
Bond
SciTegic.value.DoubleValue
0.078

@<SCITEGIC>MOL_PROPERTY
Angle
SciTegic.value.DoubleValue
2.651

@<SCITEGIC>MOL_PROPERTY
Pdih
SciTegic.value.DoubleValue
0.050

@<SCITEGIC>MOL_PROPERTY
Idih
SciTegic.value.DoubleValue
0.000

@<SCITEGIC>MOL_PROPERTY
Tether
SciTegic.value.DoubleValue
0.000

@<TRIPOS>MOLECULE
guest-s19_confgen4.mol2 : confsearch ligand conformer 548
          17          16           1
SMALL
USER_CHARGES
 
@<TRIPOS>ATOM
       1    C1      18.881911   19.509334   24.860657 C.2        1 MOL1         0.6173
       2    O1      18.416696   18.697931   25.637176 O.co2      1 MOL1        -0.6755
       3    O2      18.658769   20.702782   24.940259 O.co2      1 MOL1        -0.6755
       4    C2      19.762145   18.996495   23.776104 C.2        1 MOL1        -0.1504
       5    H1      19.919854   17.920551   23.762731 H          1 MOL1         0.0814
       6    C3      20.344652   19.783479   22.842869 C.2        1 MOL1        -0.1394
       7    H2      20.188967   20.862027   22.846772 H          1 MOL1         0.0817
       8    C4      21.238080   19.258098   21.738290 C.3        1 MOL1        -0.1849
       9    H3      21.588563   18.244068   21.974184 H          1 MOL1         0.0736
      10    H4      22.137495   19.885151   21.676091 H          1 MOL1         0.0736
      11    C5      20.532537   19.256761   20.364473 C.3        1 MOL1        -0.1866
      12    H5      20.179282   20.270261   20.128914 H          1 MOL1         0.0738
      13    H6      21.261888   18.990123   19.587202 H          1 MOL1         0.0738
      14    C6      19.349800   18.266586   20.305159 C.3        1 MOL1        -0.2879
      15    H7      18.568222   18.539388   21.026109 H          1 MOL1         0.0750
      16    H8      18.898279   18.263996   19.304665 H          1 MOL1         0.0750
      17    H9      19.681740   17.244687   20.530173 H          1 MOL1         0.0750
@<TRIPOS>BOND
    1     1     2    1
    2     1     3    2
    3     1     4    1
    4     4     5    1
    5     4     6    2
    6     6     7    1
    7     6     8    1
    8     8     9    1
    9     8    10    1
   10     8    11    1
   11    11    12    1
   12    11    13    1
   13    11    14    1
   14    14    15    1
   15    14    16    1
   16    14    17    1
@<TRIPOS>SUBSTRUCTURE
       1 MOL1            1 RESIDUE      1      MOL     
@<SCITEGIC>MOL_PROPERTY
VConf Rank
SciTegic.value.IntegerValue
548

@<SCITEGIC>MOL_PROPERTY
Conf_Id
SciTegic.value.IntegerValue
45

@<SCITEGIC>MOL_PROPERTY
Delta U+W
SciTegic.value.DoubleValue
0.562

@<SCITEGIC>MOL_PROPERTY
U+W
SciTegic.value.DoubleValue
-52.846

@<SCITEGIC>MOL_PROPERTY
Grad RMS
SciTegic.value.DoubleValue
0.000000

@<SCITEGIC>MOL_PROPERTY
U
SciTegic.value.DoubleValue
10.243

@<SCITEGIC>MOL_PROPERTY
W
SciTegic.value.DoubleValue
-63.089

@<SCITEGIC>MOL_PROPERTY
W(PB)
SciTegic.value.DoubleValue
-65.116

@<SCITEGIC>MOL_PROPERTY
W(SA)
SciTegic.value.DoubleValue
2.026

@<SCITEGIC>MOL_PROPERTY
Valence
SciTegic.value.DoubleValue
2.822

@<SCITEGIC>MOL_PROPERTY
Coulomb
SciTegic.value.DoubleValue
6.637

@<SCITEGIC>MOL_PROPERTY
VdW
SciTegic.value.DoubleValue
0.785

@<SCITEGIC>MOL_PROPERTY
VdW6
SciTegic.value.DoubleValue
-5.216

@<SCITEGIC>MOL_PROPERTY
VdW12
SciTegic.value.DoubleValue
6.001

@<SCITEGIC>MOL_PROPERTY
Bond
SciTegic.value.DoubleValue
0.080

@<SCITEGIC>MOL_PROPERTY
Angle
SciTegic.value.DoubleValue
2.678

@<SCITEGIC>MOL_PROPERTY
Pdih
SciTegic.value.DoubleValue
0.064

@<SCITEGIC>MOL_PROPERTY
Idih
SciTegic.value.DoubleValue
0.000

@<SCITEGIC>MOL_PROPERTY
Tether
SciTegic.value.DoubleValue
0.000

@<TRIPOS>MOLECULE
guest-s19_confgen4.mol2 : confsearch ligand conformer 549
          17          16           1
SMALL
USER_CHARGES
 
@<TRIPOS>ATOM
       1    C1      18.218644   20.454907   24.451413 C.2        1 MOL1         0.6173
       2    O1      17.081370   20.884221   24.452651 O.co2      1 MOL1        -0.6755
       3    O2      19.000895   20.653936   25.361833 O.co2      1 MOL1        -0.6755
       4    C2      18.649323   19.652458   23.274657 C.2        1 MOL1        -0.1504
       5    H1      17.902224   19.512119   22.496803 H          1 MOL1         0.0814
       6    C3      19.883131   19.115329   23.139405 C.2        1 MOL1        -0.1394
       7    H2      20.640038   19.251764   23.911578 H          1 MOL1         0.0817
       8    C4      20.313812   18.302258   21.938294 C.3        1 MOL1        -0.1849
       9    H3      19.486319   17.663260   21.601033 H          1 MOL1         0.0736
      10    H4      21.132347   17.628220   22.224759 H          1 MOL1         0.0736
      11    C5      20.774865   19.211137   20.780545 C.3        1 MOL1        -0.1866
      12    H5      19.955592   19.883349   20.489886 H          1 MOL1         0.0738
      13    H6      21.603849   19.847794   21.119693 H          1 MOL1         0.0738
      14    C6      21.224494   18.389659   19.555583 C.3        1 MOL1        -0.2879
      15    H7      22.065015   17.731108   19.811055 H          1 MOL1         0.0750
      16    H8      20.403301   17.766684   19.177454 H          1 MOL1         0.0750
      17    H9      21.548534   19.052833   18.742977 H          1 MOL1         0.0750
@<TRIPOS>BOND
    1     1     2    1
    2     1     3    2
    3     1     4    1
    4     4     5    1
    5     4     6    2
    6     6     7    1
    7     6     8    1
    8     8     9    1
    9     8    10    1
   10     8    11    1
   11    11    12    1
   12    11    13    1
   13    11    14    1
   14    14    15    1
   15    14    16    1
   16    14    17    1
@<TRIPOS>SUBSTRUCTURE
       1 MOL1            1 RESIDUE      1      MOL     
@<SCITEGIC>MOL_PROPERTY
VConf Rank
SciTegic.value.IntegerValue
549

@<SCITEGIC>MOL_PROPERTY
Conf_Id
SciTegic.value.IntegerValue
36

@<SCITEGIC>MOL_PROPERTY
Delta U+W
SciTegic.value.DoubleValue
0.000

@<SCITEGIC>MOL_PROPERTY
U+W
SciTegic.value.DoubleValue
-53.409

@<SCITEGIC>MOL_PROPERTY
Grad RMS
SciTegic.value.DoubleValue
0.000000

@<SCITEGIC>MOL_PROPERTY
U
SciTegic.value.DoubleValue
9.048

@<SCITEGIC>MOL_PROPERTY
W
SciTegic.value.DoubleValue
-62.457

@<SCITEGIC>MOL_PROPERTY
W(PB)
SciTegic.value.DoubleValue
-64.540

@<SCITEGIC>MOL_PROPERTY
W(SA)
SciTegic.value.DoubleValue
2.084

@<SCITEGIC>MOL_PROPERTY
Valence
SciTegic.value.DoubleValue
2.652

@<SCITEGIC>MOL_PROPERTY
Coulomb
SciTegic.value.DoubleValue
5.578

@<SCITEGIC>MOL_PROPERTY
VdW
SciTegic.value.DoubleValue
0.818

@<SCITEGIC>MOL_PROPERTY
VdW6
SciTegic.value.DoubleValue
-4.534

@<SCITEGIC>MOL_PROPERTY
VdW12
SciTegic.value.DoubleValue
5.352

@<SCITEGIC>MOL_PROPERTY
Bond
SciTegic.value.DoubleValue
0.063

@<SCITEGIC>MOL_PROPERTY
Angle
SciTegic.value.DoubleValue
2.579

@<SCITEGIC>MOL_PROPERTY
Pdih
SciTegic.value.DoubleValue
0.010

@<SCITEGIC>MOL_PROPERTY
Idih
SciTegic.value.DoubleValue
0.000

@<SCITEGIC>MOL_PROPERTY
Tether
SciTegic.value.DoubleValue
0.000

@<TRIPOS>MOLECULE
guest-s19_confgen4.mol2 : confsearch ligand conformer 550
          17          16           1
SMALL
USER_CHARGES
 
@<TRIPOS>ATOM
       1    C1      19.596838   15.838026   22.692582 C.2        1 MOL1         0.6173
       2    O1      20.100575   15.670083   23.787314 O.co2      1 MOL1        -0.6755
       3    O2      19.231260   14.918741   21.986202 O.co2      1 MOL1        -0.6755
       4    C2      19.408242   17.220167   22.174622 C.2        1 MOL1        -0.1504
       5    H1      18.952454   17.300067   21.190355 H          1 MOL1         0.0814
       6    C3      19.768671   18.334361   22.851193 C.2        1 MOL1        -0.1394
       7    H2      20.228104   18.265740   23.837087 H          1 MOL1         0.0817
       8    C4      19.575049   19.736410   22.316397 C.3        1 MOL1        -0.1849
       9    H3      19.514332   20.444406   23.153919 H          1 MOL1         0.0736
      10    H4      18.619133   19.804853   21.779417 H          1 MOL1         0.0736
      11    C5      20.729416   20.144428   21.378326 C.3        1 MOL1        -0.1866
      12    H5      21.684149   20.077253   21.918270 H          1 MOL1         0.0738
      13    H6      20.788951   19.439372   20.537545 H          1 MOL1         0.0738
      14    C6      20.544205   21.575967   20.836185 C.3        1 MOL1        -0.2879
      15    H7      20.513231   22.305702   21.655916 H          1 MOL1         0.0750
      16    H8      21.374353   21.848191   20.171445 H          1 MOL1         0.0750
      17    H9      19.610527   21.661965   20.264971 H          1 MOL1         0.0750
@<TRIPOS>BOND
    1     1     2    1
    2     1     3    2
    3     1     4    1
    4     4     5    1
    5     4     6    2
    6     6     7    1
    7     6     8    1
    8     8     9    1
    9     8    10    1
   10     8    11    1
   11    11    12    1
   12    11    13    1
   13    11    14    1
   14    14    15    1
   15    14    16    1
   16    14    17    1
@<TRIPOS>SUBSTRUCTURE
       1 MOL1            1 RESIDUE      1      MOL     
@<SCITEGIC>MOL_PROPERTY
VConf Rank
SciTegic.value.IntegerValue
550

@<SCITEGIC>MOL_PROPERTY
Conf_Id
SciTegic.value.IntegerValue
1

@<SCITEGIC>MOL_PROPERTY
Delta U+W
SciTegic.value.DoubleValue
0.030

@<SCITEGIC>MOL_PROPERTY
U+W
SciTegic.value.DoubleValue
-53.378

@<SCITEGIC>MOL_PROPERTY
Grad RMS
SciTegic.value.DoubleValue
0.000000

@<SCITEGIC>MOL_PROPERTY
U
SciTegic.value.DoubleValue
9.048

@<SCITEGIC>MOL_PROPERTY
W
SciTegic.value.DoubleValue
-62.426

@<SCITEGIC>MOL_PROPERTY
W(PB)
SciTegic.value.DoubleValue
-64.506

@<SCITEGIC>MOL_PROPERTY
W(SA)
SciTegic.value.DoubleValue
2.080

@<SCITEGIC>MOL_PROPERTY
Valence
SciTegic.value.DoubleValue
2.652

@<SCITEGIC>MOL_PROPERTY
Coulomb
SciTegic.value.DoubleValue
5.578

@<SCITEGIC>MOL_PROPERTY
VdW
SciTegic.value.DoubleValue
0.818

@<SCITEGIC>MOL_PROPERTY
VdW6
SciTegic.value.DoubleValue
-4.535

@<SCITEGIC>MOL_PROPERTY
VdW12
SciTegic.value.DoubleValue
5.352

@<SCITEGIC>MOL_PROPERTY
Bond
SciTegic.value.DoubleValue
0.063

@<SCITEGIC>MOL_PROPERTY
Angle
SciTegic.value.DoubleValue
2.579

@<SCITEGIC>MOL_PROPERTY
Pdih
SciTegic.value.DoubleValue
0.010

@<SCITEGIC>MOL_PROPERTY
Idih
SciTegic.value.DoubleValue
0.000

@<SCITEGIC>MOL_PROPERTY
Tether
SciTegic.value.DoubleValue
0.000

@<TRIPOS>MOLECULE
guest-s19_confgen4.mol2 : confsearch ligand conformer 551
          17          16           1
SMALL
USER_CHARGES
 
@<TRIPOS>ATOM
       1    C1      20.517438   16.696771   23.929685 C.2        1 MOL1         0.6173
       2    O1      21.665396   16.422537   23.634003 O.co2      1 MOL1        -0.6755
       3    O2      19.977727   16.280000   24.936077 O.co2      1 MOL1        -0.6755
       4    C2      19.717535   17.576044   23.034629 C.2        1 MOL1        -0.1504
       5    H1      18.699140   17.780771   23.356685 H          1 MOL1         0.0814
       6    C3      20.189338   18.110997   21.885624 C.2        1 MOL1        -0.1394
       7    H2      21.209197   17.915169   21.555264 H          1 MOL1         0.0817
       8    C4      19.370449   19.008316   20.981602 C.3        1 MOL1        -0.1849
       9    H3      18.344423   18.622525   20.911153 H          1 MOL1         0.0736
      10    H4      19.777981   18.982305   19.962026 H          1 MOL1         0.0736
      11    C5      19.328949   20.468262   21.483993 C.3        1 MOL1        -0.1866
      12    H5      18.639458   21.045792   20.852951 H          1 MOL1         0.0738
      13    H6      18.920408   20.497648   22.503630 H          1 MOL1         0.0738
      14    C6      20.717851   21.141410   21.460844 C.3        1 MOL1        -0.2879
      15    H7      21.140596   21.134814   20.447736 H          1 MOL1         0.0750
      16    H8      20.646082   22.185685   21.791366 H          1 MOL1         0.0750
      17    H9      21.419590   20.624752   22.128564 H          1 MOL1         0.0750
@<TRIPOS>BOND
    1     1     2    1
    2     1     3    2
    3     1     4    1
    4     4     5    1
    5     4     6    2
    6     6     7    1
    7     6     8    1
    8     8     9    1
    9     8    10    1
   10     8    11    1
   11    11    12    1
   12    11    13    1
   13    11    14    1
   14    14    15    1
   15    14    16    1
   16    14    17    1
@<TRIPOS>SUBSTRUCTURE
       1 MOL1            1 RESIDUE      1      MOL     
@<SCITEGIC>MOL_PROPERTY
VConf Rank
SciTegic.value.IntegerValue
551

@<SCITEGIC>MOL_PROPERTY
Conf_Id
SciTegic.value.IntegerValue
3

@<SCITEGIC>MOL_PROPERTY
Delta U+W
SciTegic.value.DoubleValue
0.531

@<SCITEGIC>MOL_PROPERTY
U+W
SciTegic.value.DoubleValue
-52.878

@<SCITEGIC>MOL_PROPERTY
Grad RMS
SciTegic.value.DoubleValue
0.000000

@<SCITEGIC>MOL_PROPERTY
U
SciTegic.value.DoubleValue
10.067

@<SCITEGIC>MOL_PROPERTY
W
SciTegic.value.DoubleValue
-62.945

@<SCITEGIC>MOL_PROPERTY
W(PB)
SciTegic.value.DoubleValue
-64.982

@<SCITEGIC>MOL_PROPERTY
W(SA)
SciTegic.value.DoubleValue
2.037

@<SCITEGIC>MOL_PROPERTY
Valence
SciTegic.value.DoubleValue
2.779

@<SCITEGIC>MOL_PROPERTY
Coulomb
SciTegic.value.DoubleValue
6.474

@<SCITEGIC>MOL_PROPERTY
VdW
SciTegic.value.DoubleValue
0.815

@<SCITEGIC>MOL_PROPERTY
VdW6
SciTegic.value.DoubleValue
-5.088

@<SCITEGIC>MOL_PROPERTY
VdW12
SciTegic.value.DoubleValue
5.902

@<SCITEGIC>MOL_PROPERTY
Bond
SciTegic.value.DoubleValue
0.078

@<SCITEGIC>MOL_PROPERTY
Angle
SciTegic.value.DoubleValue
2.651

@<SCITEGIC>MOL_PROPERTY
Pdih
SciTegic.value.DoubleValue
0.050

@<SCITEGIC>MOL_PROPERTY
Idih
SciTegic.value.DoubleValue
0.000

@<SCITEGIC>MOL_PROPERTY
Tether
SciTegic.value.DoubleValue
0.000

@<TRIPOS>MOLECULE
guest-s19_confgen4.mol2 : confsearch ligand conformer 552
          17          16           1
SMALL
USER_CHARGES
 
@<TRIPOS>ATOM
       1    C1      19.210494   20.842347   19.732807 C.2        1 MOL1         0.6173
       2    O1      18.521939   21.843789   19.704782 O.co2      1 MOL1        -0.6755
       3    O2      19.424450   20.160311   18.748177 O.co2      1 MOL1        -0.6755
       4    C2      19.809265   20.456245   21.039126 C.2        1 MOL1        -0.1504
       5    H1      19.578108   21.108912   21.877755 H          1 MOL1         0.0814
       6    C3      20.592543   19.367898   21.216780 C.2        1 MOL1        -0.1394
       7    H2      20.826121   18.706629   20.382704 H          1 MOL1         0.0817
       8    C4      21.198428   18.975904   22.548538 C.3        1 MOL1        -0.1849
       9    H3      21.179518   19.824128   23.246319 H          1 MOL1         0.0736
      10    H4      22.257495   18.725836   22.400708 H          1 MOL1         0.0736
      11    C5      20.481926   17.764645   23.184654 C.3        1 MOL1        -0.1866
      12    H5      20.498071   16.916479   22.486219 H          1 MOL1         0.0738
      13    H6      21.038647   17.446926   24.077018 H          1 MOL1         0.0738
      14    C6      19.025285   18.080075   23.586566 C.3        1 MOL1        -0.2879
      15    H7      18.419580   18.340118   22.708754 H          1 MOL1         0.0750
      16    H8      18.561186   17.210565   24.069711 H          1 MOL1         0.0750
      17    H9      18.985822   18.920913   24.291212 H          1 MOL1         0.0750
@<TRIPOS>BOND
    1     1     2    1
    2     1     3    2
    3     1     4    1
    4     4     5    1
    5     4     6    2
    6     6     7    1
    7     6     8    1
    8     8     9    1
    9     8    10    1
   10     8    11    1
   11    11    12    1
   12    11    13    1
   13    11    14    1
   14    14    15    1
   15    14    16    1
   16    14    17    1
@<TRIPOS>SUBSTRUCTURE
       1 MOL1            1 RESIDUE      1      MOL     
@<SCITEGIC>MOL_PROPERTY
VConf Rank
SciTegic.value.IntegerValue
552

@<SCITEGIC>MOL_PROPERTY
Conf_Id
SciTegic.value.IntegerValue
45

@<SCITEGIC>MOL_PROPERTY
Delta U+W
SciTegic.value.DoubleValue
0.562

@<SCITEGIC>MOL_PROPERTY
U+W
SciTegic.value.DoubleValue
-52.846

@<SCITEGIC>MOL_PROPERTY
Grad RMS
SciTegic.value.DoubleValue
0.000000

@<SCITEGIC>MOL_PROPERTY
U
SciTegic.value.DoubleValue
10.243

@<SCITEGIC>MOL_PROPERTY
W
SciTegic.value.DoubleValue
-63.089

@<SCITEGIC>MOL_PROPERTY
W(PB)
SciTegic.value.DoubleValue
-65.116

@<SCITEGIC>MOL_PROPERTY
W(SA)
SciTegic.value.DoubleValue
2.026

@<SCITEGIC>MOL_PROPERTY
Valence
SciTegic.value.DoubleValue
2.822

@<SCITEGIC>MOL_PROPERTY
Coulomb
SciTegic.value.DoubleValue
6.637

@<SCITEGIC>MOL_PROPERTY
VdW
SciTegic.value.DoubleValue
0.785

@<SCITEGIC>MOL_PROPERTY
VdW6
SciTegic.value.DoubleValue
-5.216

@<SCITEGIC>MOL_PROPERTY
VdW12
SciTegic.value.DoubleValue
6.001

@<SCITEGIC>MOL_PROPERTY
Bond
SciTegic.value.DoubleValue
0.080

@<SCITEGIC>MOL_PROPERTY
Angle
SciTegic.value.DoubleValue
2.678

@<SCITEGIC>MOL_PROPERTY
Pdih
SciTegic.value.DoubleValue
0.064

@<SCITEGIC>MOL_PROPERTY
Idih
SciTegic.value.DoubleValue
0.000

@<SCITEGIC>MOL_PROPERTY
Tether
SciTegic.value.DoubleValue
0.000

@<TRIPOS>MOLECULE
guest-s19_confgen4.mol2 : confsearch ligand conformer 553
          17          16           1
SMALL
USER_CHARGES
 
@<TRIPOS>ATOM
       1    C1      23.130731   19.823196   20.895701 C.2        1 MOL1         0.6173
       2    O1      23.605441   19.777596   19.777544 O.co2      1 MOL1        -0.6755
       3    O2      23.811586   19.927002   21.898724 O.co2      1 MOL1        -0.6755
       4    C2      21.649595   19.748407   21.017383 C.2        1 MOL1        -0.1504
       5    H1      21.100672   19.656528   20.082958 H          1 MOL1         0.0814
       6    C3      20.987286   19.786204   22.195942 C.2        1 MOL1        -0.1394
       7    H2      21.527496   19.875691   23.138246 H          1 MOL1         0.0817
       8    C4      19.480712   19.707376   22.311096 C.3        1 MOL1        -0.1849
       9    H3      19.011521   20.270750   21.493001 H          1 MOL1         0.0736
      10    H4      19.157714   20.185943   23.245459 H          1 MOL1         0.0736
      11    C5      18.990848   18.245079   22.284014 C.3        1 MOL1        -0.1866
      12    H5      19.309615   17.766010   21.347830 H          1 MOL1         0.0738
      13    H6      19.459895   17.684189   23.104359 H          1 MOL1         0.0738
      14    C6      17.456721   18.155640   22.410430 C.3        1 MOL1        -0.2879
      15    H7      17.113606   18.599677   23.354111 H          1 MOL1         0.0750
      16    H8      16.963014   18.683085   21.583695 H          1 MOL1         0.0750
      17    H9      17.127297   17.108665   22.389126 H          1 MOL1         0.0750
@<TRIPOS>BOND
    1     1     2    1
    2     1     3    2
    3     1     4    1
    4     4     5    1
    5     4     6    2
    6     6     7    1
    7     6     8    1
    8     8     9    1
    9     8    10    1
   10     8    11    1
   11    11    12    1
   12    11    13    1
   13    11    14    1
   14    14    15    1
   15    14    16    1
   16    14    17    1
@<TRIPOS>SUBSTRUCTURE
       1 MOL1            1 RESIDUE      1      MOL     
@<SCITEGIC>MOL_PROPERTY
VConf Rank
SciTegic.value.IntegerValue
553

@<SCITEGIC>MOL_PROPERTY
Conf_Id
SciTegic.value.IntegerValue
36

@<SCITEGIC>MOL_PROPERTY
Delta U+W
SciTegic.value.DoubleValue
0.000

@<SCITEGIC>MOL_PROPERTY
U+W
SciTegic.value.DoubleValue
-53.409

@<SCITEGIC>MOL_PROPERTY
Grad RMS
SciTegic.value.DoubleValue
0.000000

@<SCITEGIC>MOL_PROPERTY
U
SciTegic.value.DoubleValue
9.048

@<SCITEGIC>MOL_PROPERTY
W
SciTegic.value.DoubleValue
-62.457

@<SCITEGIC>MOL_PROPERTY
W(PB)
SciTegic.value.DoubleValue
-64.540

@<SCITEGIC>MOL_PROPERTY
W(SA)
SciTegic.value.DoubleValue
2.084

@<SCITEGIC>MOL_PROPERTY
Valence
SciTegic.value.DoubleValue
2.652

@<SCITEGIC>MOL_PROPERTY
Coulomb
SciTegic.value.DoubleValue
5.578

@<SCITEGIC>MOL_PROPERTY
VdW
SciTegic.value.DoubleValue
0.818

@<SCITEGIC>MOL_PROPERTY
VdW6
SciTegic.value.DoubleValue
-4.534

@<SCITEGIC>MOL_PROPERTY
VdW12
SciTegic.value.DoubleValue
5.352

@<SCITEGIC>MOL_PROPERTY
Bond
SciTegic.value.DoubleValue
0.063

@<SCITEGIC>MOL_PROPERTY
Angle
SciTegic.value.DoubleValue
2.579

@<SCITEGIC>MOL_PROPERTY
Pdih
SciTegic.value.DoubleValue
0.010

@<SCITEGIC>MOL_PROPERTY
Idih
SciTegic.value.DoubleValue
0.000

@<SCITEGIC>MOL_PROPERTY
Tether
SciTegic.value.DoubleValue
0.000

@<TRIPOS>MOLECULE
guest-s19_confgen4.mol2 : confsearch ligand conformer 554
          17          16           1
SMALL
USER_CHARGES
 
@<TRIPOS>ATOM
       1    C1      19.503592   22.384740   21.381469 C.2        1 MOL1         0.6173
       2    O1      20.597554   22.917238   21.390823 O.co2      1 MOL1        -0.6755
       3    O2      18.463322   23.013563   21.392722 O.co2      1 MOL1        -0.6755
       4    C2      19.409196   20.899992   21.353629 C.2        1 MOL1        -0.1504
       5    H1      18.402456   20.488495   21.346346 H          1 MOL1         0.0814
       6    C3      20.482048   20.076653   21.339879 C.2        1 MOL1        -0.1394
       7    H2      21.495170   20.478236   21.349197 H          1 MOL1         0.0817
       8    C4      20.377304   18.567491   21.313453 C.3        1 MOL1        -0.1849
       9    H3      21.289073   18.143197   20.871821 H          1 MOL1         0.0736
      10    H4      19.544421   18.260113   20.666436 H          1 MOL1         0.0736
      11    C5      20.174836   17.993352   22.730629 C.3        1 MOL1        -0.1866
      12    H5      21.010165   18.300323   23.375270 H          1 MOL1         0.0738
      13    H6      19.260696   18.413771   23.172393 H          1 MOL1         0.0738
      14    C6      20.076378   16.454673   22.713347 C.3        1 MOL1        -0.2879
      15    H7      20.991869   16.006854   22.304978 H          1 MOL1         0.0750
      16    H8      19.932676   16.064896   23.729493 H          1 MOL1         0.0750
      17    H9      19.228737   16.122145   22.099861 H          1 MOL1         0.0750
@<TRIPOS>BOND
    1     1     2    1
    2     1     3    2
    3     1     4    1
    4     4     5    1
    5     4     6    2
    6     6     7    1
    7     6     8    1
    8     8     9    1
    9     8    10    1
   10     8    11    1
   11    11    12    1
   12    11    13    1
   13    11    14    1
   14    14    15    1
   15    14    16    1
   16    14    17    1
@<TRIPOS>SUBSTRUCTURE
       1 MOL1            1 RESIDUE      1      MOL     
@<SCITEGIC>MOL_PROPERTY
VConf Rank
SciTegic.value.IntegerValue
554

@<SCITEGIC>MOL_PROPERTY
Conf_Id
SciTegic.value.IntegerValue
1

@<SCITEGIC>MOL_PROPERTY
Delta U+W
SciTegic.value.DoubleValue
0.030

@<SCITEGIC>MOL_PROPERTY
U+W
SciTegic.value.DoubleValue
-53.378

@<SCITEGIC>MOL_PROPERTY
Grad RMS
SciTegic.value.DoubleValue
0.000000

@<SCITEGIC>MOL_PROPERTY
U
SciTegic.value.DoubleValue
9.048

@<SCITEGIC>MOL_PROPERTY
W
SciTegic.value.DoubleValue
-62.426

@<SCITEGIC>MOL_PROPERTY
W(PB)
SciTegic.value.DoubleValue
-64.506

@<SCITEGIC>MOL_PROPERTY
W(SA)
SciTegic.value.DoubleValue
2.080

@<SCITEGIC>MOL_PROPERTY
Valence
SciTegic.value.DoubleValue
2.652

@<SCITEGIC>MOL_PROPERTY
Coulomb
SciTegic.value.DoubleValue
5.578

@<SCITEGIC>MOL_PROPERTY
VdW
SciTegic.value.DoubleValue
0.818

@<SCITEGIC>MOL_PROPERTY
VdW6
SciTegic.value.DoubleValue
-4.535

@<SCITEGIC>MOL_PROPERTY
VdW12
SciTegic.value.DoubleValue
5.352

@<SCITEGIC>MOL_PROPERTY
Bond
SciTegic.value.DoubleValue
0.063

@<SCITEGIC>MOL_PROPERTY
Angle
SciTegic.value.DoubleValue
2.579

@<SCITEGIC>MOL_PROPERTY
Pdih
SciTegic.value.DoubleValue
0.010

@<SCITEGIC>MOL_PROPERTY
Idih
SciTegic.value.DoubleValue
0.000

@<SCITEGIC>MOL_PROPERTY
Tether
SciTegic.value.DoubleValue
0.000

@<TRIPOS>MOLECULE
guest-s19_confgen4.mol2 : confsearch ligand conformer 555
          17          16           1
SMALL
USER_CHARGES
 
@<TRIPOS>ATOM
       1    C1      21.996049   19.903400   24.267707 C.2        1 MOL1         0.6173
       2    O1      22.958502   20.222963   23.595395 O.co2      1 MOL1        -0.6755
       3    O2      21.881478   20.203033   25.440270 O.co2      1 MOL1        -0.6755
       4    C2      20.899940   19.107981   23.651310 C.2        1 MOL1        -0.1504
       5    H1      20.070136   18.855122   24.307243 H          1 MOL1         0.0814
       6    C3      20.894251   18.706850   22.359781 C.2        1 MOL1        -0.1394
       7    H2      21.718909   18.957552   21.692932 H          1 MOL1         0.0817
       8    C4      19.773131   17.900699   21.738313 C.3        1 MOL1        -0.1849
       9    H3      19.431291   17.136271   22.449172 H          1 MOL1         0.0736
      10    H4      20.147125   17.356952   20.860383 H          1 MOL1         0.0736
      11    C5      18.573403   18.782284   21.327188 C.3        1 MOL1        -0.1866
      12    H5      17.754251   18.136146   20.982735 H          1 MOL1         0.0738
      13    H6      18.196165   19.326739   22.203937 H          1 MOL1         0.0738
      14    C6      18.931100   19.783293   20.207927 C.3        1 MOL1        -0.2879
      15    H7      19.299087   19.259897   19.315857 H          1 MOL1         0.0750
      16    H8      18.049210   20.368888   19.917659 H          1 MOL1         0.0750
      17    H9      19.707529   20.485728   20.538026 H          1 MOL1         0.0750
@<TRIPOS>BOND
    1     1     2    1
    2     1     3    2
    3     1     4    1
    4     4     5    1
    5     4     6    2
    6     6     7    1
    7     6     8    1
    8     8     9    1
    9     8    10    1
   10     8    11    1
   11    11    12    1
   12    11    13    1
   13    11    14    1
   14    14    15    1
   15    14    16    1
   16    14    17    1
@<TRIPOS>SUBSTRUCTURE
       1 MOL1            1 RESIDUE      1      MOL     
@<SCITEGIC>MOL_PROPERTY
VConf Rank
SciTegic.value.IntegerValue
555

@<SCITEGIC>MOL_PROPERTY
Conf_Id
SciTegic.value.IntegerValue
3

@<SCITEGIC>MOL_PROPERTY
Delta U+W
SciTegic.value.DoubleValue
0.531

@<SCITEGIC>MOL_PROPERTY
U+W
SciTegic.value.DoubleValue
-52.878

@<SCITEGIC>MOL_PROPERTY
Grad RMS
SciTegic.value.DoubleValue
0.000000

@<SCITEGIC>MOL_PROPERTY
U
SciTegic.value.DoubleValue
10.067

@<SCITEGIC>MOL_PROPERTY
W
SciTegic.value.DoubleValue
-62.945

@<SCITEGIC>MOL_PROPERTY
W(PB)
SciTegic.value.DoubleValue
-64.982

@<SCITEGIC>MOL_PROPERTY
W(SA)
SciTegic.value.DoubleValue
2.037

@<SCITEGIC>MOL_PROPERTY
Valence
SciTegic.value.DoubleValue
2.779

@<SCITEGIC>MOL_PROPERTY
Coulomb
SciTegic.value.DoubleValue
6.474

@<SCITEGIC>MOL_PROPERTY
VdW
SciTegic.value.DoubleValue
0.815

@<SCITEGIC>MOL_PROPERTY
VdW6
SciTegic.value.DoubleValue
-5.088

@<SCITEGIC>MOL_PROPERTY
VdW12
SciTegic.value.DoubleValue
5.902

@<SCITEGIC>MOL_PROPERTY
Bond
SciTegic.value.DoubleValue
0.078

@<SCITEGIC>MOL_PROPERTY
Angle
SciTegic.value.DoubleValue
2.651

@<SCITEGIC>MOL_PROPERTY
Pdih
SciTegic.value.DoubleValue
0.050

@<SCITEGIC>MOL_PROPERTY
Idih
SciTegic.value.DoubleValue
0.000

@<SCITEGIC>MOL_PROPERTY
Tether
SciTegic.value.DoubleValue
0.000

@<TRIPOS>MOLECULE
guest-s19_confgen4.mol2 : confsearch ligand conformer 556
          17          16           1
SMALL
USER_CHARGES
 
@<TRIPOS>ATOM
       1    C1      19.759214   19.510452   19.092964 C.2        1 MOL1         0.6173
       2    O1      20.631850   19.519850   18.246679 O.co2      1 MOL1        -0.6755
       3    O2      18.669022   20.023353   18.923075 O.co2      1 MOL1        -0.6755
       4    C2      20.060328   18.833290   20.383256 C.2        1 MOL1        -0.1504
       5    H1      21.052447   18.396151   20.468783 H          1 MOL1         0.0814
       6    C3      19.186126   18.748815   21.411954 C.2        1 MOL1        -0.1394
       7    H2      18.191366   19.187227   21.336016 H          1 MOL1         0.0817
       8    C4      19.496586   18.061144   22.725369 C.3        1 MOL1        -0.1849
       9    H3      20.365931   17.398167   22.618405 H          1 MOL1         0.0736
      10    H4      18.652050   17.415147   23.000061 H          1 MOL1         0.0736
      11    C5      19.749488   19.068053   23.868759 C.3        1 MOL1        -0.1866
      12    H5      18.881391   19.733368   23.974696 H          1 MOL1         0.0738
      13    H6      19.841515   18.519059   24.816037 H          1 MOL1         0.0738
      14    C6      21.025411   19.908527   23.648640 C.3        1 MOL1        -0.2879
      15    H7      20.944105   20.522099   22.742013 H          1 MOL1         0.0750
      16    H8      21.194214   20.583638   24.497520 H          1 MOL1         0.0750
      17    H9      21.907834   19.263381   23.547605 H          1 MOL1         0.0750
@<TRIPOS>BOND
    1     1     2    1
    2     1     3    2
    3     1     4    1
    4     4     5    1
    5     4     6    2
    6     6     7    1
    7     6     8    1
    8     8     9    1
    9     8    10    1
   10     8    11    1
   11    11    12    1
   12    11    13    1
   13    11    14    1
   14    14    15    1
   15    14    16    1
   16    14    17    1
@<TRIPOS>SUBSTRUCTURE
       1 MOL1            1 RESIDUE      1      MOL     
@<SCITEGIC>MOL_PROPERTY
VConf Rank
SciTegic.value.IntegerValue
556

@<SCITEGIC>MOL_PROPERTY
Conf_Id
SciTegic.value.IntegerValue
45

@<SCITEGIC>MOL_PROPERTY
Delta U+W
SciTegic.value.DoubleValue
0.562

@<SCITEGIC>MOL_PROPERTY
U+W
SciTegic.value.DoubleValue
-52.846

@<SCITEGIC>MOL_PROPERTY
Grad RMS
SciTegic.value.DoubleValue
0.000000

@<SCITEGIC>MOL_PROPERTY
U
SciTegic.value.DoubleValue
10.243

@<SCITEGIC>MOL_PROPERTY
W
SciTegic.value.DoubleValue
-63.089

@<SCITEGIC>MOL_PROPERTY
W(PB)
SciTegic.value.DoubleValue
-65.116

@<SCITEGIC>MOL_PROPERTY
W(SA)
SciTegic.value.DoubleValue
2.026

@<SCITEGIC>MOL_PROPERTY
Valence
SciTegic.value.DoubleValue
2.822

@<SCITEGIC>MOL_PROPERTY
Coulomb
SciTegic.value.DoubleValue
6.637

@<SCITEGIC>MOL_PROPERTY
VdW
SciTegic.value.DoubleValue
0.785

@<SCITEGIC>MOL_PROPERTY
VdW6
SciTegic.value.DoubleValue
-5.216

@<SCITEGIC>MOL_PROPERTY
VdW12
SciTegic.value.DoubleValue
6.001

@<SCITEGIC>MOL_PROPERTY
Bond
SciTegic.value.DoubleValue
0.080

@<SCITEGIC>MOL_PROPERTY
Angle
SciTegic.value.DoubleValue
2.678

@<SCITEGIC>MOL_PROPERTY
Pdih
SciTegic.value.DoubleValue
0.064

@<SCITEGIC>MOL_PROPERTY
Idih
SciTegic.value.DoubleValue
0.000

@<SCITEGIC>MOL_PROPERTY
Tether
SciTegic.value.DoubleValue
0.000

@<TRIPOS>MOLECULE
guest-s19_confgen4.mol2 : confsearch ligand conformer 557
          17          16           1
SMALL
USER_CHARGES
 
@<TRIPOS>ATOM
       1    C1      23.024988   17.647808   21.754128 C.2        1 MOL1         0.6173
       2    O1      24.099368   18.130741   21.453814 O.co2      1 MOL1        -0.6755
       3    O2      22.839665   16.448075   21.835915 O.co2      1 MOL1        -0.6755
       4    C2      21.902977   18.585266   22.030576 C.2        1 MOL1        -0.1504
       5    H1      22.135666   19.643821   21.939887 H          1 MOL1         0.0814
       6    C3      20.656372   18.188485   22.373544 C.2        1 MOL1        -0.1394
       7    H2      20.411723   17.130388   22.464935 H          1 MOL1         0.0817
       8    C4      19.520238   19.148430   22.650928 C.3        1 MOL1        -0.1849
       9    H3      19.895559   20.028713   23.190415 H          1 MOL1         0.0736
      10    H4      18.785248   18.667662   23.310502 H          1 MOL1         0.0736
      11    C5      18.829213   19.593362   21.345733 C.3        1 MOL1        -0.1866
      12    H5      19.562398   20.078392   20.686379 H          1 MOL1         0.0738
      13    H6      18.452898   18.711405   20.808977 H          1 MOL1         0.0738
      14    C6      17.663755   20.564804   21.620565 C.3        1 MOL1        -0.2879
      15    H7      16.899798   20.093245   22.252572 H          1 MOL1         0.0750
      16    H8      18.018912   21.470379   22.129715 H          1 MOL1         0.0750
      17    H9      17.184974   20.870062   20.681034 H          1 MOL1         0.0750
@<TRIPOS>BOND
    1     1     2    1
    2     1     3    2
    3     1     4    1
    4     4     5    1
    5     4     6    2
    6     6     7    1
    7     6     8    1
    8     8     9    1
    9     8    10    1
   10     8    11    1
   11    11    12    1
   12    11    13    1
   13    11    14    1
   14    14    15    1
   15    14    16    1
   16    14    17    1
@<TRIPOS>SUBSTRUCTURE
       1 MOL1            1 RESIDUE      1      MOL     
@<SCITEGIC>MOL_PROPERTY
VConf Rank
SciTegic.value.IntegerValue
557

@<SCITEGIC>MOL_PROPERTY
Conf_Id
SciTegic.value.IntegerValue
36

@<SCITEGIC>MOL_PROPERTY
Delta U+W
SciTegic.value.DoubleValue
0.000

@<SCITEGIC>MOL_PROPERTY
U+W
SciTegic.value.DoubleValue
-53.409

@<SCITEGIC>MOL_PROPERTY
Grad RMS
SciTegic.value.DoubleValue
0.000000

@<SCITEGIC>MOL_PROPERTY
U
SciTegic.value.DoubleValue
9.048

@<SCITEGIC>MOL_PROPERTY
W
SciTegic.value.DoubleValue
-62.457

@<SCITEGIC>MOL_PROPERTY
W(PB)
SciTegic.value.DoubleValue
-64.540

@<SCITEGIC>MOL_PROPERTY
W(SA)
SciTegic.value.DoubleValue
2.084

@<SCITEGIC>MOL_PROPERTY
Valence
SciTegic.value.DoubleValue
2.652

@<SCITEGIC>MOL_PROPERTY
Coulomb
SciTegic.value.DoubleValue
5.578

@<SCITEGIC>MOL_PROPERTY
VdW
SciTegic.value.DoubleValue
0.818

@<SCITEGIC>MOL_PROPERTY
VdW6
SciTegic.value.DoubleValue
-4.534

@<SCITEGIC>MOL_PROPERTY
VdW12
SciTegic.value.DoubleValue
5.352

@<SCITEGIC>MOL_PROPERTY
Bond
SciTegic.value.DoubleValue
0.063

@<SCITEGIC>MOL_PROPERTY
Angle
SciTegic.value.DoubleValue
2.579

@<SCITEGIC>MOL_PROPERTY
Pdih
SciTegic.value.DoubleValue
0.010

@<SCITEGIC>MOL_PROPERTY
Idih
SciTegic.value.DoubleValue
0.000

@<SCITEGIC>MOL_PROPERTY
Tether
SciTegic.value.DoubleValue
0.000

@<TRIPOS>MOLECULE
guest-s19_confgen4.mol2 : confsearch ligand conformer 558
          17          16           1
SMALL
USER_CHARGES
 
@<TRIPOS>ATOM
       1    C1      19.848870   21.047651   19.169428 C.2        1 MOL1         0.6173
       2    O1      19.589408   20.317294   18.231531 O.co2      1 MOL1        -0.6755
       3    O2      20.185473   22.207316   19.029495 O.co2      1 MOL1        -0.6755
       4    C2      19.755911   20.521523   20.558208 C.2        1 MOL1        -0.1504
       5    H1      20.000838   21.225853   21.349940 H          1 MOL1         0.0814
       6    C3      19.395843   19.253638   20.861366 C.2        1 MOL1        -0.1394
       7    H2      19.150493   18.539101   20.075864 H          1 MOL1         0.0817
       8    C4      19.305575   18.725969   22.276518 C.3        1 MOL1        -0.1849
       9    H3      18.604259   17.881329   22.310083 H          1 MOL1         0.0736
      10    H4      18.895387   19.499297   22.940231 H          1 MOL1         0.0736
      11    C5      20.685131   18.272294   22.796156 C.3        1 MOL1        -0.1866
      12    H5      21.092340   17.497332   22.131941 H          1 MOL1         0.0738
      13    H6      21.386985   19.117347   22.767085 H          1 MOL1         0.0738
      14    C6      20.600066   17.724411   24.234945 C.3        1 MOL1        -0.2879
      15    H7      19.928171   16.857608   24.286314 H          1 MOL1         0.0750
      16    H8      21.590193   17.406919   24.587050 H          1 MOL1         0.0750
      17    H9      20.224548   18.490852   24.925589 H          1 MOL1         0.0750
@<TRIPOS>BOND
    1     1     2    1
    2     1     3    2
    3     1     4    1
    4     4     5    1
    5     4     6    2
    6     6     7    1
    7     6     8    1
    8     8     9    1
    9     8    10    1
   10     8    11    1
   11    11    12    1
   12    11    13    1
   13    11    14    1
   14    14    15    1
   15    14    16    1
   16    14    17    1
@<TRIPOS>SUBSTRUCTURE
       1 MOL1            1 RESIDUE      1      MOL     
@<SCITEGIC>MOL_PROPERTY
VConf Rank
SciTegic.value.IntegerValue
558

@<SCITEGIC>MOL_PROPERTY
Conf_Id
SciTegic.value.IntegerValue
1

@<SCITEGIC>MOL_PROPERTY
Delta U+W
SciTegic.value.DoubleValue
0.030

@<SCITEGIC>MOL_PROPERTY
U+W
SciTegic.value.DoubleValue
-53.378

@<SCITEGIC>MOL_PROPERTY
Grad RMS
SciTegic.value.DoubleValue
0.000000

@<SCITEGIC>MOL_PROPERTY
U
SciTegic.value.DoubleValue
9.048

@<SCITEGIC>MOL_PROPERTY
W
SciTegic.value.DoubleValue
-62.426

@<SCITEGIC>MOL_PROPERTY
W(PB)
SciTegic.value.DoubleValue
-64.506

@<SCITEGIC>MOL_PROPERTY
W(SA)
SciTegic.value.DoubleValue
2.080

@<SCITEGIC>MOL_PROPERTY
Valence
SciTegic.value.DoubleValue
2.652

@<SCITEGIC>MOL_PROPERTY
Coulomb
SciTegic.value.DoubleValue
5.578

@<SCITEGIC>MOL_PROPERTY
VdW
SciTegic.value.DoubleValue
0.818

@<SCITEGIC>MOL_PROPERTY
VdW6
SciTegic.value.DoubleValue
-4.535

@<SCITEGIC>MOL_PROPERTY
VdW12
SciTegic.value.DoubleValue
5.352

@<SCITEGIC>MOL_PROPERTY
Bond
SciTegic.value.DoubleValue
0.063

@<SCITEGIC>MOL_PROPERTY
Angle
SciTegic.value.DoubleValue
2.579

@<SCITEGIC>MOL_PROPERTY
Pdih
SciTegic.value.DoubleValue
0.010

@<SCITEGIC>MOL_PROPERTY
Idih
SciTegic.value.DoubleValue
0.000

@<SCITEGIC>MOL_PROPERTY
Tether
SciTegic.value.DoubleValue
0.000

@<TRIPOS>MOLECULE
guest-s19_confgen4.mol2 : confsearch ligand conformer 559
          17          16           1
SMALL
USER_CHARGES
 
@<TRIPOS>ATOM
       1    C1      18.817566   21.848748   21.386926 C.2        1 MOL1         0.6173
       2    O1      17.633838   21.569917   21.348414 O.co2      1 MOL1        -0.6755
       3    O2      19.224037   22.991847   21.463845 O.co2      1 MOL1        -0.6755
       4    C2      19.831367   20.760786   21.335563 C.2        1 MOL1        -0.1504
       5    H1      20.870836   21.078373   21.373028 H          1 MOL1         0.0814
       6    C3      19.523026   19.446722   21.251022 C.2        1 MOL1        -0.1394
       7    H2      18.484836   19.117251   21.216281 H          1 MOL1         0.0817
       8    C4      20.560396   18.344642   21.203080 C.3        1 MOL1        -0.1849
       9    H3      21.396556   18.653571   20.561266 H          1 MOL1         0.0736
      10    H4      20.130819   17.448257   20.735906 H          1 MOL1         0.0736
      11    C5      21.103013   17.987020   22.604235 C.3        1 MOL1        -0.1866
      12    H5      21.921992   17.262349   22.498034 H          1 MOL1         0.0738
      13    H6      21.534665   18.881807   23.073767 H          1 MOL1         0.0738
      14    C6      20.017013   17.389702   23.524304 C.3        1 MOL1        -0.2879
      15    H7      19.579787   16.485910   23.080299 H          1 MOL1         0.0750
      16    H8      20.443757   17.116571   24.498058 H          1 MOL1         0.0750
      17    H9      19.208053   18.110326   23.701806 H          1 MOL1         0.0750
@<TRIPOS>BOND
    1     1     2    1
    2     1     3    2
    3     1     4    1
    4     4     5    1
    5     4     6    2
    6     6     7    1
    7     6     8    1
    8     8     9    1
    9     8    10    1
   10     8    11    1
   11    11    12    1
   12    11    13    1
   13    11    14    1
   14    14    15    1
   15    14    16    1
   16    14    17    1
@<TRIPOS>SUBSTRUCTURE
       1 MOL1            1 RESIDUE      1      MOL     
@<SCITEGIC>MOL_PROPERTY
VConf Rank
SciTegic.value.IntegerValue
559

@<SCITEGIC>MOL_PROPERTY
Conf_Id
SciTegic.value.IntegerValue
3

@<SCITEGIC>MOL_PROPERTY
Delta U+W
SciTegic.value.DoubleValue
0.531

@<SCITEGIC>MOL_PROPERTY
U+W
SciTegic.value.DoubleValue
-52.878

@<SCITEGIC>MOL_PROPERTY
Grad RMS
SciTegic.value.DoubleValue
0.000000

@<SCITEGIC>MOL_PROPERTY
U
SciTegic.value.DoubleValue
10.067

@<SCITEGIC>MOL_PROPERTY
W
SciTegic.value.DoubleValue
-62.945

@<SCITEGIC>MOL_PROPERTY
W(PB)
SciTegic.value.DoubleValue
-64.982

@<SCITEGIC>MOL_PROPERTY
W(SA)
SciTegic.value.DoubleValue
2.037

@<SCITEGIC>MOL_PROPERTY
Valence
SciTegic.value.DoubleValue
2.779

@<SCITEGIC>MOL_PROPERTY
Coulomb
SciTegic.value.DoubleValue
6.474

@<SCITEGIC>MOL_PROPERTY
VdW
SciTegic.value.DoubleValue
0.815

@<SCITEGIC>MOL_PROPERTY
VdW6
SciTegic.value.DoubleValue
-5.088

@<SCITEGIC>MOL_PROPERTY
VdW12
SciTegic.value.DoubleValue
5.902

@<SCITEGIC>MOL_PROPERTY
Bond
SciTegic.value.DoubleValue
0.078

@<SCITEGIC>MOL_PROPERTY
Angle
SciTegic.value.DoubleValue
2.651

@<SCITEGIC>MOL_PROPERTY
Pdih
SciTegic.value.DoubleValue
0.050

@<SCITEGIC>MOL_PROPERTY
Idih
SciTegic.value.DoubleValue
0.000

@<SCITEGIC>MOL_PROPERTY
Tether
SciTegic.value.DoubleValue
0.000

@<TRIPOS>MOLECULE
guest-s19_confgen4.mol2 : confsearch ligand conformer 560
          17          16           1
SMALL
USER_CHARGES
 
@<TRIPOS>ATOM
       1    C1      18.372041   20.518085   19.948190 C.2        1 MOL1         0.6173
       2    O1      18.747316   21.256970   19.058810 O.co2      1 MOL1        -0.6755
       3    O2      17.225116   20.502779   20.354118 O.co2      1 MOL1        -0.6755
       4    C2      19.376917   19.599398   20.548447 C.2        1 MOL1        -0.1504
       5    H1      20.382471   19.664498   20.139388 H          1 MOL1         0.0814
       6    C3      19.100317   18.727187   21.544602 C.2        1 MOL1        -0.1394
       7    H2      18.096363   18.658088   21.962717 H          1 MOL1         0.0817
       8    C4      20.126158   17.795118   22.155532 C.3        1 MOL1        -0.1849
       9    H3      21.002160   17.701192   21.499378 H          1 MOL1         0.0736
      10    H4      19.694113   16.788531   22.233814 H          1 MOL1         0.0736
      11    C5      20.576086   18.257492   23.558722 C.3        1 MOL1        -0.1866
      12    H5      19.700081   18.354257   24.215008 H          1 MOL1         0.0738
      13    H6      21.216909   17.483358   24.002861 H          1 MOL1         0.0738
      14    C6      21.350422   19.592425   23.524263 C.3        1 MOL1        -0.2879
      15    H7      20.719404   20.406753   23.145133 H          1 MOL1         0.0750
      16    H8      21.687511   19.869313   24.531522 H          1 MOL1         0.0750
      17    H9      22.235493   19.516277   22.879326 H          1 MOL1         0.0750
@<TRIPOS>BOND
    1     1     2    1
    2     1     3    2
    3     1     4    1
    4     4     5    1
    5     4     6    2
    6     6     7    1
    7     6     8    1
    8     8     9    1
    9     8    10    1
   10     8    11    1
   11    11    12    1
   12    11    13    1
   13    11    14    1
   14    14    15    1
   15    14    16    1
   16    14    17    1
@<TRIPOS>SUBSTRUCTURE
       1 MOL1            1 RESIDUE      1      MOL     
@<SCITEGIC>MOL_PROPERTY
VConf Rank
SciTegic.value.IntegerValue
560

@<SCITEGIC>MOL_PROPERTY
Conf_Id
SciTegic.value.IntegerValue
45

@<SCITEGIC>MOL_PROPERTY
Delta U+W
SciTegic.value.DoubleValue
0.562

@<SCITEGIC>MOL_PROPERTY
U+W
SciTegic.value.DoubleValue
-52.846

@<SCITEGIC>MOL_PROPERTY
Grad RMS
SciTegic.value.DoubleValue
0.000000

@<SCITEGIC>MOL_PROPERTY
U
SciTegic.value.DoubleValue
10.243

@<SCITEGIC>MOL_PROPERTY
W
SciTegic.value.DoubleValue
-63.089

@<SCITEGIC>MOL_PROPERTY
W(PB)
SciTegic.value.DoubleValue
-65.116

@<SCITEGIC>MOL_PROPERTY
W(SA)
SciTegic.value.DoubleValue
2.026

@<SCITEGIC>MOL_PROPERTY
Valence
SciTegic.value.DoubleValue
2.822

@<SCITEGIC>MOL_PROPERTY
Coulomb
SciTegic.value.DoubleValue
6.637

@<SCITEGIC>MOL_PROPERTY
VdW
SciTegic.value.DoubleValue
0.785

@<SCITEGIC>MOL_PROPERTY
VdW6
SciTegic.value.DoubleValue
-5.216

@<SCITEGIC>MOL_PROPERTY
VdW12
SciTegic.value.DoubleValue
6.001

@<SCITEGIC>MOL_PROPERTY
Bond
SciTegic.value.DoubleValue
0.080

@<SCITEGIC>MOL_PROPERTY
Angle
SciTegic.value.DoubleValue
2.678

@<SCITEGIC>MOL_PROPERTY
Pdih
SciTegic.value.DoubleValue
0.064

@<SCITEGIC>MOL_PROPERTY
Idih
SciTegic.value.DoubleValue
0.000

@<SCITEGIC>MOL_PROPERTY
Tether
SciTegic.value.DoubleValue
0.000

@<TRIPOS>MOLECULE
guest-s19_confgen4.mol2 : confsearch ligand conformer 561
          17          16           1
SMALL
USER_CHARGES
 
@<TRIPOS>ATOM
       1    C1      20.282870   20.610590   24.924379 C.2        1 MOL1         0.6173
       2    O1      21.101305   20.419105   25.802560 O.co2      1 MOL1        -0.6755
       3    O2      19.263189   21.250797   25.099823 O.co2      1 MOL1        -0.6755
       4    C2      20.563214   20.027677   23.584312 C.2        1 MOL1        -0.1504
       5    H1      21.491124   19.467368   23.495172 H          1 MOL1         0.0814
       6    C3      19.741918   20.160020   22.517990 C.2        1 MOL1        -0.1394
       7    H2      18.808640   20.717288   22.596851 H          1 MOL1         0.0817
       8    C4      20.033430   19.562140   21.159021 C.3        1 MOL1        -0.1849
       9    H3      21.106034   19.642372   20.935656 H          1 MOL1         0.0736
      10    H4      19.509017   20.137244   20.384016 H          1 MOL1         0.0736
      11    C5      19.596408   18.084565   21.089739 C.3        1 MOL1        -0.1866
      12    H5      20.123387   17.506905   21.861854 H          1 MOL1         0.0738
      13    H6      18.522907   18.007127   21.311477 H          1 MOL1         0.0738
      14    C6      19.881553   17.470371   19.704465 C.3        1 MOL1        -0.2879
      15    H7      19.340581   18.010321   18.916280 H          1 MOL1         0.0750
      16    H8      20.953852   17.507298   19.471557 H          1 MOL1         0.0750
      17    H9      19.564322   16.419850   19.674465 H          1 MOL1         0.0750
@<TRIPOS>BOND
    1     1     2    1
    2     1     3    2
    3     1     4    1
    4     4     5    1
    5     4     6    2
    6     6     7    1
    7     6     8    1
    8     8     9    1
    9     8    10    1
   10     8    11    1
   11    11    12    1
   12    11    13    1
   13    11    14    1
   14    14    15    1
   15    14    16    1
   16    14    17    1
@<TRIPOS>SUBSTRUCTURE
       1 MOL1            1 RESIDUE      1      MOL     
@<SCITEGIC>MOL_PROPERTY
VConf Rank
SciTegic.value.IntegerValue
561

@<SCITEGIC>MOL_PROPERTY
Conf_Id
SciTegic.value.IntegerValue
36

@<SCITEGIC>MOL_PROPERTY
Delta U+W
SciTegic.value.DoubleValue
0.000

@<SCITEGIC>MOL_PROPERTY
U+W
SciTegic.value.DoubleValue
-53.409

@<SCITEGIC>MOL_PROPERTY
Grad RMS
SciTegic.value.DoubleValue
0.000000

@<SCITEGIC>MOL_PROPERTY
U
SciTegic.value.DoubleValue
9.048

@<SCITEGIC>MOL_PROPERTY
W
SciTegic.value.DoubleValue
-62.457

@<SCITEGIC>MOL_PROPERTY
W(PB)
SciTegic.value.DoubleValue
-64.540

@<SCITEGIC>MOL_PROPERTY
W(SA)
SciTegic.value.DoubleValue
2.084

@<SCITEGIC>MOL_PROPERTY
Valence
SciTegic.value.DoubleValue
2.652

@<SCITEGIC>MOL_PROPERTY
Coulomb
SciTegic.value.DoubleValue
5.578

@<SCITEGIC>MOL_PROPERTY
VdW
SciTegic.value.DoubleValue
0.818

@<SCITEGIC>MOL_PROPERTY
VdW6
SciTegic.value.DoubleValue
-4.534

@<SCITEGIC>MOL_PROPERTY
VdW12
SciTegic.value.DoubleValue
5.352

@<SCITEGIC>MOL_PROPERTY
Bond
SciTegic.value.DoubleValue
0.063

@<SCITEGIC>MOL_PROPERTY
Angle
SciTegic.value.DoubleValue
2.579

@<SCITEGIC>MOL_PROPERTY
Pdih
SciTegic.value.DoubleValue
0.010

@<SCITEGIC>MOL_PROPERTY
Idih
SciTegic.value.DoubleValue
0.000

@<SCITEGIC>MOL_PROPERTY
Tether
SciTegic.value.DoubleValue
0.000

@<TRIPOS>MOLECULE
guest-s19_confgen4.mol2 : confsearch ligand conformer 562
          17          16           1
SMALL
USER_CHARGES
 
@<TRIPOS>ATOM
       1    C1      18.450684   16.234280   21.042182 C.2        1 MOL1         0.6173
       2    O1      17.937846   16.429742   19.956279 O.co2      1 MOL1        -0.6755
       3    O2      18.215251   15.250118   21.715756 O.co2      1 MOL1        -0.6755
       4    C2      19.412580   17.228513   21.590288 C.2        1 MOL1        -0.1504
       5    H1      19.834550   16.993368   22.564740 H          1 MOL1         0.0814
       6    C3      19.766012   18.366891   20.951330 C.2        1 MOL1        -0.1394
       7    H2      19.347651   18.613376   19.975629 H          1 MOL1         0.0817
       8    C4      20.743688   19.373772   21.516644 C.3        1 MOL1        -0.1849
       9    H3      21.201525   19.942582   20.696139 H          1 MOL1         0.0736
      10    H4      21.562928   18.853579   22.031476 H          1 MOL1         0.0736
      11    C5      20.048755   20.344826   22.492933 C.3        1 MOL1        -0.1866
      12    H5      19.231201   20.865463   21.975142 H          1 MOL1         0.0738
      13    H6      19.593610   19.777600   23.316740 H          1 MOL1         0.0738
      14    C6      21.036834   21.380295   23.066544 C.3        1 MOL1        -0.2879
      15    H7      21.483279   21.983463   22.265104 H          1 MOL1         0.0750
      16    H8      20.524670   22.061750   23.758236 H          1 MOL1         0.0750
      17    H9      21.848424   20.886115   23.616582 H          1 MOL1         0.0750
@<TRIPOS>BOND
    1     1     2    1
    2     1     3    2
    3     1     4    1
    4     4     5    1
    5     4     6    2
    6     6     7    1
    7     6     8    1
    8     8     9    1
    9     8    10    1
   10     8    11    1
   11    11    12    1
   12    11    13    1
   13    11    14    1
   14    14    15    1
   15    14    16    1
   16    14    17    1
@<TRIPOS>SUBSTRUCTURE
       1 MOL1            1 RESIDUE      1      MOL     
@<SCITEGIC>MOL_PROPERTY
VConf Rank
SciTegic.value.IntegerValue
562

@<SCITEGIC>MOL_PROPERTY
Conf_Id
SciTegic.value.IntegerValue
1

@<SCITEGIC>MOL_PROPERTY
Delta U+W
SciTegic.value.DoubleValue
0.030

@<SCITEGIC>MOL_PROPERTY
U+W
SciTegic.value.DoubleValue
-53.378

@<SCITEGIC>MOL_PROPERTY
Grad RMS
SciTegic.value.DoubleValue
0.000000

@<SCITEGIC>MOL_PROPERTY
U
SciTegic.value.DoubleValue
9.048

@<SCITEGIC>MOL_PROPERTY
W
SciTegic.value.DoubleValue
-62.426

@<SCITEGIC>MOL_PROPERTY
W(PB)
SciTegic.value.DoubleValue
-64.506

@<SCITEGIC>MOL_PROPERTY
W(SA)
SciTegic.value.DoubleValue
2.080

@<SCITEGIC>MOL_PROPERTY
Valence
SciTegic.value.DoubleValue
2.652

@<SCITEGIC>MOL_PROPERTY
Coulomb
SciTegic.value.DoubleValue
5.578

@<SCITEGIC>MOL_PROPERTY
VdW
SciTegic.value.DoubleValue
0.818

@<SCITEGIC>MOL_PROPERTY
VdW6
SciTegic.value.DoubleValue
-4.535

@<SCITEGIC>MOL_PROPERTY
VdW12
SciTegic.value.DoubleValue
5.352

@<SCITEGIC>MOL_PROPERTY
Bond
SciTegic.value.DoubleValue
0.063

@<SCITEGIC>MOL_PROPERTY
Angle
SciTegic.value.DoubleValue
2.579

@<SCITEGIC>MOL_PROPERTY
Pdih
SciTegic.value.DoubleValue
0.010

@<SCITEGIC>MOL_PROPERTY
Idih
SciTegic.value.DoubleValue
0.000

@<SCITEGIC>MOL_PROPERTY
Tether
SciTegic.value.DoubleValue
0.000

@<TRIPOS>MOLECULE
guest-s19_confgen4.mol2 : confsearch ligand conformer 563
          17          16           1
SMALL
USER_CHARGES
 
@<TRIPOS>ATOM
       1    C1      21.655016   17.735153   24.283230 C.2        1 MOL1         0.6173
       2    O1      20.760931   17.392324   25.033910 O.co2      1 MOL1        -0.6755
       3    O2      22.785568   17.294817   24.359168 O.co2      1 MOL1        -0.6755
       4    C2      21.378194   18.738489   23.219849 C.2        1 MOL1        -0.1504
       5    H1      22.220657   19.001374   22.584312 H          1 MOL1         0.0814
       6    C3      20.168971   19.309905   23.019228 C.2        1 MOL1        -0.1394
       7    H2      19.317253   19.051278   23.647947 H          1 MOL1         0.0817
       8    C4      19.893765   20.327617   21.932242 C.3        1 MOL1        -0.1849
       9    H3      20.739527   21.024485   21.857487 H          1 MOL1         0.0736
      10    H4      19.019605   20.935022   22.202790 H          1 MOL1         0.0736
      11    C5      19.658141   19.667994   20.555674 C.3        1 MOL1        -0.1866
      12    H5      19.569608   20.452735   19.791804 H          1 MOL1         0.0738
      13    H6      20.531777   19.060462   20.281644 H          1 MOL1         0.0738
      14    C6      18.387120   18.792485   20.529158 C.3        1 MOL1        -0.2879
      15    H7      17.498339   19.382578   20.788011 H          1 MOL1         0.0750
      16    H8      18.232221   18.367334   19.529078 H          1 MOL1         0.0750
      17    H9      18.464862   17.959746   21.240299 H          1 MOL1         0.0750
@<TRIPOS>BOND
    1     1     2    1
    2     1     3    2
    3     1     4    1
    4     4     5    1
    5     4     6    2
    6     6     7    1
    7     6     8    1
    8     8     9    1
    9     8    10    1
   10     8    11    1
   11    11    12    1
   12    11    13    1
   13    11    14    1
   14    14    15    1
   15    14    16    1
   16    14    17    1
@<TRIPOS>SUBSTRUCTURE
       1 MOL1            1 RESIDUE      1      MOL     
@<SCITEGIC>MOL_PROPERTY
VConf Rank
SciTegic.value.IntegerValue
563

@<SCITEGIC>MOL_PROPERTY
Conf_Id
SciTegic.value.IntegerValue
3

@<SCITEGIC>MOL_PROPERTY
Delta U+W
SciTegic.value.DoubleValue
0.531

@<SCITEGIC>MOL_PROPERTY
U+W
SciTegic.value.DoubleValue
-52.878

@<SCITEGIC>MOL_PROPERTY
Grad RMS
SciTegic.value.DoubleValue
0.000000

@<SCITEGIC>MOL_PROPERTY
U
SciTegic.value.DoubleValue
10.067

@<SCITEGIC>MOL_PROPERTY
W
SciTegic.value.DoubleValue
-62.945

@<SCITEGIC>MOL_PROPERTY
W(PB)
SciTegic.value.DoubleValue
-64.982

@<SCITEGIC>MOL_PROPERTY
W(SA)
SciTegic.value.DoubleValue
2.037

@<SCITEGIC>MOL_PROPERTY
Valence
SciTegic.value.DoubleValue
2.779

@<SCITEGIC>MOL_PROPERTY
Coulomb
SciTegic.value.DoubleValue
6.474

@<SCITEGIC>MOL_PROPERTY
VdW
SciTegic.value.DoubleValue
0.815

@<SCITEGIC>MOL_PROPERTY
VdW6
SciTegic.value.DoubleValue
-5.088

@<SCITEGIC>MOL_PROPERTY
VdW12
SciTegic.value.DoubleValue
5.902

@<SCITEGIC>MOL_PROPERTY
Bond
SciTegic.value.DoubleValue
0.078

@<SCITEGIC>MOL_PROPERTY
Angle
SciTegic.value.DoubleValue
2.651

@<SCITEGIC>MOL_PROPERTY
Pdih
SciTegic.value.DoubleValue
0.050

@<SCITEGIC>MOL_PROPERTY
Idih
SciTegic.value.DoubleValue
0.000

@<SCITEGIC>MOL_PROPERTY
Tether
SciTegic.value.DoubleValue
0.000

@<TRIPOS>MOLECULE
guest-s19_confgen4.mol2 : confsearch ligand conformer 564
          17          16           1
SMALL
USER_CHARGES
 
@<TRIPOS>ATOM
       1    C1      21.755059   20.847189   23.780211 C.2        1 MOL1         0.6173
       2    O1      22.738392   21.489860   23.467465 O.co2      1 MOL1        -0.6755
       3    O2      21.521208   20.513892   24.926804 O.co2      1 MOL1        -0.6755
       4    C2      20.809545   20.466271   22.696248 C.2        1 MOL1        -0.1504
       5    H1      21.078402   20.795955   21.695383 H          1 MOL1         0.0814
       6    C3      19.679182   19.751585   22.898950 C.2        1 MOL1        -0.1394
       7    H2      19.404211   19.414168   23.897979 H          1 MOL1         0.0817
       8    C4      18.719983   19.362966   21.792944 C.3        1 MOL1        -0.1849
       9    H3      18.890474   19.978875   20.899451 H          1 MOL1         0.0736
      10    H4      17.692818   19.575095   22.118434 H          1 MOL1         0.0736
      11    C5      18.828827   17.867956   21.421108 C.3        1 MOL1        -0.1866
      12    H5      18.661020   17.251166   22.314904 H          1 MOL1         0.0738
      13    H6      18.028923   17.615971   20.711280 H          1 MOL1         0.0738
      14    C6      20.191705   17.510444   20.790569 C.3        1 MOL1        -0.2879
      15    H7      21.013583   17.688696   21.496115 H          1 MOL1         0.0750
      16    H8      20.218461   16.451227   20.503846 H          1 MOL1         0.0750
      17    H9      20.377086   18.110406   19.890140 H          1 MOL1         0.0750
@<TRIPOS>BOND
    1     1     2    1
    2     1     3    2
    3     1     4    1
    4     4     5    1
    5     4     6    2
    6     6     7    1
    7     6     8    1
    8     8     9    1
    9     8    10    1
   10     8    11    1
   11    11    12    1
   12    11    13    1
   13    11    14    1
   14    14    15    1
   15    14    16    1
   16    14    17    1
@<TRIPOS>SUBSTRUCTURE
       1 MOL1            1 RESIDUE      1      MOL     
@<SCITEGIC>MOL_PROPERTY
VConf Rank
SciTegic.value.IntegerValue
564

@<SCITEGIC>MOL_PROPERTY
Conf_Id
SciTegic.value.IntegerValue
45

@<SCITEGIC>MOL_PROPERTY
Delta U+W
SciTegic.value.DoubleValue
0.562

@<SCITEGIC>MOL_PROPERTY
U+W
SciTegic.value.DoubleValue
-52.846

@<SCITEGIC>MOL_PROPERTY
Grad RMS
SciTegic.value.DoubleValue
0.000000

@<SCITEGIC>MOL_PROPERTY
U
SciTegic.value.DoubleValue
10.243

@<SCITEGIC>MOL_PROPERTY
W
SciTegic.value.DoubleValue
-63.089

@<SCITEGIC>MOL_PROPERTY
W(PB)
SciTegic.value.DoubleValue
-65.116

@<SCITEGIC>MOL_PROPERTY
W(SA)
SciTegic.value.DoubleValue
2.026

@<SCITEGIC>MOL_PROPERTY
Valence
SciTegic.value.DoubleValue
2.822

@<SCITEGIC>MOL_PROPERTY
Coulomb
SciTegic.value.DoubleValue
6.637

@<SCITEGIC>MOL_PROPERTY
VdW
SciTegic.value.DoubleValue
0.785

@<SCITEGIC>MOL_PROPERTY
VdW6
SciTegic.value.DoubleValue
-5.216

@<SCITEGIC>MOL_PROPERTY
VdW12
SciTegic.value.DoubleValue
6.001

@<SCITEGIC>MOL_PROPERTY
Bond
SciTegic.value.DoubleValue
0.080

@<SCITEGIC>MOL_PROPERTY
Angle
SciTegic.value.DoubleValue
2.678

@<SCITEGIC>MOL_PROPERTY
Pdih
SciTegic.value.DoubleValue
0.064

@<SCITEGIC>MOL_PROPERTY
Idih
SciTegic.value.DoubleValue
0.000

@<SCITEGIC>MOL_PROPERTY
Tether
SciTegic.value.DoubleValue
0.000

@<TRIPOS>MOLECULE
guest-s19_confgen4.mol2 : confsearch ligand conformer 565
          17          16           1
SMALL
USER_CHARGES
 
@<TRIPOS>ATOM
       1    C1      22.134538   20.551426   19.737055 C.2        1 MOL1         0.6173
       2    O1      22.907391   20.026597   18.959266 O.co2      1 MOL1        -0.6755
       3    O2      22.177748   21.735536   20.013481 O.co2      1 MOL1        -0.6755
       4    C2      21.098222   19.687585   20.364742 C.2        1 MOL1        -0.1504
       5    H1      21.114793   18.639475   20.074743 H          1 MOL1         0.0814
       6    C3      20.176488   20.136076   21.246982 C.2        1 MOL1        -0.1394
       7    H2      20.152371   21.183745   21.546285 H          1 MOL1         0.0817
       8    C4      19.127237   19.250376   21.882470 C.3        1 MOL1        -0.1849
       9    H3      18.756239   18.521830   21.148719 H          1 MOL1         0.0736
      10    H4      18.263813   19.859706   22.181809 H          1 MOL1         0.0736
      11    C5      19.687938   18.509681   23.113729 C.3        1 MOL1        -0.1866
      12    H5      20.549378   17.896230   22.815133 H          1 MOL1         0.0738
      13    H6      20.056487   19.240470   23.847001 H          1 MOL1         0.0738
      14    C6      18.621723   17.611826   23.772947 C.3        1 MOL1        -0.2879
      15    H7      17.761879   18.205509   24.110051 H          1 MOL1         0.0750
      16    H8      18.258705   16.851458   23.069033 H          1 MOL1         0.0750
      17    H9      19.038801   17.093509   24.646173 H          1 MOL1         0.0750
@<TRIPOS>BOND
    1     1     2    1
    2     1     3    2
    3     1     4    1
    4     4     5    1
    5     4     6    2
    6     6     7    1
    7     6     8    1
    8     8     9    1
    9     8    10    1
   10     8    11    1
   11    11    12    1
   12    11    13    1
   13    11    14    1
   14    14    15    1
   15    14    16    1
   16    14    17    1
@<TRIPOS>SUBSTRUCTURE
       1 MOL1            1 RESIDUE      1      MOL     
@<SCITEGIC>MOL_PROPERTY
VConf Rank
SciTegic.value.IntegerValue
565

@<SCITEGIC>MOL_PROPERTY
Conf_Id
SciTegic.value.IntegerValue
36

@<SCITEGIC>MOL_PROPERTY
Delta U+W
SciTegic.value.DoubleValue
0.000

@<SCITEGIC>MOL_PROPERTY
U+W
SciTegic.value.DoubleValue
-53.409

@<SCITEGIC>MOL_PROPERTY
Grad RMS
SciTegic.value.DoubleValue
0.000000

@<SCITEGIC>MOL_PROPERTY
U
SciTegic.value.DoubleValue
9.048

@<SCITEGIC>MOL_PROPERTY
W
SciTegic.value.DoubleValue
-62.457

@<SCITEGIC>MOL_PROPERTY
W(PB)
SciTegic.value.DoubleValue
-64.540

@<SCITEGIC>MOL_PROPERTY
W(SA)
SciTegic.value.DoubleValue
2.084

@<SCITEGIC>MOL_PROPERTY
Valence
SciTegic.value.DoubleValue
2.652

@<SCITEGIC>MOL_PROPERTY
Coulomb
SciTegic.value.DoubleValue
5.578

@<SCITEGIC>MOL_PROPERTY
VdW
SciTegic.value.DoubleValue
0.818

@<SCITEGIC>MOL_PROPERTY
VdW6
SciTegic.value.DoubleValue
-4.534

@<SCITEGIC>MOL_PROPERTY
VdW12
SciTegic.value.DoubleValue
5.352

@<SCITEGIC>MOL_PROPERTY
Bond
SciTegic.value.DoubleValue
0.063

@<SCITEGIC>MOL_PROPERTY
Angle
SciTegic.value.DoubleValue
2.579

@<SCITEGIC>MOL_PROPERTY
Pdih
SciTegic.value.DoubleValue
0.010

@<SCITEGIC>MOL_PROPERTY
Idih
SciTegic.value.DoubleValue
0.000

@<SCITEGIC>MOL_PROPERTY
Tether
SciTegic.value.DoubleValue
0.000

@<TRIPOS>MOLECULE
guest-s19_confgen4.mol2 : confsearch ligand conformer 566
          17          16           1
SMALL
USER_CHARGES
 
@<TRIPOS>ATOM
       1    C1      23.093480   18.866027   20.555978 C.2        1 MOL1         0.6173
       2    O1      23.833171   19.543864   21.244300 O.co2      1 MOL1        -0.6755
       3    O2      23.428477   18.406903   19.481414 O.co2      1 MOL1        -0.6755
       4    C2      21.714018   18.571255   21.029640 C.2        1 MOL1        -0.1504
       5    H1      21.105171   17.960236   20.367167 H          1 MOL1         0.0814
       6    C3      21.208312   19.016994   22.202101 C.2        1 MOL1        -0.1394
       7    H2      21.808866   19.631672   22.872384 H          1 MOL1         0.0817
       8    C4      19.803545   18.714175   22.675567 C.3        1 MOL1        -0.1849
       9    H3      19.762999   18.777799   23.771329 H          1 MOL1         0.0736
      10    H4      19.532647   17.682642   22.412200 H          1 MOL1         0.0736
      11    C5      18.780951   19.693331   22.063545 C.3        1 MOL1        -0.1866
      12    H5      19.052789   20.724156   22.330138 H          1 MOL1         0.0738
      13    H6      18.817342   19.627958   20.967204 H          1 MOL1         0.0738
      14    C6      17.347584   19.397093   22.548545 C.3        1 MOL1        -0.2879
      15    H7      17.275744   19.486783   23.640435 H          1 MOL1         0.0750
      16    H8      16.634850   20.103220   22.102981 H          1 MOL1         0.0750
      17    H9      17.039545   18.381625   22.266815 H          1 MOL1         0.0750
@<TRIPOS>BOND
    1     1     2    1
    2     1     3    2
    3     1     4    1
    4     4     5    1
    5     4     6    2
    6     6     7    1
    7     6     8    1
    8     8     9    1
    9     8    10    1
   10     8    11    1
   11    11    12    1
   12    11    13    1
   13    11    14    1
   14    14    15    1
   15    14    16    1
   16    14    17    1
@<TRIPOS>SUBSTRUCTURE
       1 MOL1            1 RESIDUE      1      MOL     
@<SCITEGIC>MOL_PROPERTY
VConf Rank
SciTegic.value.IntegerValue
566

@<SCITEGIC>MOL_PROPERTY
Conf_Id
SciTegic.value.IntegerValue
1

@<SCITEGIC>MOL_PROPERTY
Delta U+W
SciTegic.value.DoubleValue
0.030

@<SCITEGIC>MOL_PROPERTY
U+W
SciTegic.value.DoubleValue
-53.378

@<SCITEGIC>MOL_PROPERTY
Grad RMS
SciTegic.value.DoubleValue
0.000000

@<SCITEGIC>MOL_PROPERTY
U
SciTegic.value.DoubleValue
9.048

@<SCITEGIC>MOL_PROPERTY
W
SciTegic.value.DoubleValue
-62.426

@<SCITEGIC>MOL_PROPERTY
W(PB)
SciTegic.value.DoubleValue
-64.506

@<SCITEGIC>MOL_PROPERTY
W(SA)
SciTegic.value.DoubleValue
2.080

@<SCITEGIC>MOL_PROPERTY
Valence
SciTegic.value.DoubleValue
2.652

@<SCITEGIC>MOL_PROPERTY
Coulomb
SciTegic.value.DoubleValue
5.578

@<SCITEGIC>MOL_PROPERTY
VdW
SciTegic.value.DoubleValue
0.818

@<SCITEGIC>MOL_PROPERTY
VdW6
SciTegic.value.DoubleValue
-4.535

@<SCITEGIC>MOL_PROPERTY
VdW12
SciTegic.value.DoubleValue
5.352

@<SCITEGIC>MOL_PROPERTY
Bond
SciTegic.value.DoubleValue
0.063

@<SCITEGIC>MOL_PROPERTY
Angle
SciTegic.value.DoubleValue
2.579

@<SCITEGIC>MOL_PROPERTY
Pdih
SciTegic.value.DoubleValue
0.010

@<SCITEGIC>MOL_PROPERTY
Idih
SciTegic.value.DoubleValue
0.000

@<SCITEGIC>MOL_PROPERTY
Tether
SciTegic.value.DoubleValue
0.000

@<TRIPOS>MOLECULE
guest-s19_confgen4.mol2 : confsearch ligand conformer 567
          17          16           1
SMALL
USER_CHARGES
 
@<TRIPOS>ATOM
       1    C1      17.062375   19.120411   22.928909 C.2        1 MOL1         0.6173
       2    O1      17.149843   19.747167   23.968124 O.co2      1 MOL1        -0.6755
       3    O2      16.005023   18.930396   22.359953 O.co2      1 MOL1        -0.6755
       4    C2      18.288587   18.548649   22.309568 C.2        1 MOL1        -0.1504
       5    H1      18.140378   17.999377   21.382694 H          1 MOL1         0.0814
       6    C3      19.529126   18.682861   22.831138 C.2        1 MOL1        -0.1394
       7    H2      19.689437   19.234020   23.757486 H          1 MOL1         0.0817
       8    C4      20.773165   18.101360   22.192986 C.3        1 MOL1        -0.1849
       9    H3      20.553382   17.097340   21.805474 H          1 MOL1         0.0736
      10    H4      21.556037   17.971833   22.952346 H          1 MOL1         0.0736
      11    C5      21.309936   18.981564   21.042907 C.3        1 MOL1        -0.1866
      12    H5      22.143959   18.461561   20.551831 H          1 MOL1         0.0738
      13    H6      20.529130   19.111959   20.280826 H          1 MOL1         0.0738
      14    C6      21.794734   20.362985   21.532149 C.3        1 MOL1        -0.2879
      15    H7      22.585362   20.257201   22.286379 H          1 MOL1         0.0750
      16    H8      22.199740   20.948031   20.696327 H          1 MOL1         0.0750
      17    H9      20.971342   20.937083   21.976735 H          1 MOL1         0.0750
@<TRIPOS>BOND
    1     1     2    1
    2     1     3    2
    3     1     4    1
    4     4     5    1
    5     4     6    2
    6     6     7    1
    7     6     8    1
    8     8     9    1
    9     8    10    1
   10     8    11    1
   11    11    12    1
   12    11    13    1
   13    11    14    1
   14    14    15    1
   15    14    16    1
   16    14    17    1
@<TRIPOS>SUBSTRUCTURE
       1 MOL1            1 RESIDUE      1      MOL     
@<SCITEGIC>MOL_PROPERTY
VConf Rank
SciTegic.value.IntegerValue
567

@<SCITEGIC>MOL_PROPERTY
Conf_Id
SciTegic.value.IntegerValue
3

@<SCITEGIC>MOL_PROPERTY
Delta U+W
SciTegic.value.DoubleValue
0.531

@<SCITEGIC>MOL_PROPERTY
U+W
SciTegic.value.DoubleValue
-52.878

@<SCITEGIC>MOL_PROPERTY
Grad RMS
SciTegic.value.DoubleValue
0.000000

@<SCITEGIC>MOL_PROPERTY
U
SciTegic.value.DoubleValue
10.067

@<SCITEGIC>MOL_PROPERTY
W
SciTegic.value.DoubleValue
-62.945

@<SCITEGIC>MOL_PROPERTY
W(PB)
SciTegic.value.DoubleValue
-64.982

@<SCITEGIC>MOL_PROPERTY
W(SA)
SciTegic.value.DoubleValue
2.037

@<SCITEGIC>MOL_PROPERTY
Valence
SciTegic.value.DoubleValue
2.779

@<SCITEGIC>MOL_PROPERTY
Coulomb
SciTegic.value.DoubleValue
6.474

@<SCITEGIC>MOL_PROPERTY
VdW
SciTegic.value.DoubleValue
0.815

@<SCITEGIC>MOL_PROPERTY
VdW6
SciTegic.value.DoubleValue
-5.088

@<SCITEGIC>MOL_PROPERTY
VdW12
SciTegic.value.DoubleValue
5.902

@<SCITEGIC>MOL_PROPERTY
Bond
SciTegic.value.DoubleValue
0.078

@<SCITEGIC>MOL_PROPERTY
Angle
SciTegic.value.DoubleValue
2.651

@<SCITEGIC>MOL_PROPERTY
Pdih
SciTegic.value.DoubleValue
0.050

@<SCITEGIC>MOL_PROPERTY
Idih
SciTegic.value.DoubleValue
0.000

@<SCITEGIC>MOL_PROPERTY
Tether
SciTegic.value.DoubleValue
0.000

@<TRIPOS>MOLECULE
guest-s19_confgen4.mol2 : confsearch ligand conformer 568
          17          16           1
SMALL
USER_CHARGES
 
@<TRIPOS>ATOM
       1    C1      20.124982   16.485397   23.580824 C.2        1 MOL1         0.6173
       2    O1      20.220033   15.350874   23.154675 O.co2      1 MOL1        -0.6755
       3    O2      19.712903   16.739108   24.697188 O.co2      1 MOL1        -0.6755
       4    C2      20.539860   17.594896   22.680290 C.2        1 MOL1        -0.1504
       5    H1      20.898270   17.298493   21.697237 H          1 MOL1         0.0814
       6    C3      20.485644   18.902673   23.021413 C.2        1 MOL1        -0.1394
       7    H2      20.124398   19.208576   24.002965 H          1 MOL1         0.0817
       8    C4      20.906140   20.030104   22.101404 C.3        1 MOL1        -0.1849
       9    H3      21.527958   19.647547   21.280592 H          1 MOL1         0.0736
      10    H4      21.537951   20.732649   22.661096 H          1 MOL1         0.0736
      11    C5      19.696608   20.796271   21.522450 C.3        1 MOL1        -0.1866
      12    H5      19.072610   21.177046   22.342874 H          1 MOL1         0.0738
      13    H6      20.059310   21.674348   20.970521 H          1 MOL1         0.0738
      14    C6      18.839889   19.926912   20.577422 C.3        1 MOL1        -0.2879
      15    H7      18.405829   19.071323   21.110913 H          1 MOL1         0.0750
      16    H8      18.014096   20.514065   20.155304 H          1 MOL1         0.0750
      17    H9      19.442398   19.541440   19.744663 H          1 MOL1         0.0750
@<TRIPOS>BOND
    1     1     2    1
    2     1     3    2
    3     1     4    1
    4     4     5    1
    5     4     6    2
    6     6     7    1
    7     6     8    1
    8     8     9    1
    9     8    10    1
   10     8    11    1
   11    11    12    1
   12    11    13    1
   13    11    14    1
   14    14    15    1
   15    14    16    1
   16    14    17    1
@<TRIPOS>SUBSTRUCTURE
       1 MOL1            1 RESIDUE      1      MOL     
@<SCITEGIC>MOL_PROPERTY
VConf Rank
SciTegic.value.IntegerValue
568

@<SCITEGIC>MOL_PROPERTY
Conf_Id
SciTegic.value.IntegerValue
45

@<SCITEGIC>MOL_PROPERTY
Delta U+W
SciTegic.value.DoubleValue
0.562

@<SCITEGIC>MOL_PROPERTY
U+W
SciTegic.value.DoubleValue
-52.846

@<SCITEGIC>MOL_PROPERTY
Grad RMS
SciTegic.value.DoubleValue
0.000000

@<SCITEGIC>MOL_PROPERTY
U
SciTegic.value.DoubleValue
10.243

@<SCITEGIC>MOL_PROPERTY
W
SciTegic.value.DoubleValue
-63.089

@<SCITEGIC>MOL_PROPERTY
W(PB)
SciTegic.value.DoubleValue
-65.116

@<SCITEGIC>MOL_PROPERTY
W(SA)
SciTegic.value.DoubleValue
2.026

@<SCITEGIC>MOL_PROPERTY
Valence
SciTegic.value.DoubleValue
2.822

@<SCITEGIC>MOL_PROPERTY
Coulomb
SciTegic.value.DoubleValue
6.637

@<SCITEGIC>MOL_PROPERTY
VdW
SciTegic.value.DoubleValue
0.785

@<SCITEGIC>MOL_PROPERTY
VdW6
SciTegic.value.DoubleValue
-5.216

@<SCITEGIC>MOL_PROPERTY
VdW12
SciTegic.value.DoubleValue
6.001

@<SCITEGIC>MOL_PROPERTY
Bond
SciTegic.value.DoubleValue
0.080

@<SCITEGIC>MOL_PROPERTY
Angle
SciTegic.value.DoubleValue
2.678

@<SCITEGIC>MOL_PROPERTY
Pdih
SciTegic.value.DoubleValue
0.064

@<SCITEGIC>MOL_PROPERTY
Idih
SciTegic.value.DoubleValue
0.000

@<SCITEGIC>MOL_PROPERTY
Tether
SciTegic.value.DoubleValue
0.000

@<TRIPOS>MOLECULE
guest-s19_confgen4.mol2 : confsearch ligand conformer 569
          17          16           1
SMALL
USER_CHARGES
 
@<TRIPOS>ATOM
       1    C1      22.803902   20.889707   22.494662 C.2        1 MOL1         0.6173
       2    O1      23.642235   20.740078   23.362136 O.co2      1 MOL1        -0.6755
       3    O2      22.740052   21.888612   21.802920 O.co2      1 MOL1        -0.6755
       4    C2      21.824714   19.788584   22.287587 C.2        1 MOL1        -0.1504
       5    H1      21.937266   18.924704   22.938703 H          1 MOL1         0.0814
       6    C3      20.839732   19.820123   21.361357 C.2        1 MOL1        -0.1394
       7    H2      20.716453   20.681698   20.705413 H          1 MOL1         0.0817
       8    C4      19.846561   18.696837   21.158678 C.3        1 MOL1        -0.1849
       9    H3      20.348271   17.726444   21.274577 H          1 MOL1         0.0736
      10    H4      19.460518   18.728200   20.130878 H          1 MOL1         0.0736
      11    C5      18.672803   18.798154   22.154188 C.3        1 MOL1        -0.1866
      12    H5      19.057012   18.762688   23.183112 H          1 MOL1         0.0738
      13    H6      18.171355   19.768670   22.034947 H          1 MOL1         0.0738
      14    C6      17.651007   17.661972   21.947911 C.3        1 MOL1        -0.2879
      15    H7      17.226995   17.693739   20.935668 H          1 MOL1         0.0750
      16    H8      18.120747   16.680179   22.092350 H          1 MOL1         0.0750
      17    H9      16.824130   17.750648   22.664530 H          1 MOL1         0.0750
@<TRIPOS>BOND
    1     1     2    1
    2     1     3    2
    3     1     4    1
    4     4     5    1
    5     4     6    2
    6     6     7    1
    7     6     8    1
    8     8     9    1
    9     8    10    1
   10     8    11    1
   11    11    12    1
   12    11    13    1
   13    11    14    1
   14    14    15    1
   15    14    16    1
   16    14    17    1
@<TRIPOS>SUBSTRUCTURE
       1 MOL1            1 RESIDUE      1      MOL     
@<SCITEGIC>MOL_PROPERTY
VConf Rank
SciTegic.value.IntegerValue
569

@<SCITEGIC>MOL_PROPERTY
Conf_Id
SciTegic.value.IntegerValue
36

@<SCITEGIC>MOL_PROPERTY
Delta U+W
SciTegic.value.DoubleValue
0.000

@<SCITEGIC>MOL_PROPERTY
U+W
SciTegic.value.DoubleValue
-53.409

@<SCITEGIC>MOL_PROPERTY
Grad RMS
SciTegic.value.DoubleValue
0.000000

@<SCITEGIC>MOL_PROPERTY
U
SciTegic.value.DoubleValue
9.048

@<SCITEGIC>MOL_PROPERTY
W
SciTegic.value.DoubleValue
-62.457

@<SCITEGIC>MOL_PROPERTY
W(PB)
SciTegic.value.DoubleValue
-64.540

@<SCITEGIC>MOL_PROPERTY
W(SA)
SciTegic.value.DoubleValue
2.084

@<SCITEGIC>MOL_PROPERTY
Valence
SciTegic.value.DoubleValue
2.652

@<SCITEGIC>MOL_PROPERTY
Coulomb
SciTegic.value.DoubleValue
5.578

@<SCITEGIC>MOL_PROPERTY
VdW
SciTegic.value.DoubleValue
0.818

@<SCITEGIC>MOL_PROPERTY
VdW6
SciTegic.value.DoubleValue
-4.534

@<SCITEGIC>MOL_PROPERTY
VdW12
SciTegic.value.DoubleValue
5.352

@<SCITEGIC>MOL_PROPERTY
Bond
SciTegic.value.DoubleValue
0.063

@<SCITEGIC>MOL_PROPERTY
Angle
SciTegic.value.DoubleValue
2.579

@<SCITEGIC>MOL_PROPERTY
Pdih
SciTegic.value.DoubleValue
0.010

@<SCITEGIC>MOL_PROPERTY
Idih
SciTegic.value.DoubleValue
0.000

@<SCITEGIC>MOL_PROPERTY
Tether
SciTegic.value.DoubleValue
0.000

@<TRIPOS>MOLECULE
guest-s19_confgen4.mol2 : confsearch ligand conformer 570
          17          16           1
SMALL
USER_CHARGES
 
@<TRIPOS>ATOM
       1    C1      17.118827   17.373408   21.721179 C.2        1 MOL1         0.6173
       2    O1      16.251336   18.174970   21.429032 O.co2      1 MOL1        -0.6755
       3    O2      16.874783   16.236027   22.074041 O.co2      1 MOL1        -0.6755
       4    C2      18.548627   17.779297   21.649835 C.2        1 MOL1        -0.1504
       5    H1      19.272995   17.015665   21.923816 H          1 MOL1         0.0814
       6    C3      18.964883   19.010362   21.275275 C.2        1 MOL1        -0.1394
       7    H2      18.247590   19.783633   21.000836 H          1 MOL1         0.0817
       8    C4      20.421030   19.415623   21.207173 C.3        1 MOL1        -0.1849
       9    H3      20.539990   20.241306   20.492692 H          1 MOL1         0.0736
      10    H4      21.025413   18.581838   20.824642 H          1 MOL1         0.0736
      11    C5      20.948809   19.849601   22.589971 C.3        1 MOL1        -0.1866
      12    H5      20.344126   20.685001   22.969485 H          1 MOL1         0.0738
      13    H6      20.834281   19.023139   23.305096 H          1 MOL1         0.0738
      14    C6      22.430102   20.273113   22.527249 C.3        1 MOL1        -0.2879
      15    H7      22.568067   21.119929   21.842194 H          1 MOL1         0.0750
      16    H8      22.787445   20.578249   23.519382 H          1 MOL1         0.0750
      17    H9      23.061187   19.444572   22.179848 H          1 MOL1         0.0750
@<TRIPOS>BOND
    1     1     2    1
    2     1     3    2
    3     1     4    1
    4     4     5    1
    5     4     6    2
    6     6     7    1
    7     6     8    1
    8     8     9    1
    9     8    10    1
   10     8    11    1
   11    11    12    1
   12    11    13    1
   13    11    14    1
   14    14    15    1
   15    14    16    1
   16    14    17    1
@<TRIPOS>SUBSTRUCTURE
       1 MOL1            1 RESIDUE      1      MOL     
@<SCITEGIC>MOL_PROPERTY
VConf Rank
SciTegic.value.IntegerValue
570

@<SCITEGIC>MOL_PROPERTY
Conf_Id
SciTegic.value.IntegerValue
1

@<SCITEGIC>MOL_PROPERTY
Delta U+W
SciTegic.value.DoubleValue
0.030

@<SCITEGIC>MOL_PROPERTY
U+W
SciTegic.value.DoubleValue
-53.378

@<SCITEGIC>MOL_PROPERTY
Grad RMS
SciTegic.value.DoubleValue
0.000000

@<SCITEGIC>MOL_PROPERTY
U
SciTegic.value.DoubleValue
9.048

@<SCITEGIC>MOL_PROPERTY
W
SciTegic.value.DoubleValue
-62.426

@<SCITEGIC>MOL_PROPERTY
W(PB)
SciTegic.value.DoubleValue
-64.506

@<SCITEGIC>MOL_PROPERTY
W(SA)
SciTegic.value.DoubleValue
2.080

@<SCITEGIC>MOL_PROPERTY
Valence
SciTegic.value.DoubleValue
2.652

@<SCITEGIC>MOL_PROPERTY
Coulomb
SciTegic.value.DoubleValue
5.578

@<SCITEGIC>MOL_PROPERTY
VdW
SciTegic.value.DoubleValue
0.818

@<SCITEGIC>MOL_PROPERTY
VdW6
SciTegic.value.DoubleValue
-4.535

@<SCITEGIC>MOL_PROPERTY
VdW12
SciTegic.value.DoubleValue
5.352

@<SCITEGIC>MOL_PROPERTY
Bond
SciTegic.value.DoubleValue
0.063

@<SCITEGIC>MOL_PROPERTY
Angle
SciTegic.value.DoubleValue
2.579

@<SCITEGIC>MOL_PROPERTY
Pdih
SciTegic.value.DoubleValue
0.010

@<SCITEGIC>MOL_PROPERTY
Idih
SciTegic.value.DoubleValue
0.000

@<SCITEGIC>MOL_PROPERTY
Tether
SciTegic.value.DoubleValue
0.000

@<TRIPOS>MOLECULE
guest-s19_confgen4.mol2 : confsearch ligand conformer 571
          17          16           1
SMALL
USER_CHARGES
 
@<TRIPOS>ATOM
       1    C1      18.919892   21.966536   21.946623 C.2        1 MOL1         0.6173
       2    O1      18.968575   22.262063   23.125917 O.co2      1 MOL1        -0.6755
       3    O2      18.782944   22.791885   21.064662 O.co2      1 MOL1        -0.6755
       4    C2      19.026902   20.538831   21.541284 C.2        1 MOL1        -0.1504
       5    H1      18.975036   20.343577   20.472665 H          1 MOL1         0.0814
       6    C3      19.183067   19.517375   22.413767 C.2        1 MOL1        -0.1394
       7    H2      19.239647   19.702009   23.486291 H          1 MOL1         0.0817
       8    C4      19.295155   18.066921   21.993489 C.3        1 MOL1        -0.1849
       9    H3      18.582822   17.862269   21.182794 H          1 MOL1         0.0736
      10    H4      19.005701   17.413583   22.827551 H          1 MOL1         0.0736
      11    C5      20.719136   17.700467   21.520678 C.3        1 MOL1        -0.1866
      12    H5      20.714969   16.673182   21.131035 H          1 MOL1         0.0738
      13    H6      21.011123   18.351780   20.685237 H          1 MOL1         0.0738
      14    C6      21.763664   17.806581   22.652232 C.3        1 MOL1        -0.2879
      15    H7      21.498550   17.153532   23.493889 H          1 MOL1         0.0750
      16    H8      22.755988   17.507484   22.290650 H          1 MOL1         0.0750
      17    H9      21.838386   18.835724   23.027068 H          1 MOL1         0.0750
@<TRIPOS>BOND
    1     1     2    1
    2     1     3    2
    3     1     4    1
    4     4     5    1
    5     4     6    2
    6     6     7    1
    7     6     8    1
    8     8     9    1
    9     8    10    1
   10     8    11    1
   11    11    12    1
   12    11    13    1
   13    11    14    1
   14    14    15    1
   15    14    16    1
   16    14    17    1
@<TRIPOS>SUBSTRUCTURE
       1 MOL1            1 RESIDUE      1      MOL     
@<SCITEGIC>MOL_PROPERTY
VConf Rank
SciTegic.value.IntegerValue
571

@<SCITEGIC>MOL_PROPERTY
Conf_Id
SciTegic.value.IntegerValue
3

@<SCITEGIC>MOL_PROPERTY
Delta U+W
SciTegic.value.DoubleValue
0.531

@<SCITEGIC>MOL_PROPERTY
U+W
SciTegic.value.DoubleValue
-52.878

@<SCITEGIC>MOL_PROPERTY
Grad RMS
SciTegic.value.DoubleValue
0.000000

@<SCITEGIC>MOL_PROPERTY
U
SciTegic.value.DoubleValue
10.067

@<SCITEGIC>MOL_PROPERTY
W
SciTegic.value.DoubleValue
-62.945

@<SCITEGIC>MOL_PROPERTY
W(PB)
SciTegic.value.DoubleValue
-64.982

@<SCITEGIC>MOL_PROPERTY
W(SA)
SciTegic.value.DoubleValue
2.037

@<SCITEGIC>MOL_PROPERTY
Valence
SciTegic.value.DoubleValue
2.779

@<SCITEGIC>MOL_PROPERTY
Coulomb
SciTegic.value.DoubleValue
6.474

@<SCITEGIC>MOL_PROPERTY
VdW
SciTegic.value.DoubleValue
0.815

@<SCITEGIC>MOL_PROPERTY
VdW6
SciTegic.value.DoubleValue
-5.088

@<SCITEGIC>MOL_PROPERTY
VdW12
SciTegic.value.DoubleValue
5.902

@<SCITEGIC>MOL_PROPERTY
Bond
SciTegic.value.DoubleValue
0.078

@<SCITEGIC>MOL_PROPERTY
Angle
SciTegic.value.DoubleValue
2.651

@<SCITEGIC>MOL_PROPERTY
Pdih
SciTegic.value.DoubleValue
0.050

@<SCITEGIC>MOL_PROPERTY
Idih
SciTegic.value.DoubleValue
0.000

@<SCITEGIC>MOL_PROPERTY
Tether
SciTegic.value.DoubleValue
0.000

@<TRIPOS>MOLECULE
guest-s19_confgen4.mol2 : confsearch ligand conformer 572
          17          16           1
SMALL
USER_CHARGES
 
@<TRIPOS>ATOM
       1    C1      22.070876   21.246234   22.430831 C.2        1 MOL1         0.6173
       2    O1      23.243258   21.245227   22.109424 O.co2      1 MOL1        -0.6755
       3    O2      21.619863   21.990758   23.280960 O.co2      1 MOL1        -0.6755
       4    C2      21.167366   20.288384   21.737820 C.2        1 MOL1        -0.1504
       5    H1      21.634891   19.652657   20.989503 H          1 MOL1         0.0814
       6    C3      19.844063   20.179324   21.995812 C.2        1 MOL1        -0.1394
       7    H2      19.368327   20.809841   22.746573 H          1 MOL1         0.0817
       8    C4      18.927358   19.201269   21.290549 C.3        1 MOL1        -0.1849
       9    H3      19.392467   18.833787   20.365687 H          1 MOL1         0.0736
      10    H4      18.011854   19.724962   20.984596 H          1 MOL1         0.0736
      11    C5      18.543624   18.005232   22.189109 C.3        1 MOL1        -0.1866
      12    H5      18.080676   18.372069   23.115699 H          1 MOL1         0.0738
      13    H6      17.782755   17.401039   21.676052 H          1 MOL1         0.0738
      14    C6      19.751956   17.107581   22.531141 C.3        1 MOL1        -0.2879
      15    H7      20.507934   17.661690   23.102555 H          1 MOL1         0.0750
      16    H8      19.435549   16.248550   23.136797 H          1 MOL1         0.0750
      17    H9      20.226061   16.723118   21.618724 H          1 MOL1         0.0750
@<TRIPOS>BOND
    1     1     2    1
    2     1     3    2
    3     1     4    1
    4     4     5    1
    5     4     6    2
    6     6     7    1
    7     6     8    1
    8     8     9    1
    9     8    10    1
   10     8    11    1
   11    11    12    1
   12    11    13    1
   13    11    14    1
   14    14    15    1
   15    14    16    1
   16    14    17    1
@<TRIPOS>SUBSTRUCTURE
       1 MOL1            1 RESIDUE      1      MOL     
@<SCITEGIC>MOL_PROPERTY
VConf Rank
SciTegic.value.IntegerValue
572

@<SCITEGIC>MOL_PROPERTY
Conf_Id
SciTegic.value.IntegerValue
45

@<SCITEGIC>MOL_PROPERTY
Delta U+W
SciTegic.value.DoubleValue
0.562

@<SCITEGIC>MOL_PROPERTY
U+W
SciTegic.value.DoubleValue
-52.846

@<SCITEGIC>MOL_PROPERTY
Grad RMS
SciTegic.value.DoubleValue
0.000000

@<SCITEGIC>MOL_PROPERTY
U
SciTegic.value.DoubleValue
10.243

@<SCITEGIC>MOL_PROPERTY
W
SciTegic.value.DoubleValue
-63.089

@<SCITEGIC>MOL_PROPERTY
W(PB)
SciTegic.value.DoubleValue
-65.116

@<SCITEGIC>MOL_PROPERTY
W(SA)
SciTegic.value.DoubleValue
2.026

@<SCITEGIC>MOL_PROPERTY
Valence
SciTegic.value.DoubleValue
2.822

@<SCITEGIC>MOL_PROPERTY
Coulomb
SciTegic.value.DoubleValue
6.637

@<SCITEGIC>MOL_PROPERTY
VdW
SciTegic.value.DoubleValue
0.785

@<SCITEGIC>MOL_PROPERTY
VdW6
SciTegic.value.DoubleValue
-5.216

@<SCITEGIC>MOL_PROPERTY
VdW12
SciTegic.value.DoubleValue
6.001

@<SCITEGIC>MOL_PROPERTY
Bond
SciTegic.value.DoubleValue
0.080

@<SCITEGIC>MOL_PROPERTY
Angle
SciTegic.value.DoubleValue
2.678

@<SCITEGIC>MOL_PROPERTY
Pdih
SciTegic.value.DoubleValue
0.064

@<SCITEGIC>MOL_PROPERTY
Idih
SciTegic.value.DoubleValue
0.000

@<SCITEGIC>MOL_PROPERTY
Tether
SciTegic.value.DoubleValue
0.000

@<TRIPOS>MOLECULE
guest-s19_confgen4.mol2 : confsearch ligand conformer 573
          17          16           1
SMALL
USER_CHARGES
 
@<TRIPOS>ATOM
       1    C1      22.116536   21.124653   20.227851 C.2        1 MOL1         0.6173
       2    O1      22.618243   20.966556   19.131950 O.co2      1 MOL1        -0.6755
       3    O2      22.496920   21.973341   21.012345 O.co2      1 MOL1        -0.6755
       4    C2      20.988377   20.229878   20.603081 C.2        1 MOL1        -0.1504
       5    H1      20.698081   19.493742   19.856931 H          1 MOL1         0.0814
       6    C3      20.338691   20.292313   21.787604 C.2        1 MOL1        -0.1394
       7    H2      20.622899   21.024419   22.543262 H          1 MOL1         0.0817
       8    C4      19.193622   19.377051   22.162239 C.3        1 MOL1        -0.1849
       9    H3      18.553999   19.198231   21.287187 H          1 MOL1         0.0736
      10    H4      18.562402   19.867163   22.915723 H          1 MOL1         0.0736
      11    C5      19.707262   18.031886   22.715157 C.3        1 MOL1        -0.1866
      12    H5      20.335632   17.538218   21.960834 H          1 MOL1         0.0738
      13    H6      20.345046   18.213214   23.591467 H          1 MOL1         0.0738
      14    C6      18.546041   17.096703   23.108255 C.3        1 MOL1        -0.2879
      15    H7      17.919337   17.553585   23.885385 H          1 MOL1         0.0750
      16    H8      17.909960   16.874446   22.241399 H          1 MOL1         0.0750
      17    H9      18.930701   16.145639   23.498951 H          1 MOL1         0.0750
@<TRIPOS>BOND
    1     1     2    1
    2     1     3    2
    3     1     4    1
    4     4     5    1
    5     4     6    2
    6     6     7    1
    7     6     8    1
    8     8     9    1
    9     8    10    1
   10     8    11    1
   11    11    12    1
   12    11    13    1
   13    11    14    1
   14    14    15    1
   15    14    16    1
   16    14    17    1
@<TRIPOS>SUBSTRUCTURE
       1 MOL1            1 RESIDUE      1      MOL     
@<SCITEGIC>MOL_PROPERTY
VConf Rank
SciTegic.value.IntegerValue
573

@<SCITEGIC>MOL_PROPERTY
Conf_Id
SciTegic.value.IntegerValue
36

@<SCITEGIC>MOL_PROPERTY
Delta U+W
SciTegic.value.DoubleValue
0.000

@<SCITEGIC>MOL_PROPERTY
U+W
SciTegic.value.DoubleValue
-53.409

@<SCITEGIC>MOL_PROPERTY
Grad RMS
SciTegic.value.DoubleValue
0.000000

@<SCITEGIC>MOL_PROPERTY
U
SciTegic.value.DoubleValue
9.048

@<SCITEGIC>MOL_PROPERTY
W
SciTegic.value.DoubleValue
-62.457

@<SCITEGIC>MOL_PROPERTY
W(PB)
SciTegic.value.DoubleValue
-64.540

@<SCITEGIC>MOL_PROPERTY
W(SA)
SciTegic.value.DoubleValue
2.084

@<SCITEGIC>MOL_PROPERTY
Valence
SciTegic.value.DoubleValue
2.652

@<SCITEGIC>MOL_PROPERTY
Coulomb
SciTegic.value.DoubleValue
5.578

@<SCITEGIC>MOL_PROPERTY
VdW
SciTegic.value.DoubleValue
0.818

@<SCITEGIC>MOL_PROPERTY
VdW6
SciTegic.value.DoubleValue
-4.534

@<SCITEGIC>MOL_PROPERTY
VdW12
SciTegic.value.DoubleValue
5.352

@<SCITEGIC>MOL_PROPERTY
Bond
SciTegic.value.DoubleValue
0.063

@<SCITEGIC>MOL_PROPERTY
Angle
SciTegic.value.DoubleValue
2.579

@<SCITEGIC>MOL_PROPERTY
Pdih
SciTegic.value.DoubleValue
0.010

@<SCITEGIC>MOL_PROPERTY
Idih
SciTegic.value.DoubleValue
0.000

@<SCITEGIC>MOL_PROPERTY
Tether
SciTegic.value.DoubleValue
0.000

@<TRIPOS>MOLECULE
guest-s19_confgen4.mol2 : confsearch ligand conformer 574
          17          16           1
SMALL
USER_CHARGES
 
@<TRIPOS>ATOM
       1    C1      21.343058   21.441017   23.938351 C.2        1 MOL1         0.6173
       2    O1      21.166987   21.061821   25.080980 O.co2      1 MOL1        -0.6755
       3    O2      21.731653   22.560396   23.666890 O.co2      1 MOL1        -0.6755
       4    C2      21.079343   20.511504   22.806705 C.2        1 MOL1        -0.1504
       5    H1      21.256744   20.912946   21.811576 H          1 MOL1         0.0814
       6    C3      20.643613   19.240527   22.961115 C.2        1 MOL1        -0.1394
       7    H2      20.460562   18.828901   23.953501 H          1 MOL1         0.0817
       8    C4      20.376047   18.302259   21.804698 C.3        1 MOL1        -0.1849
       9    H3      20.469569   17.262337   22.145583 H          1 MOL1         0.0736
      10    H4      21.134438   18.444185   21.022709 H          1 MOL1         0.0736
      11    C5      18.969592   18.526823   21.212690 C.3        1 MOL1        -0.1866
      12    H5      18.212731   18.382197   21.996151 H          1 MOL1         0.0738
      13    H6      18.875733   19.565815   20.867369 H          1 MOL1         0.0738
      14    C6      18.685548   17.567800   20.039183 C.3        1 MOL1        -0.2879
      15    H7      18.741765   16.520796   20.364841 H          1 MOL1         0.0750
      16    H8      17.681345   17.742334   19.631453 H          1 MOL1         0.0750
      17    H9      19.410765   17.714075   19.227949 H          1 MOL1         0.0750
@<TRIPOS>BOND
    1     1     2    1
    2     1     3    2
    3     1     4    1
    4     4     5    1
    5     4     6    2
    6     6     7    1
    7     6     8    1
    8     8     9    1
    9     8    10    1
   10     8    11    1
   11    11    12    1
   12    11    13    1
   13    11    14    1
   14    14    15    1
   15    14    16    1
   16    14    17    1
@<TRIPOS>SUBSTRUCTURE
       1 MOL1            1 RESIDUE      1      MOL     
@<SCITEGIC>MOL_PROPERTY
VConf Rank
SciTegic.value.IntegerValue
574

@<SCITEGIC>MOL_PROPERTY
Conf_Id
SciTegic.value.IntegerValue
1

@<SCITEGIC>MOL_PROPERTY
Delta U+W
SciTegic.value.DoubleValue
0.030

@<SCITEGIC>MOL_PROPERTY
U+W
SciTegic.value.DoubleValue
-53.378

@<SCITEGIC>MOL_PROPERTY
Grad RMS
SciTegic.value.DoubleValue
0.000000

@<SCITEGIC>MOL_PROPERTY
U
SciTegic.value.DoubleValue
9.048

@<SCITEGIC>MOL_PROPERTY
W
SciTegic.value.DoubleValue
-62.426

@<SCITEGIC>MOL_PROPERTY
W(PB)
SciTegic.value.DoubleValue
-64.506

@<SCITEGIC>MOL_PROPERTY
W(SA)
SciTegic.value.DoubleValue
2.080

@<SCITEGIC>MOL_PROPERTY
Valence
SciTegic.value.DoubleValue
2.652

@<SCITEGIC>MOL_PROPERTY
Coulomb
SciTegic.value.DoubleValue
5.578

@<SCITEGIC>MOL_PROPERTY
VdW
SciTegic.value.DoubleValue
0.818

@<SCITEGIC>MOL_PROPERTY
VdW6
SciTegic.value.DoubleValue
-4.535

@<SCITEGIC>MOL_PROPERTY
VdW12
SciTegic.value.DoubleValue
5.352

@<SCITEGIC>MOL_PROPERTY
Bond
SciTegic.value.DoubleValue
0.063

@<SCITEGIC>MOL_PROPERTY
Angle
SciTegic.value.DoubleValue
2.579

@<SCITEGIC>MOL_PROPERTY
Pdih
SciTegic.value.DoubleValue
0.010

@<SCITEGIC>MOL_PROPERTY
Idih
SciTegic.value.DoubleValue
0.000

@<SCITEGIC>MOL_PROPERTY
Tether
SciTegic.value.DoubleValue
0.000

@<TRIPOS>MOLECULE
guest-s19_confgen4.mol2 : confsearch ligand conformer 575
          17          16           1
SMALL
USER_CHARGES
 
@<TRIPOS>ATOM
       1    C1      16.947124   18.942726   22.290429 C.2        1 MOL1         0.6173
       2    O1      16.814343   19.086469   23.491323 O.co2      1 MOL1        -0.6755
       3    O2      16.027115   19.065870   21.505425 O.co2      1 MOL1        -0.6755
       4    C2      18.283467   18.597513   21.734455 C.2        1 MOL1        -0.1504
       5    H1      18.332883   18.482507   20.654134 H          1 MOL1         0.0814
       6    C3      19.393573   18.431453   22.488825 C.2        1 MOL1        -0.1394
       7    H2      19.356080   18.547646   23.571734 H          1 MOL1         0.0817
       8    C4      20.751309   18.083906   21.915433 C.3        1 MOL1        -0.1849
       9    H3      20.634022   17.339592   21.116204 H          1 MOL1         0.0736
      10    H4      21.371645   17.609011   22.687412 H          1 MOL1         0.0736
      11    C5      21.485217   19.320537   21.351800 C.3        1 MOL1        -0.1866
      12    H5      22.410752   18.994579   20.857543 H          1 MOL1         0.0738
      13    H6      20.867423   19.797201   20.578140 H          1 MOL1         0.0738
      14    C6      21.834030   20.351233   22.446655 C.3        1 MOL1        -0.2879
      15    H7      22.462468   19.899591   23.225263 H          1 MOL1         0.0750
      16    H8      22.383191   21.199222   22.017418 H          1 MOL1         0.0750
      17    H9      20.926915   20.744742   22.923638 H          1 MOL1         0.0750
@<TRIPOS>BOND
    1     1     2    1
    2     1     3    2
    3     1     4    1
    4     4     5    1
    5     4     6    2
    6     6     7    1
    7     6     8    1
    8     8     9    1
    9     8    10    1
   10     8    11    1
   11    11    12    1
   12    11    13    1
   13    11    14    1
   14    14    15    1
   15    14    16    1
   16    14    17    1
@<TRIPOS>SUBSTRUCTURE
       1 MOL1            1 RESIDUE      1      MOL     
@<SCITEGIC>MOL_PROPERTY
VConf Rank
SciTegic.value.IntegerValue
575

@<SCITEGIC>MOL_PROPERTY
Conf_Id
SciTegic.value.IntegerValue
3

@<SCITEGIC>MOL_PROPERTY
Delta U+W
SciTegic.value.DoubleValue
0.531

@<SCITEGIC>MOL_PROPERTY
U+W
SciTegic.value.DoubleValue
-52.878

@<SCITEGIC>MOL_PROPERTY
Grad RMS
SciTegic.value.DoubleValue
0.000000

@<SCITEGIC>MOL_PROPERTY
U
SciTegic.value.DoubleValue
10.067

@<SCITEGIC>MOL_PROPERTY
W
SciTegic.value.DoubleValue
-62.945

@<SCITEGIC>MOL_PROPERTY
W(PB)
SciTegic.value.DoubleValue
-64.982

@<SCITEGIC>MOL_PROPERTY
W(SA)
SciTegic.value.DoubleValue
2.037

@<SCITEGIC>MOL_PROPERTY
Valence
SciTegic.value.DoubleValue
2.779

@<SCITEGIC>MOL_PROPERTY
Coulomb
SciTegic.value.DoubleValue
6.474

@<SCITEGIC>MOL_PROPERTY
VdW
SciTegic.value.DoubleValue
0.815

@<SCITEGIC>MOL_PROPERTY
VdW6
SciTegic.value.DoubleValue
-5.088

@<SCITEGIC>MOL_PROPERTY
VdW12
SciTegic.value.DoubleValue
5.902

@<SCITEGIC>MOL_PROPERTY
Bond
SciTegic.value.DoubleValue
0.078

@<SCITEGIC>MOL_PROPERTY
Angle
SciTegic.value.DoubleValue
2.651

@<SCITEGIC>MOL_PROPERTY
Pdih
SciTegic.value.DoubleValue
0.050

@<SCITEGIC>MOL_PROPERTY
Idih
SciTegic.value.DoubleValue
0.000

@<SCITEGIC>MOL_PROPERTY
Tether
SciTegic.value.DoubleValue
0.000

@<TRIPOS>MOLECULE
guest-s19_confgen4.mol2 : confsearch ligand conformer 576
          17          16           1
SMALL
USER_CHARGES
 
@<TRIPOS>ATOM
       1    C1      18.345228   21.500232   22.908532 C.2        1 MOL1         0.6173
       2    O1      17.373796   21.999207   22.374561 O.co2      1 MOL1        -0.6755
       3    O2      19.050425   22.105117   23.694190 O.co2      1 MOL1        -0.6755
       4    C2      18.663317   20.085907   22.573009 C.2        1 MOL1        -0.1504
       5    H1      17.992990   19.604639   21.864666 H          1 MOL1         0.0814
       6    C3      19.712753   19.406587   23.089529 C.2        1 MOL1        -0.1394
       7    H2      20.391421   19.882349   23.797045 H          1 MOL1         0.0817
       8    C4      20.035595   17.967614   22.743887 C.3        1 MOL1        -0.1849
       9    H3      19.166113   17.475467   22.287234 H          1 MOL1         0.0736
      10    H4      20.247603   17.415662   23.669312 H          1 MOL1         0.0736
      11    C5      21.252916   17.850276   21.800740 C.3        1 MOL1        -0.1866
      12    H5      22.122474   18.344649   22.255628 H          1 MOL1         0.0738
      13    H6      21.518156   16.790020   21.688028 H          1 MOL1         0.0738
      14    C6      20.983199   18.452271   20.405145 C.3        1 MOL1        -0.2879
      15    H7      20.777044   19.528473   20.471034 H          1 MOL1         0.0750
      16    H8      21.854159   18.316175   19.751101 H          1 MOL1         0.0750
      17    H9      20.121692   17.967077   19.928190 H          1 MOL1         0.0750
@<TRIPOS>BOND
    1     1     2    1
    2     1     3    2
    3     1     4    1
    4     4     5    1
    5     4     6    2
    6     6     7    1
    7     6     8    1
    8     8     9    1
    9     8    10    1
   10     8    11    1
   11    11    12    1
   12    11    13    1
   13    11    14    1
   14    14    15    1
   15    14    16    1
   16    14    17    1
@<TRIPOS>SUBSTRUCTURE
       1 MOL1            1 RESIDUE      1      MOL     
@<SCITEGIC>MOL_PROPERTY
VConf Rank
SciTegic.value.IntegerValue
576

@<SCITEGIC>MOL_PROPERTY
Conf_Id
SciTegic.value.IntegerValue
45

@<SCITEGIC>MOL_PROPERTY
Delta U+W
SciTegic.value.DoubleValue
0.562

@<SCITEGIC>MOL_PROPERTY
U+W
SciTegic.value.DoubleValue
-52.846

@<SCITEGIC>MOL_PROPERTY
Grad RMS
SciTegic.value.DoubleValue
0.000000

@<SCITEGIC>MOL_PROPERTY
U
SciTegic.value.DoubleValue
10.243

@<SCITEGIC>MOL_PROPERTY
W
SciTegic.value.DoubleValue
-63.089

@<SCITEGIC>MOL_PROPERTY
W(PB)
SciTegic.value.DoubleValue
-65.116

@<SCITEGIC>MOL_PROPERTY
W(SA)
SciTegic.value.DoubleValue
2.026

@<SCITEGIC>MOL_PROPERTY
Valence
SciTegic.value.DoubleValue
2.822

@<SCITEGIC>MOL_PROPERTY
Coulomb
SciTegic.value.DoubleValue
6.637

@<SCITEGIC>MOL_PROPERTY
VdW
SciTegic.value.DoubleValue
0.785

@<SCITEGIC>MOL_PROPERTY
VdW6
SciTegic.value.DoubleValue
-5.216

@<SCITEGIC>MOL_PROPERTY
VdW12
SciTegic.value.DoubleValue
6.001

@<SCITEGIC>MOL_PROPERTY
Bond
SciTegic.value.DoubleValue
0.080

@<SCITEGIC>MOL_PROPERTY
Angle
SciTegic.value.DoubleValue
2.678

@<SCITEGIC>MOL_PROPERTY
Pdih
SciTegic.value.DoubleValue
0.064

@<SCITEGIC>MOL_PROPERTY
Idih
SciTegic.value.DoubleValue
0.000

@<SCITEGIC>MOL_PROPERTY
Tether
SciTegic.value.DoubleValue
0.000

@<TRIPOS>MOLECULE
guest-s19_confgen4.mol2 : confsearch ligand conformer 577
          17          16           1
SMALL
USER_CHARGES
 
@<TRIPOS>ATOM
       1    C1      20.171977   18.989742   25.279459 C.2        1 MOL1         0.6173
       2    O1      19.879895   18.080408   26.031459 O.co2      1 MOL1        -0.6755
       3    O2      20.378411   20.125218   25.664780 O.co2      1 MOL1        -0.6755
       4    C2      20.277008   18.675447   23.828821 C.2        1 MOL1        -0.1504
       5    H1      20.080381   17.642297   23.551607 H          1 MOL1         0.0814
       6    C3      20.591962   19.587252   22.880929 C.2        1 MOL1        -0.1394
       7    H2      20.788560   20.625591   23.147337 H          1 MOL1         0.0817
       8    C4      20.694582   19.259797   21.407334 C.3        1 MOL1        -0.1849
       9    H3      21.151275   18.269678   21.273533 H          1 MOL1         0.0736
      10    H4      21.361899   19.980660   20.915977 H          1 MOL1         0.0736
      11    C5      19.310623   19.290900   20.727111 C.3        1 MOL1        -0.1866
      12    H5      18.642941   18.567129   21.214879 H          1 MOL1         0.0738
      13    H6      18.856772   20.282760   20.860534 H          1 MOL1         0.0738
      14    C6      19.407760   18.967375   19.222644 C.3        1 MOL1        -0.2879
      15    H7      20.045059   19.695844   18.704363 H          1 MOL1         0.0750
      16    H8      19.830364   17.966779   19.062485 H          1 MOL1         0.0750
      17    H9      18.414281   18.994160   18.756369 H          1 MOL1         0.0750
@<TRIPOS>BOND
    1     1     2    1
    2     1     3    2
    3     1     4    1
    4     4     5    1
    5     4     6    2
    6     6     7    1
    7     6     8    1
    8     8     9    1
    9     8    10    1
   10     8    11    1
   11    11    12    1
   12    11    13    1
   13    11    14    1
   14    14    15    1
   15    14    16    1
   16    14    17    1
@<TRIPOS>SUBSTRUCTURE
       1 MOL1            1 RESIDUE      1      MOL     
@<SCITEGIC>MOL_PROPERTY
VConf Rank
SciTegic.value.IntegerValue
577

@<SCITEGIC>MOL_PROPERTY
Conf_Id
SciTegic.value.IntegerValue
36

@<SCITEGIC>MOL_PROPERTY
Delta U+W
SciTegic.value.DoubleValue
0.000

@<SCITEGIC>MOL_PROPERTY
U+W
SciTegic.value.DoubleValue
-53.409

@<SCITEGIC>MOL_PROPERTY
Grad RMS
SciTegic.value.DoubleValue
0.000000

@<SCITEGIC>MOL_PROPERTY
U
SciTegic.value.DoubleValue
9.048

@<SCITEGIC>MOL_PROPERTY
W
SciTegic.value.DoubleValue
-62.457

@<SCITEGIC>MOL_PROPERTY
W(PB)
SciTegic.value.DoubleValue
-64.540

@<SCITEGIC>MOL_PROPERTY
W(SA)
SciTegic.value.DoubleValue
2.084

@<SCITEGIC>MOL_PROPERTY
Valence
SciTegic.value.DoubleValue
2.652

@<SCITEGIC>MOL_PROPERTY
Coulomb
SciTegic.value.DoubleValue
5.578

@<SCITEGIC>MOL_PROPERTY
VdW
SciTegic.value.DoubleValue
0.818

@<SCITEGIC>MOL_PROPERTY
VdW6
SciTegic.value.DoubleValue
-4.534

@<SCITEGIC>MOL_PROPERTY
VdW12
SciTegic.value.DoubleValue
5.352

@<SCITEGIC>MOL_PROPERTY
Bond
SciTegic.value.DoubleValue
0.063

@<SCITEGIC>MOL_PROPERTY
Angle
SciTegic.value.DoubleValue
2.579

@<SCITEGIC>MOL_PROPERTY
Pdih
SciTegic.value.DoubleValue
0.010

@<SCITEGIC>MOL_PROPERTY
Idih
SciTegic.value.DoubleValue
0.000

@<SCITEGIC>MOL_PROPERTY
Tether
SciTegic.value.DoubleValue
0.000

@<TRIPOS>MOLECULE
guest-s19_confgen4.mol2 : confsearch ligand conformer 578
          17          16           1
SMALL
USER_CHARGES
 
@<TRIPOS>ATOM
       1    C1      16.982814   20.565554   21.767643 C.2        1 MOL1         0.6173
       2    O1      16.274230   19.847016   21.087933 O.co2      1 MOL1        -0.6755
       3    O2      16.654380   21.685497   22.107588 O.co2      1 MOL1        -0.6755
       4    C2      18.313655   20.073522   22.215895 C.2        1 MOL1        -0.1504
       5    H1      18.896370   20.764959   22.820269 H          1 MOL1         0.0814
       6    C3      18.807107   18.851618   21.911692 C.2        1 MOL1        -0.1394
       7    H2      18.232640   18.151822   21.305023 H          1 MOL1         0.0817
       8    C4      20.162498   18.359632   22.370064 C.3        1 MOL1        -0.1849
       9    H3      20.164533   17.261676   22.399647 H          1 MOL1         0.0736
      10    H4      20.358435   18.700248   23.395928 H          1 MOL1         0.0736
      11    C5      21.285206   18.852801   21.434474 C.3        1 MOL1        -0.1866
      12    H5      21.088147   18.509063   20.409497 H          1 MOL1         0.0738
      13    H6      21.287189   19.951345   21.406933 H          1 MOL1         0.0738
      14    C6      22.669159   18.347835   21.889676 C.3        1 MOL1        -0.2879
      15    H7      22.704643   17.250504   21.895711 H          1 MOL1         0.0750
      16    H8      23.454359   18.708480   21.212531 H          1 MOL1         0.0750
      17    H9      22.904125   18.704162   22.901238 H          1 MOL1         0.0750
@<TRIPOS>BOND
    1     1     2    1
    2     1     3    2
    3     1     4    1
    4     4     5    1
    5     4     6    2
    6     6     7    1
    7     6     8    1
    8     8     9    1
    9     8    10    1
   10     8    11    1
   11    11    12    1
   12    11    13    1
   13    11    14    1
   14    14    15    1
   15    14    16    1
   16    14    17    1
@<TRIPOS>SUBSTRUCTURE
       1 MOL1            1 RESIDUE      1      MOL     
@<SCITEGIC>MOL_PROPERTY
VConf Rank
SciTegic.value.IntegerValue
578

@<SCITEGIC>MOL_PROPERTY
Conf_Id
SciTegic.value.IntegerValue
1

@<SCITEGIC>MOL_PROPERTY
Delta U+W
SciTegic.value.DoubleValue
0.030

@<SCITEGIC>MOL_PROPERTY
U+W
SciTegic.value.DoubleValue
-53.378

@<SCITEGIC>MOL_PROPERTY
Grad RMS
SciTegic.value.DoubleValue
0.000000

@<SCITEGIC>MOL_PROPERTY
U
SciTegic.value.DoubleValue
9.048

@<SCITEGIC>MOL_PROPERTY
W
SciTegic.value.DoubleValue
-62.426

@<SCITEGIC>MOL_PROPERTY
W(PB)
SciTegic.value.DoubleValue
-64.506

@<SCITEGIC>MOL_PROPERTY
W(SA)
SciTegic.value.DoubleValue
2.080

@<SCITEGIC>MOL_PROPERTY
Valence
SciTegic.value.DoubleValue
2.652

@<SCITEGIC>MOL_PROPERTY
Coulomb
SciTegic.value.DoubleValue
5.578

@<SCITEGIC>MOL_PROPERTY
VdW
SciTegic.value.DoubleValue
0.818

@<SCITEGIC>MOL_PROPERTY
VdW6
SciTegic.value.DoubleValue
-4.535

@<SCITEGIC>MOL_PROPERTY
VdW12
SciTegic.value.DoubleValue
5.352

@<SCITEGIC>MOL_PROPERTY
Bond
SciTegic.value.DoubleValue
0.063

@<SCITEGIC>MOL_PROPERTY
Angle
SciTegic.value.DoubleValue
2.579

@<SCITEGIC>MOL_PROPERTY
Pdih
SciTegic.value.DoubleValue
0.010

@<SCITEGIC>MOL_PROPERTY
Idih
SciTegic.value.DoubleValue
0.000

@<SCITEGIC>MOL_PROPERTY
Tether
SciTegic.value.DoubleValue
0.000

@<TRIPOS>MOLECULE
guest-s19_confgen4.mol2 : confsearch ligand conformer 579
          17          16           1
SMALL
USER_CHARGES
 
@<TRIPOS>ATOM
       1    C1      21.535919   17.355273   20.003438 C.2        1 MOL1         0.6173
       2    O1      20.723961   16.467325   19.822573 O.co2      1 MOL1        -0.6755
       3    O2      22.478630   17.548690   19.260674 O.co2      1 MOL1        -0.6755
       4    C2      21.392171   18.254688   21.180078 C.2        1 MOL1        -0.1504
       5    H1      22.151680   19.026192   21.283461 H          1 MOL1         0.0814
       6    C3      20.393244   18.156164   22.086402 C.2        1 MOL1        -0.1394
       7    H2      19.625143   17.389069   21.990570 H          1 MOL1         0.0817
       8    C4      20.251230   19.077773   23.279500 C.3        1 MOL1        -0.1849
       9    H3      21.240305   19.267929   23.717791 H          1 MOL1         0.0736
      10    H4      19.658903   18.585506   24.062516 H          1 MOL1         0.0736
      11    C5      19.595334   20.425392   22.906291 C.3        1 MOL1        -0.1866
      12    H5      19.614737   21.088942   23.781779 H          1 MOL1         0.0738
      13    H6      20.186530   20.920959   22.123777 H          1 MOL1         0.0738
      14    C6      18.136266   20.261198   22.429980 C.3        1 MOL1        -0.2879
      15    H7      17.523025   19.778736   23.202193 H          1 MOL1         0.0750
      16    H8      17.691188   21.239221   22.205739 H          1 MOL1         0.0750
      17    H9      18.083291   19.650741   21.519070 H          1 MOL1         0.0750
@<TRIPOS>BOND
    1     1     2    1
    2     1     3    2
    3     1     4    1
    4     4     5    1
    5     4     6    2
    6     6     7    1
    7     6     8    1
    8     8     9    1
    9     8    10    1
   10     8    11    1
   11    11    12    1
   12    11    13    1
   13    11    14    1
   14    14    15    1
   15    14    16    1
   16    14    17    1
@<TRIPOS>SUBSTRUCTURE
       1 MOL1            1 RESIDUE      1      MOL     
@<SCITEGIC>MOL_PROPERTY
VConf Rank
SciTegic.value.IntegerValue
579

@<SCITEGIC>MOL_PROPERTY
Conf_Id
SciTegic.value.IntegerValue
3

@<SCITEGIC>MOL_PROPERTY
Delta U+W
SciTegic.value.DoubleValue
0.531

@<SCITEGIC>MOL_PROPERTY
U+W
SciTegic.value.DoubleValue
-52.878

@<SCITEGIC>MOL_PROPERTY
Grad RMS
SciTegic.value.DoubleValue
0.000000

@<SCITEGIC>MOL_PROPERTY
U
SciTegic.value.DoubleValue
10.067

@<SCITEGIC>MOL_PROPERTY
W
SciTegic.value.DoubleValue
-62.945

@<SCITEGIC>MOL_PROPERTY
W(PB)
SciTegic.value.DoubleValue
-64.982

@<SCITEGIC>MOL_PROPERTY
W(SA)
SciTegic.value.DoubleValue
2.037

@<SCITEGIC>MOL_PROPERTY
Valence
SciTegic.value.DoubleValue
2.779

@<SCITEGIC>MOL_PROPERTY
Coulomb
SciTegic.value.DoubleValue
6.474

@<SCITEGIC>MOL_PROPERTY
VdW
SciTegic.value.DoubleValue
0.815

@<SCITEGIC>MOL_PROPERTY
VdW6
SciTegic.value.DoubleValue
-5.088

@<SCITEGIC>MOL_PROPERTY
VdW12
SciTegic.value.DoubleValue
5.902

@<SCITEGIC>MOL_PROPERTY
Bond
SciTegic.value.DoubleValue
0.078

@<SCITEGIC>MOL_PROPERTY
Angle
SciTegic.value.DoubleValue
2.651

@<SCITEGIC>MOL_PROPERTY
Pdih
SciTegic.value.DoubleValue
0.050

@<SCITEGIC>MOL_PROPERTY
Idih
SciTegic.value.DoubleValue
0.000

@<SCITEGIC>MOL_PROPERTY
Tether
SciTegic.value.DoubleValue
0.000

@<TRIPOS>MOLECULE
guest-s19_confgen4.mol2 : confsearch ligand conformer 580
          17          16           1
SMALL
USER_CHARGES
 
@<TRIPOS>ATOM
       1    C1      20.759522   16.920871   24.015502 C.2        1 MOL1         0.6173
       2    O1      21.861744   16.597010   24.412996 O.co2      1 MOL1        -0.6755
       3    O2      19.795909   16.179559   24.064021 O.co2      1 MOL1        -0.6755
       4    C2      20.606735   18.289658   23.452340 C.2        1 MOL1        -0.1504
       5    H1      21.506935   18.899710   23.438813 H          1 MOL1         0.0814
       6    C3      19.441640   18.781289   22.972299 C.2        1 MOL1        -0.1394
       7    H2      18.535822   18.175508   22.978703 H          1 MOL1         0.0817
       8    C4      19.289877   20.174269   22.397050 C.3        1 MOL1        -0.1849
       9    H3      20.132951   20.810772   22.698430 H          1 MOL1         0.0736
      10    H4      18.389492   20.640198   22.819218 H          1 MOL1         0.0736
      11    C5      19.172805   20.162954   20.857137 C.3        1 MOL1        -0.1866
      12    H5      18.331292   19.524333   20.554683 H          1 MOL1         0.0738
      13    H6      18.937770   21.177890   20.508050 H          1 MOL1         0.0738
      14    C6      20.466432   19.680661   20.166662 C.3        1 MOL1        -0.2879
      15    H7      20.699502   18.643847   20.441889 H          1 MOL1         0.0750
      16    H8      20.360195   19.722992   19.074972 H          1 MOL1         0.0750
      17    H9      21.320257   20.310202   20.449066 H          1 MOL1         0.0750
@<TRIPOS>BOND
    1     1     2    1
    2     1     3    2
    3     1     4    1
    4     4     5    1
    5     4     6    2
    6     6     7    1
    7     6     8    1
    8     8     9    1
    9     8    10    1
   10     8    11    1
   11    11    12    1
   12    11    13    1
   13    11    14    1
   14    14    15    1
   15    14    16    1
   16    14    17    1
@<TRIPOS>SUBSTRUCTURE
       1 MOL1            1 RESIDUE      1      MOL     
@<SCITEGIC>MOL_PROPERTY
VConf Rank
SciTegic.value.IntegerValue
580

@<SCITEGIC>MOL_PROPERTY
Conf_Id
SciTegic.value.IntegerValue
45

@<SCITEGIC>MOL_PROPERTY
Delta U+W
SciTegic.value.DoubleValue
0.562

@<SCITEGIC>MOL_PROPERTY
U+W
SciTegic.value.DoubleValue
-52.846

@<SCITEGIC>MOL_PROPERTY
Grad RMS
SciTegic.value.DoubleValue
0.000000

@<SCITEGIC>MOL_PROPERTY
U
SciTegic.value.DoubleValue
10.243

@<SCITEGIC>MOL_PROPERTY
W
SciTegic.value.DoubleValue
-63.089

@<SCITEGIC>MOL_PROPERTY
W(PB)
SciTegic.value.DoubleValue
-65.116

@<SCITEGIC>MOL_PROPERTY
W(SA)
SciTegic.value.DoubleValue
2.026

@<SCITEGIC>MOL_PROPERTY
Valence
SciTegic.value.DoubleValue
2.822

@<SCITEGIC>MOL_PROPERTY
Coulomb
SciTegic.value.DoubleValue
6.637

@<SCITEGIC>MOL_PROPERTY
VdW
SciTegic.value.DoubleValue
0.785

@<SCITEGIC>MOL_PROPERTY
VdW6
SciTegic.value.DoubleValue
-5.216

@<SCITEGIC>MOL_PROPERTY
VdW12
SciTegic.value.DoubleValue
6.001

@<SCITEGIC>MOL_PROPERTY
Bond
SciTegic.value.DoubleValue
0.080

@<SCITEGIC>MOL_PROPERTY
Angle
SciTegic.value.DoubleValue
2.678

@<SCITEGIC>MOL_PROPERTY
Pdih
SciTegic.value.DoubleValue
0.064

@<SCITEGIC>MOL_PROPERTY
Idih
SciTegic.value.DoubleValue
0.000

@<SCITEGIC>MOL_PROPERTY
Tether
SciTegic.value.DoubleValue
0.000

@<TRIPOS>MOLECULE
guest-s19_confgen4.mol2 : confsearch ligand conformer 581
          17          16           1
SMALL
USER_CHARGES
 
@<TRIPOS>ATOM
       1    C1      19.206711   16.105626   20.614724 C.2        1 MOL1         0.6173
       2    O1      19.443161   14.995065   21.048832 O.co2      1 MOL1        -0.6755
       3    O2      18.820543   16.302094   19.477768 O.co2      1 MOL1        -0.6755
       4    C2      19.404362   17.259367   21.533406 C.2        1 MOL1        -0.1504
       5    H1      19.750716   17.014647   22.534934 H          1 MOL1         0.0814
       6    C3      19.181643   18.547040   21.185007 C.2        1 MOL1        -0.1394
       7    H2      18.836805   18.803652   20.183503 H          1 MOL1         0.0817
       8    C4      19.387217   19.714852   22.124790 C.3        1 MOL1        -0.1849
       9    H3      19.064003   19.442379   23.138743 H          1 MOL1         0.0736
      10    H4      18.754325   20.555715   21.810491 H          1 MOL1         0.0736
      11    C5      20.863266   20.161603   22.151400 C.3        1 MOL1        -0.1866
      12    H5      21.497469   19.322558   22.469754 H          1 MOL1         0.0738
      13    H6      21.183597   20.435542   21.136553 H          1 MOL1         0.0738
      14    C6      21.079536   21.357817   23.099991 C.3        1 MOL1        -0.2879
      15    H7      20.480228   22.222255   22.785338 H          1 MOL1         0.0750
      16    H8      20.795579   21.099770   24.128688 H          1 MOL1         0.0750
      17    H9      22.134593   21.661054   23.105697 H          1 MOL1         0.0750
@<TRIPOS>BOND
    1     1     2    1
    2     1     3    2
    3     1     4    1
    4     4     5    1
    5     4     6    2
    6     6     7    1
    7     6     8    1
    8     8     9    1
    9     8    10    1
   10     8    11    1
   11    11    12    1
   12    11    13    1
   13    11    14    1
   14    14    15    1
   15    14    16    1
   16    14    17    1
@<TRIPOS>SUBSTRUCTURE
       1 MOL1            1 RESIDUE      1      MOL     
@<SCITEGIC>MOL_PROPERTY
VConf Rank
SciTegic.value.IntegerValue
581

@<SCITEGIC>MOL_PROPERTY
Conf_Id
SciTegic.value.IntegerValue
36

@<SCITEGIC>MOL_PROPERTY
Delta U+W
SciTegic.value.DoubleValue
0.000

@<SCITEGIC>MOL_PROPERTY
U+W
SciTegic.value.DoubleValue
-53.409

@<SCITEGIC>MOL_PROPERTY
Grad RMS
SciTegic.value.DoubleValue
0.000000

@<SCITEGIC>MOL_PROPERTY
U
SciTegic.value.DoubleValue
9.048

@<SCITEGIC>MOL_PROPERTY
W
SciTegic.value.DoubleValue
-62.457

@<SCITEGIC>MOL_PROPERTY
W(PB)
SciTegic.value.DoubleValue
-64.540

@<SCITEGIC>MOL_PROPERTY
W(SA)
SciTegic.value.DoubleValue
2.084

@<SCITEGIC>MOL_PROPERTY
Valence
SciTegic.value.DoubleValue
2.652

@<SCITEGIC>MOL_PROPERTY
Coulomb
SciTegic.value.DoubleValue
5.578

@<SCITEGIC>MOL_PROPERTY
VdW
SciTegic.value.DoubleValue
0.818

@<SCITEGIC>MOL_PROPERTY
VdW6
SciTegic.value.DoubleValue
-4.534

@<SCITEGIC>MOL_PROPERTY
VdW12
SciTegic.value.DoubleValue
5.352

@<SCITEGIC>MOL_PROPERTY
Bond
SciTegic.value.DoubleValue
0.063

@<SCITEGIC>MOL_PROPERTY
Angle
SciTegic.value.DoubleValue
2.579

@<SCITEGIC>MOL_PROPERTY
Pdih
SciTegic.value.DoubleValue
0.010

@<SCITEGIC>MOL_PROPERTY
Idih
SciTegic.value.DoubleValue
0.000

@<SCITEGIC>MOL_PROPERTY
Tether
SciTegic.value.DoubleValue
0.000

@<TRIPOS>MOLECULE
guest-s19_confgen4.mol2 : confsearch ligand conformer 582
          17          16           1
SMALL
USER_CHARGES
 
@<TRIPOS>ATOM
       1    C1      22.799364   18.422576   23.694058 C.2        1 MOL1         0.6173
       2    O1      22.438682   17.881588   24.722471 O.co2      1 MOL1        -0.6755
       3    O2      23.937959   18.809345   23.515964 O.co2      1 MOL1        -0.6755
       4    C2      21.822422   18.629742   22.590958 C.2        1 MOL1        -0.1504
       5    H1      22.209413   19.118702   21.699855 H          1 MOL1         0.0814
       6    C3      20.525419   18.251373   22.651832 C.2        1 MOL1        -0.1394
       7    H2      20.126690   17.762686   23.540637 H          1 MOL1         0.0817
       8    C4      19.537884   18.467476   21.526083 C.3        1 MOL1        -0.1849
       9    H3      18.728727   17.728398   21.599684 H          1 MOL1         0.0736
      10    H4      20.028864   18.297953   20.558092 H          1 MOL1         0.0736
      11    C5      18.942826   19.889918   21.565886 C.3        1 MOL1        -0.1866
      12    H5      18.450465   20.056305   22.534113 H          1 MOL1         0.0738
      13    H6      19.750811   20.630652   21.488218 H          1 MOL1         0.0738
      14    C6      17.928161   20.115170   20.426921 C.3        1 MOL1        -0.2879
      15    H7      17.092269   19.407042   20.499507 H          1 MOL1         0.0750
      16    H8      17.515938   21.131637   20.471612 H          1 MOL1         0.0750
      17    H9      18.403596   19.985169   19.445852 H          1 MOL1         0.0750
@<TRIPOS>BOND
    1     1     2    1
    2     1     3    2
    3     1     4    1
    4     4     5    1
    5     4     6    2
    6     6     7    1
    7     6     8    1
    8     8     9    1
    9     8    10    1
   10     8    11    1
   11    11    12    1
   12    11    13    1
   13    11    14    1
   14    14    15    1
   15    14    16    1
   16    14    17    1
@<TRIPOS>SUBSTRUCTURE
       1 MOL1            1 RESIDUE      1      MOL     
@<SCITEGIC>MOL_PROPERTY
VConf Rank
SciTegic.value.IntegerValue
582

@<SCITEGIC>MOL_PROPERTY
Conf_Id
SciTegic.value.IntegerValue
1

@<SCITEGIC>MOL_PROPERTY
Delta U+W
SciTegic.value.DoubleValue
0.030

@<SCITEGIC>MOL_PROPERTY
U+W
SciTegic.value.DoubleValue
-53.378

@<SCITEGIC>MOL_PROPERTY
Grad RMS
SciTegic.value.DoubleValue
0.000000

@<SCITEGIC>MOL_PROPERTY
U
SciTegic.value.DoubleValue
9.048

@<SCITEGIC>MOL_PROPERTY
W
SciTegic.value.DoubleValue
-62.426

@<SCITEGIC>MOL_PROPERTY
W(PB)
SciTegic.value.DoubleValue
-64.506

@<SCITEGIC>MOL_PROPERTY
W(SA)
SciTegic.value.DoubleValue
2.080

@<SCITEGIC>MOL_PROPERTY
Valence
SciTegic.value.DoubleValue
2.652

@<SCITEGIC>MOL_PROPERTY
Coulomb
SciTegic.value.DoubleValue
5.578

@<SCITEGIC>MOL_PROPERTY
VdW
SciTegic.value.DoubleValue
0.818

@<SCITEGIC>MOL_PROPERTY
VdW6
SciTegic.value.DoubleValue
-4.535

@<SCITEGIC>MOL_PROPERTY
VdW12
SciTegic.value.DoubleValue
5.352

@<SCITEGIC>MOL_PROPERTY
Bond
SciTegic.value.DoubleValue
0.063

@<SCITEGIC>MOL_PROPERTY
Angle
SciTegic.value.DoubleValue
2.579

@<SCITEGIC>MOL_PROPERTY
Pdih
SciTegic.value.DoubleValue
0.010

@<SCITEGIC>MOL_PROPERTY
Idih
SciTegic.value.DoubleValue
0.000

@<SCITEGIC>MOL_PROPERTY
Tether
SciTegic.value.DoubleValue
0.000

@<TRIPOS>MOLECULE
guest-s19_confgen4.mol2 : confsearch ligand conformer 583
          17          16           1
SMALL
USER_CHARGES
 
@<TRIPOS>ATOM
       1    C1      20.982833   21.657976   20.649972 C.2        1 MOL1         0.6173
       2    O1      21.693599   22.126937   21.519067 O.co2      1 MOL1        -0.6755
       3    O2      21.018976   22.033118   19.494216 O.co2      1 MOL1        -0.6755
       4    C2      20.016568   20.579546   20.992629 C.2        1 MOL1        -0.1504
       5    H1      19.411336   20.205488   20.170111 H          1 MOL1         0.0814
       6    C3      19.870271   20.065514   22.234947 C.2        1 MOL1        -0.1394
       7    H2      20.473877   20.430556   23.065610 H          1 MOL1         0.0817
       8    C4      18.887294   18.965122   22.575400 C.3        1 MOL1        -0.1849
       9    H3      17.941075   19.139614   22.045543 H          1 MOL1         0.0736
      10    H4      18.648484   18.996845   23.646967 H          1 MOL1         0.0736
      11    C5      19.422867   17.564050   22.206999 C.3        1 MOL1        -0.1866
      12    H5      18.631576   16.820970   22.376833 H          1 MOL1         0.0738
      13    H6      19.661568   17.528833   21.134988 H          1 MOL1         0.0738
      14    C6      20.668388   17.171742   23.030095 C.3        1 MOL1        -0.2879
      15    H7      20.449340   17.187861   24.105689 H          1 MOL1         0.0750
      16    H8      21.001490   16.159407   22.767171 H          1 MOL1         0.0750
      17    H9      21.502013   17.860219   22.839594 H          1 MOL1         0.0750
@<TRIPOS>BOND
    1     1     2    1
    2     1     3    2
    3     1     4    1
    4     4     5    1
    5     4     6    2
    6     6     7    1
    7     6     8    1
    8     8     9    1
    9     8    10    1
   10     8    11    1
   11    11    12    1
   12    11    13    1
   13    11    14    1
   14    14    15    1
   15    14    16    1
   16    14    17    1
@<TRIPOS>SUBSTRUCTURE
       1 MOL1            1 RESIDUE      1      MOL     
@<SCITEGIC>MOL_PROPERTY
VConf Rank
SciTegic.value.IntegerValue
583

@<SCITEGIC>MOL_PROPERTY
Conf_Id
SciTegic.value.IntegerValue
3

@<SCITEGIC>MOL_PROPERTY
Delta U+W
SciTegic.value.DoubleValue
0.531

@<SCITEGIC>MOL_PROPERTY
U+W
SciTegic.value.DoubleValue
-52.878

@<SCITEGIC>MOL_PROPERTY
Grad RMS
SciTegic.value.DoubleValue
0.000000

@<SCITEGIC>MOL_PROPERTY
U
SciTegic.value.DoubleValue
10.067

@<SCITEGIC>MOL_PROPERTY
W
SciTegic.value.DoubleValue
-62.945

@<SCITEGIC>MOL_PROPERTY
W(PB)
SciTegic.value.DoubleValue
-64.982

@<SCITEGIC>MOL_PROPERTY
W(SA)
SciTegic.value.DoubleValue
2.037

@<SCITEGIC>MOL_PROPERTY
Valence
SciTegic.value.DoubleValue
2.779

@<SCITEGIC>MOL_PROPERTY
Coulomb
SciTegic.value.DoubleValue
6.474

@<SCITEGIC>MOL_PROPERTY
VdW
SciTegic.value.DoubleValue
0.815

@<SCITEGIC>MOL_PROPERTY
VdW6
SciTegic.value.DoubleValue
-5.088

@<SCITEGIC>MOL_PROPERTY
VdW12
SciTegic.value.DoubleValue
5.902

@<SCITEGIC>MOL_PROPERTY
Bond
SciTegic.value.DoubleValue
0.078

@<SCITEGIC>MOL_PROPERTY
Angle
SciTegic.value.DoubleValue
2.651

@<SCITEGIC>MOL_PROPERTY
Pdih
SciTegic.value.DoubleValue
0.050

@<SCITEGIC>MOL_PROPERTY
Idih
SciTegic.value.DoubleValue
0.000

@<SCITEGIC>MOL_PROPERTY
Tether
SciTegic.value.DoubleValue
0.000

@<TRIPOS>MOLECULE
guest-s19_confgen4.mol2 : confsearch ligand conformer 584
          17          16           1
SMALL
USER_CHARGES
 
@<TRIPOS>ATOM
       1    C1      17.756754   17.361100   23.156723 C.2        1 MOL1         0.6173
       2    O1      17.650833   16.150084   23.155235 O.co2      1 MOL1        -0.6755
       3    O2      16.803928   18.107153   23.283118 O.co2      1 MOL1        -0.6755
       4    C2      19.121798   17.931863   22.998747 C.2        1 MOL1        -0.1504
       5    H1      19.927769   17.209759   22.890663 H          1 MOL1         0.0814
       6    C3      19.386488   19.258202   22.980075 C.2        1 MOL1        -0.1394
       7    H2      18.584438   19.988563   23.084035 H          1 MOL1         0.0817
       8    C4      20.776946   19.836256   22.816318 C.3        1 MOL1        -0.1849
       9    H3      21.539533   19.073264   23.023789 H          1 MOL1         0.0736
      10    H4      20.926173   20.627818   23.562756 H          1 MOL1         0.0736
      11    C5      21.003923   20.427112   21.407582 C.3        1 MOL1        -0.1866
      12    H5      20.239888   21.188598   21.198184 H          1 MOL1         0.0738
      13    H6      21.974213   20.942197   21.386981 H          1 MOL1         0.0738
      14    C6      20.982490   19.350592   20.301473 C.3        1 MOL1        -0.2879
      15    H7      20.003644   18.856526   20.248435 H          1 MOL1         0.0750
      16    H8      21.185686   19.800365   19.321024 H          1 MOL1         0.0750
      17    H9      21.744375   18.582269   20.486691 H          1 MOL1         0.0750
@<TRIPOS>BOND
    1     1     2    1
    2     1     3    2
    3     1     4    1
    4     4     5    1
    5     4     6    2
    6     6     7    1
    7     6     8    1
    8     8     9    1
    9     8    10    1
   10     8    11    1
   11    11    12    1
   12    11    13    1
   13    11    14    1
   14    14    15    1
   15    14    16    1
   16    14    17    1
@<TRIPOS>SUBSTRUCTURE
       1 MOL1            1 RESIDUE      1      MOL     
@<SCITEGIC>MOL_PROPERTY
VConf Rank
SciTegic.value.IntegerValue
584

@<SCITEGIC>MOL_PROPERTY
Conf_Id
SciTegic.value.IntegerValue
45

@<SCITEGIC>MOL_PROPERTY
Delta U+W
SciTegic.value.DoubleValue
0.562

@<SCITEGIC>MOL_PROPERTY
U+W
SciTegic.value.DoubleValue
-52.846

@<SCITEGIC>MOL_PROPERTY
Grad RMS
SciTegic.value.DoubleValue
0.000000

@<SCITEGIC>MOL_PROPERTY
U
SciTegic.value.DoubleValue
10.243

@<SCITEGIC>MOL_PROPERTY
W
SciTegic.value.DoubleValue
-63.089

@<SCITEGIC>MOL_PROPERTY
W(PB)
SciTegic.value.DoubleValue
-65.116

@<SCITEGIC>MOL_PROPERTY
W(SA)
SciTegic.value.DoubleValue
2.026

@<SCITEGIC>MOL_PROPERTY
Valence
SciTegic.value.DoubleValue
2.822

@<SCITEGIC>MOL_PROPERTY
Coulomb
SciTegic.value.DoubleValue
6.637

@<SCITEGIC>MOL_PROPERTY
VdW
SciTegic.value.DoubleValue
0.785

@<SCITEGIC>MOL_PROPERTY
VdW6
SciTegic.value.DoubleValue
-5.216

@<SCITEGIC>MOL_PROPERTY
VdW12
SciTegic.value.DoubleValue
6.001

@<SCITEGIC>MOL_PROPERTY
Bond
SciTegic.value.DoubleValue
0.080

@<SCITEGIC>MOL_PROPERTY
Angle
SciTegic.value.DoubleValue
2.678

@<SCITEGIC>MOL_PROPERTY
Pdih
SciTegic.value.DoubleValue
0.064

@<SCITEGIC>MOL_PROPERTY
Idih
SciTegic.value.DoubleValue
0.000

@<SCITEGIC>MOL_PROPERTY
Tether
SciTegic.value.DoubleValue
0.000

@<TRIPOS>MOLECULE
guest-s19_confgen4.mol2 : confsearch ligand conformer 585
          17          16           1
SMALL
USER_CHARGES
 
@<TRIPOS>ATOM
       1    C1      23.136939   19.740287   20.861346 C.2        1 MOL1         0.6173
       2    O1      23.764362   20.781186   20.885286 O.co2      1 MOL1        -0.6755
       3    O2      23.493244   18.768727   20.221415 O.co2      1 MOL1        -0.6755
       4    C2      21.882275   19.675304   21.658690 C.2        1 MOL1        -0.1504
       5    H1      21.621224   20.577508   22.207131 H          1 MOL1         0.0814
       6    C3      21.085868   18.584129   21.723181 C.2        1 MOL1        -0.1394
       7    H2      21.336718   17.675716   21.175793 H          1 MOL1         0.0817
       8    C4      19.810247   18.527036   22.534827 C.3        1 MOL1        -0.1849
       9    H3      19.944306   19.064569   23.483456 H          1 MOL1         0.0736
      10    H4      19.586698   17.483801   22.795736 H          1 MOL1         0.0736
      11    C5      18.622396   19.130653   21.757865 C.3        1 MOL1        -0.1866
      12    H5      18.842733   20.175811   21.499687 H          1 MOL1         0.0738
      13    H6      18.489037   18.590078   20.810467 H          1 MOL1         0.0738
      14    C6      17.316175   19.067685   22.574779 C.3        1 MOL1        -0.2879
      15    H7      17.055311   18.029644   22.819425 H          1 MOL1         0.0750
      16    H8      17.413020   19.627535   23.514260 H          1 MOL1         0.0750
      17    H9      16.483197   19.501369   22.006275 H          1 MOL1         0.0750
@<TRIPOS>BOND
    1     1     2    1
    2     1     3    2
    3     1     4    1
    4     4     5    1
    5     4     6    2
    6     6     7    1
    7     6     8    1
    8     8     9    1
    9     8    10    1
   10     8    11    1
   11    11    12    1
   12    11    13    1
   13    11    14    1
   14    14    15    1
   15    14    16    1
   16    14    17    1
@<TRIPOS>SUBSTRUCTURE
       1 MOL1            1 RESIDUE      1      MOL     
@<SCITEGIC>MOL_PROPERTY
VConf Rank
SciTegic.value.IntegerValue
585

@<SCITEGIC>MOL_PROPERTY
Conf_Id
SciTegic.value.IntegerValue
36

@<SCITEGIC>MOL_PROPERTY
Delta U+W
SciTegic.value.DoubleValue
0.000

@<SCITEGIC>MOL_PROPERTY
U+W
SciTegic.value.DoubleValue
-53.409

@<SCITEGIC>MOL_PROPERTY
Grad RMS
SciTegic.value.DoubleValue
0.000000

@<SCITEGIC>MOL_PROPERTY
U
SciTegic.value.DoubleValue
9.048

@<SCITEGIC>MOL_PROPERTY
W
SciTegic.value.DoubleValue
-62.457

@<SCITEGIC>MOL_PROPERTY
W(PB)
SciTegic.value.DoubleValue
-64.540

@<SCITEGIC>MOL_PROPERTY
W(SA)
SciTegic.value.DoubleValue
2.084

@<SCITEGIC>MOL_PROPERTY
Valence
SciTegic.value.DoubleValue
2.652

@<SCITEGIC>MOL_PROPERTY
Coulomb
SciTegic.value.DoubleValue
5.578

@<SCITEGIC>MOL_PROPERTY
VdW
SciTegic.value.DoubleValue
0.818

@<SCITEGIC>MOL_PROPERTY
VdW6
SciTegic.value.DoubleValue
-4.534

@<SCITEGIC>MOL_PROPERTY
VdW12
SciTegic.value.DoubleValue
5.352

@<SCITEGIC>MOL_PROPERTY
Bond
SciTegic.value.DoubleValue
0.063

@<SCITEGIC>MOL_PROPERTY
Angle
SciTegic.value.DoubleValue
2.579

@<SCITEGIC>MOL_PROPERTY
Pdih
SciTegic.value.DoubleValue
0.010

@<SCITEGIC>MOL_PROPERTY
Idih
SciTegic.value.DoubleValue
0.000

@<SCITEGIC>MOL_PROPERTY
Tether
SciTegic.value.DoubleValue
0.000

@<TRIPOS>MOLECULE
guest-s19_confgen4.mol2 : confsearch ligand conformer 586
          17          16           1
SMALL
USER_CHARGES
 
@<TRIPOS>ATOM
       1    C1      22.409654   16.889526   22.798087 C.2        1 MOL1         0.6173
       2    O1      22.795247   16.357948   21.773813 O.co2      1 MOL1        -0.6755
       3    O2      22.719241   16.492700   23.904609 O.co2      1 MOL1        -0.6755
       4    C2      21.520439   18.079955   22.718489 C.2        1 MOL1        -0.1504
       5    H1      21.212435   18.506761   23.670266 H          1 MOL1         0.0814
       6    C3      21.096253   18.627581   21.556913 C.2        1 MOL1        -0.1394
       7    H2      21.397003   18.206669   20.597665 H          1 MOL1         0.0817
       8    C4      20.190389   19.837309   21.484763 C.3        1 MOL1        -0.1849
       9    H3      20.337547   20.350266   20.524759 H          1 MOL1         0.0736
      10    H4      20.462200   20.557309   22.268679 H          1 MOL1         0.0736
      11    C5      18.707910   19.438999   21.635174 C.3        1 MOL1        -0.1866
      12    H5      18.437881   18.720533   20.848754 H          1 MOL1         0.0738
      13    H6      18.558137   18.929235   22.597083 H          1 MOL1         0.0738
      14    C6      17.777215   20.665643   21.553446 C.3        1 MOL1        -0.2879
      15    H7      17.883979   21.176290   20.587387 H          1 MOL1         0.0750
      16    H8      16.727687   20.362736   21.662385 H          1 MOL1         0.0750
      17    H9      18.006275   21.386273   22.349473 H          1 MOL1         0.0750
@<TRIPOS>BOND
    1     1     2    1
    2     1     3    2
    3     1     4    1
    4     4     5    1
    5     4     6    2
    6     6     7    1
    7     6     8    1
    8     8     9    1
    9     8    10    1
   10     8    11    1
   11    11    12    1
   12    11    13    1
   13    11    14    1
   14    14    15    1
   15    14    16    1
   16    14    17    1
@<TRIPOS>SUBSTRUCTURE
       1 MOL1            1 RESIDUE      1      MOL     
@<SCITEGIC>MOL_PROPERTY
VConf Rank
SciTegic.value.IntegerValue
586

@<SCITEGIC>MOL_PROPERTY
Conf_Id
SciTegic.value.IntegerValue
1

@<SCITEGIC>MOL_PROPERTY
Delta U+W
SciTegic.value.DoubleValue
0.030

@<SCITEGIC>MOL_PROPERTY
U+W
SciTegic.value.DoubleValue
-53.378

@<SCITEGIC>MOL_PROPERTY
Grad RMS
SciTegic.value.DoubleValue
0.000000

@<SCITEGIC>MOL_PROPERTY
U
SciTegic.value.DoubleValue
9.048

@<SCITEGIC>MOL_PROPERTY
W
SciTegic.value.DoubleValue
-62.426

@<SCITEGIC>MOL_PROPERTY
W(PB)
SciTegic.value.DoubleValue
-64.506

@<SCITEGIC>MOL_PROPERTY
W(SA)
SciTegic.value.DoubleValue
2.080

@<SCITEGIC>MOL_PROPERTY
Valence
SciTegic.value.DoubleValue
2.652

@<SCITEGIC>MOL_PROPERTY
Coulomb
SciTegic.value.DoubleValue
5.578

@<SCITEGIC>MOL_PROPERTY
VdW
SciTegic.value.DoubleValue
0.818

@<SCITEGIC>MOL_PROPERTY
VdW6
SciTegic.value.DoubleValue
-4.535

@<SCITEGIC>MOL_PROPERTY
VdW12
SciTegic.value.DoubleValue
5.352

@<SCITEGIC>MOL_PROPERTY
Bond
SciTegic.value.DoubleValue
0.063

@<SCITEGIC>MOL_PROPERTY
Angle
SciTegic.value.DoubleValue
2.579

@<SCITEGIC>MOL_PROPERTY
Pdih
SciTegic.value.DoubleValue
0.010

@<SCITEGIC>MOL_PROPERTY
Idih
SciTegic.value.DoubleValue
0.000

@<SCITEGIC>MOL_PROPERTY
Tether
SciTegic.value.DoubleValue
0.000

@<TRIPOS>MOLECULE
guest-s19_confgen4.mol2 : confsearch ligand conformer 587
          17          16           1
SMALL
USER_CHARGES
 
@<TRIPOS>ATOM
       1    C1      21.459778   16.597375   20.948201 C.2        1 MOL1         0.6173
       2    O1      20.855397   16.438086   19.904270 O.co2      1 MOL1        -0.6755
       3    O2      22.524198   16.059205   21.183134 O.co2      1 MOL1        -0.6755
       4    C2      20.889950   17.482090   22.000183 C.2        1 MOL1        -0.1504
       5    H1      21.479769   17.580211   22.908614 H          1 MOL1         0.0814
       6    C3      19.717379   18.144068   21.874299 C.2        1 MOL1        -0.1394
       7    H2      19.120081   18.055580   20.967104 H          1 MOL1         0.0817
       8    C4      19.145558   19.045973   22.947892 C.3        1 MOL1        -0.1849
       9    H3      19.301357   18.588795   23.934422 H          1 MOL1         0.0736
      10    H4      18.058357   19.135002   22.819981 H          1 MOL1         0.0736
      11    C5      19.783844   20.452384   22.935211 C.3        1 MOL1        -0.1866
      12    H5      19.409928   21.024282   23.795601 H          1 MOL1         0.0738
      13    H6      20.871695   20.366626   23.064260 H          1 MOL1         0.0738
      14    C6      19.473888   21.230884   21.638840 C.3        1 MOL1        -0.2879
      15    H7      18.390948   21.339857   21.495621 H          1 MOL1         0.0750
      16    H8      19.913449   22.235956   21.677859 H          1 MOL1         0.0750
      17    H9      19.885981   20.717426   20.760341 H          1 MOL1         0.0750
@<TRIPOS>BOND
    1     1     2    1
    2     1     3    2
    3     1     4    1
    4     4     5    1
    5     4     6    2
    6     6     7    1
    7     6     8    1
    8     8     9    1
    9     8    10    1
   10     8    11    1
   11    11    12    1
   12    11    13    1
   13    11    14    1
   14    14    15    1
   15    14    16    1
   16    14    17    1
@<TRIPOS>SUBSTRUCTURE
       1 MOL1            1 RESIDUE      1      MOL     
@<SCITEGIC>MOL_PROPERTY
VConf Rank
SciTegic.value.IntegerValue
587

@<SCITEGIC>MOL_PROPERTY
Conf_Id
SciTegic.value.IntegerValue
3

@<SCITEGIC>MOL_PROPERTY
Delta U+W
SciTegic.value.DoubleValue
0.531

@<SCITEGIC>MOL_PROPERTY
U+W
SciTegic.value.DoubleValue
-52.878

@<SCITEGIC>MOL_PROPERTY
Grad RMS
SciTegic.value.DoubleValue
0.000000

@<SCITEGIC>MOL_PROPERTY
U
SciTegic.value.DoubleValue
10.067

@<SCITEGIC>MOL_PROPERTY
W
SciTegic.value.DoubleValue
-62.945

@<SCITEGIC>MOL_PROPERTY
W(PB)
SciTegic.value.DoubleValue
-64.982

@<SCITEGIC>MOL_PROPERTY
W(SA)
SciTegic.value.DoubleValue
2.037

@<SCITEGIC>MOL_PROPERTY
Valence
SciTegic.value.DoubleValue
2.779

@<SCITEGIC>MOL_PROPERTY
Coulomb
SciTegic.value.DoubleValue
6.474

@<SCITEGIC>MOL_PROPERTY
VdW
SciTegic.value.DoubleValue
0.815

@<SCITEGIC>MOL_PROPERTY
VdW6
SciTegic.value.DoubleValue
-5.088

@<SCITEGIC>MOL_PROPERTY
VdW12
SciTegic.value.DoubleValue
5.902

@<SCITEGIC>MOL_PROPERTY
Bond
SciTegic.value.DoubleValue
0.078

@<SCITEGIC>MOL_PROPERTY
Angle
SciTegic.value.DoubleValue
2.651

@<SCITEGIC>MOL_PROPERTY
Pdih
SciTegic.value.DoubleValue
0.050

@<SCITEGIC>MOL_PROPERTY
Idih
SciTegic.value.DoubleValue
0.000

@<SCITEGIC>MOL_PROPERTY
Tether
SciTegic.value.DoubleValue
0.000

@<TRIPOS>MOLECULE
guest-s19_confgen4.mol2 : confsearch ligand conformer 588
          17          16           1
SMALL
USER_CHARGES
 
@<TRIPOS>ATOM
       1    C1      22.817248   18.335864   22.760717 C.2        1 MOL1         0.6173
       2    O1      23.834993   18.476368   22.110921 O.co2      1 MOL1        -0.6755
       3    O2      22.718578   17.530500   23.667415 O.co2      1 MOL1        -0.6755
       4    C2      21.656372   19.200213   22.415261 C.2        1 MOL1        -0.1504
       5    H1      21.812181   19.897587   21.595446 H          1 MOL1         0.0814
       6    C3      20.463821   19.150122   23.051577 C.2        1 MOL1        -0.1394
       7    H2      20.298029   18.451810   23.871572 H          1 MOL1         0.0817
       8    C4      19.282948   20.029481   22.695764 C.3        1 MOL1        -0.1849
       9    H3      19.608696   20.889334   22.094697 H          1 MOL1         0.0736
      10    H4      18.855577   20.445906   23.617693 H          1 MOL1         0.0736
      11    C5      18.182092   19.254573   21.938929 C.3        1 MOL1        -0.1866
      12    H5      17.857520   18.392718   22.538360 H          1 MOL1         0.0738
      13    H6      17.303397   19.903575   21.821076 H          1 MOL1         0.0738
      14    C6      18.643753   18.775371   20.546067 C.3        1 MOL1        -0.2879
      15    H7      19.482457   18.071763   20.627087 H          1 MOL1         0.0750
      16    H8      17.825354   18.264186   20.022828 H          1 MOL1         0.0750
      17    H9      18.965864   19.622351   19.926420 H          1 MOL1         0.0750
@<TRIPOS>BOND
    1     1     2    1
    2     1     3    2
    3     1     4    1
    4     4     5    1
    5     4     6    2
    6     6     7    1
    7     6     8    1
    8     8     9    1
    9     8    10    1
   10     8    11    1
   11    11    12    1
   12    11    13    1
   13    11    14    1
   14    14    15    1
   15    14    16    1
   16    14    17    1
@<TRIPOS>SUBSTRUCTURE
       1 MOL1            1 RESIDUE      1      MOL     
@<SCITEGIC>MOL_PROPERTY
VConf Rank
SciTegic.value.IntegerValue
588

@<SCITEGIC>MOL_PROPERTY
Conf_Id
SciTegic.value.IntegerValue
45

@<SCITEGIC>MOL_PROPERTY
Delta U+W
SciTegic.value.DoubleValue
0.562

@<SCITEGIC>MOL_PROPERTY
U+W
SciTegic.value.DoubleValue
-52.846

@<SCITEGIC>MOL_PROPERTY
Grad RMS
SciTegic.value.DoubleValue
0.000000

@<SCITEGIC>MOL_PROPERTY
U
SciTegic.value.DoubleValue
10.243

@<SCITEGIC>MOL_PROPERTY
W
SciTegic.value.DoubleValue
-63.089

@<SCITEGIC>MOL_PROPERTY
W(PB)
SciTegic.value.DoubleValue
-65.116

@<SCITEGIC>MOL_PROPERTY
W(SA)
SciTegic.value.DoubleValue
2.026

@<SCITEGIC>MOL_PROPERTY
Valence
SciTegic.value.DoubleValue
2.822

@<SCITEGIC>MOL_PROPERTY
Coulomb
SciTegic.value.DoubleValue
6.637

@<SCITEGIC>MOL_PROPERTY
VdW
SciTegic.value.DoubleValue
0.785

@<SCITEGIC>MOL_PROPERTY
VdW6
SciTegic.value.DoubleValue
-5.216

@<SCITEGIC>MOL_PROPERTY
VdW12
SciTegic.value.DoubleValue
6.001

@<SCITEGIC>MOL_PROPERTY
Bond
SciTegic.value.DoubleValue
0.080

@<SCITEGIC>MOL_PROPERTY
Angle
SciTegic.value.DoubleValue
2.678

@<SCITEGIC>MOL_PROPERTY
Pdih
SciTegic.value.DoubleValue
0.064

@<SCITEGIC>MOL_PROPERTY
Idih
SciTegic.value.DoubleValue
0.000

@<SCITEGIC>MOL_PROPERTY
Tether
SciTegic.value.DoubleValue
0.000

@<TRIPOS>MOLECULE
guest-s19_confgen4.mol2 : confsearch ligand conformer 589
          17          16           1
SMALL
USER_CHARGES
 
@<TRIPOS>ATOM
       1    C1      21.807107   16.278669   21.747849 C.2        1 MOL1         0.6173
       2    O1      22.463153   15.733154   22.613713 O.co2      1 MOL1        -0.6755
       3    O2      21.888408   15.980627   20.571008 O.co2      1 MOL1        -0.6755
       4    C2      20.869498   17.354027   22.170525 C.2        1 MOL1        -0.1504
       5    H1      20.845441   17.570966   23.236014 H          1 MOL1         0.0814
       6    C3      20.080745   18.044987   21.316400 C.2        1 MOL1        -0.1394
       7    H2      20.098637   17.837406   20.246651 H          1 MOL1         0.0817
       8    C4      19.131430   19.138758   21.754241 C.3        1 MOL1        -0.1849
       9    H3      18.661214   18.867831   22.709388 H          1 MOL1         0.0736
      10    H4      18.318465   19.235070   21.021985 H          1 MOL1         0.0736
      11    C5      19.859767   20.490786   21.897623 C.3        1 MOL1        -0.1866
      12    H5      20.670873   20.397246   22.633093 H          1 MOL1         0.0738
      13    H6      20.327490   20.760581   20.940536 H          1 MOL1         0.0738
      14    C6      18.896994   21.613135   22.334575 C.3        1 MOL1        -0.2879
      15    H7      18.092883   21.749420   21.599549 H          1 MOL1         0.0750
      16    H8      18.438880   21.381962   23.305207 H          1 MOL1         0.0750
      17    H9      19.432767   22.566409   22.431260 H          1 MOL1         0.0750
@<TRIPOS>BOND
    1     1     2    1
    2     1     3    2
    3     1     4    1
    4     4     5    1
    5     4     6    2
    6     6     7    1
    7     6     8    1
    8     8     9    1
    9     8    10    1
   10     8    11    1
   11    11    12    1
   12    11    13    1
   13    11    14    1
   14    14    15    1
   15    14    16    1
   16    14    17    1
@<TRIPOS>SUBSTRUCTURE
       1 MOL1            1 RESIDUE      1      MOL     
@<SCITEGIC>MOL_PROPERTY
VConf Rank
SciTegic.value.IntegerValue
589

@<SCITEGIC>MOL_PROPERTY
Conf_Id
SciTegic.value.IntegerValue
36

@<SCITEGIC>MOL_PROPERTY
Delta U+W
SciTegic.value.DoubleValue
0.000

@<SCITEGIC>MOL_PROPERTY
U+W
SciTegic.value.DoubleValue
-53.409

@<SCITEGIC>MOL_PROPERTY
Grad RMS
SciTegic.value.DoubleValue
0.000000

@<SCITEGIC>MOL_PROPERTY
U
SciTegic.value.DoubleValue
9.048

@<SCITEGIC>MOL_PROPERTY
W
SciTegic.value.DoubleValue
-62.457

@<SCITEGIC>MOL_PROPERTY
W(PB)
SciTegic.value.DoubleValue
-64.540

@<SCITEGIC>MOL_PROPERTY
W(SA)
SciTegic.value.DoubleValue
2.084

@<SCITEGIC>MOL_PROPERTY
Valence
SciTegic.value.DoubleValue
2.652

@<SCITEGIC>MOL_PROPERTY
Coulomb
SciTegic.value.DoubleValue
5.578

@<SCITEGIC>MOL_PROPERTY
VdW
SciTegic.value.DoubleValue
0.818

@<SCITEGIC>MOL_PROPERTY
VdW6
SciTegic.value.DoubleValue
-4.534

@<SCITEGIC>MOL_PROPERTY
VdW12
SciTegic.value.DoubleValue
5.352

@<SCITEGIC>MOL_PROPERTY
Bond
SciTegic.value.DoubleValue
0.063

@<SCITEGIC>MOL_PROPERTY
Angle
SciTegic.value.DoubleValue
2.579

@<SCITEGIC>MOL_PROPERTY
Pdih
SciTegic.value.DoubleValue
0.010

@<SCITEGIC>MOL_PROPERTY
Idih
SciTegic.value.DoubleValue
0.000

@<SCITEGIC>MOL_PROPERTY
Tether
SciTegic.value.DoubleValue
0.000

@<TRIPOS>MOLECULE
guest-s19_confgen4.mol2 : confsearch ligand conformer 590
          17          16           1
SMALL
USER_CHARGES
 
@<TRIPOS>ATOM
       1    C1      18.912693   21.493830   19.815583 C.2        1 MOL1         0.6173
       2    O1      18.130787   22.181023   20.445490 O.co2      1 MOL1        -0.6755
       3    O2      19.049302   21.584728   18.611100 O.co2      1 MOL1        -0.6755
       4    C2      19.750486   20.492095   20.528880 C.2        1 MOL1        -0.1504
       5    H1      20.428107   19.911242   19.907311 H          1 MOL1         0.0814
       6    C3      19.702373   20.283066   21.864200 C.2        1 MOL1        -0.1394
       7    H2      19.025556   20.857893   22.496074 H          1 MOL1         0.0817
       8    C4      20.556590   19.260876   22.581610 C.3        1 MOL1        -0.1849
       9    H3      20.682330   19.558331   23.631419 H          1 MOL1         0.0736
      10    H4      21.562637   19.236524   22.141062 H          1 MOL1         0.0736
      11    C5      19.925248   17.855151   22.515555 C.3        1 MOL1        -0.1866
      12    H5      18.920017   17.881596   22.958701 H          1 MOL1         0.0738
      13    H6      19.802514   17.554287   21.465804 H          1 MOL1         0.0738
      14    C6      20.785410   16.809000   23.252585 C.3        1 MOL1        -0.2879
      15    H7      20.897724   17.069368   24.313257 H          1 MOL1         0.0750
      16    H8      20.320631   15.816138   23.194828 H          1 MOL1         0.0750
      17    H9      21.787086   16.740585   22.808286 H          1 MOL1         0.0750
@<TRIPOS>BOND
    1     1     2    1
    2     1     3    2
    3     1     4    1
    4     4     5    1
    5     4     6    2
    6     6     7    1
    7     6     8    1
    8     8     9    1
    9     8    10    1
   10     8    11    1
   11    11    12    1
   12    11    13    1
   13    11    14    1
   14    14    15    1
   15    14    16    1
   16    14    17    1
@<TRIPOS>SUBSTRUCTURE
       1 MOL1            1 RESIDUE      1      MOL     
@<SCITEGIC>MOL_PROPERTY
VConf Rank
SciTegic.value.IntegerValue
590

@<SCITEGIC>MOL_PROPERTY
Conf_Id
SciTegic.value.IntegerValue
1

@<SCITEGIC>MOL_PROPERTY
Delta U+W
SciTegic.value.DoubleValue
0.030

@<SCITEGIC>MOL_PROPERTY
U+W
SciTegic.value.DoubleValue
-53.378

@<SCITEGIC>MOL_PROPERTY
Grad RMS
SciTegic.value.DoubleValue
0.000000

@<SCITEGIC>MOL_PROPERTY
U
SciTegic.value.DoubleValue
9.048

@<SCITEGIC>MOL_PROPERTY
W
SciTegic.value.DoubleValue
-62.426

@<SCITEGIC>MOL_PROPERTY
W(PB)
SciTegic.value.DoubleValue
-64.506

@<SCITEGIC>MOL_PROPERTY
W(SA)
SciTegic.value.DoubleValue
2.080

@<SCITEGIC>MOL_PROPERTY
Valence
SciTegic.value.DoubleValue
2.652

@<SCITEGIC>MOL_PROPERTY
Coulomb
SciTegic.value.DoubleValue
5.578

@<SCITEGIC>MOL_PROPERTY
VdW
SciTegic.value.DoubleValue
0.818

@<SCITEGIC>MOL_PROPERTY
VdW6
SciTegic.value.DoubleValue
-4.535

@<SCITEGIC>MOL_PROPERTY
VdW12
SciTegic.value.DoubleValue
5.352

@<SCITEGIC>MOL_PROPERTY
Bond
SciTegic.value.DoubleValue
0.063

@<SCITEGIC>MOL_PROPERTY
Angle
SciTegic.value.DoubleValue
2.579

@<SCITEGIC>MOL_PROPERTY
Pdih
SciTegic.value.DoubleValue
0.010

@<SCITEGIC>MOL_PROPERTY
Idih
SciTegic.value.DoubleValue
0.000

@<SCITEGIC>MOL_PROPERTY
Tether
SciTegic.value.DoubleValue
0.000

@<TRIPOS>MOLECULE
guest-s19_confgen4.mol2 : confsearch ligand conformer 591
          17          16           1
SMALL
USER_CHARGES
 
@<TRIPOS>ATOM
       1    C1      22.939614   18.756528   22.970201 C.2        1 MOL1         0.6173
       2    O1      23.014122   17.543568   23.030341 O.co2      1 MOL1        -0.6755
       3    O2      23.917748   19.478372   22.967602 O.co2      1 MOL1        -0.6755
       4    C2      21.604000   19.408620   22.899469 C.2        1 MOL1        -0.1504
       5    H1      21.608212   20.494974   22.848686 H          1 MOL1         0.0814
       6    C3      20.433779   18.730738   22.892752 C.2        1 MOL1        -0.1394
       7    H2      20.418101   17.642100   22.939850 H          1 MOL1         0.0817
       8    C4      19.078159   19.401198   22.816648 C.3        1 MOL1        -0.1849
       9    H3      19.075282   20.299041   23.449417 H          1 MOL1         0.0736
      10    H4      18.308657   18.734216   23.228104 H          1 MOL1         0.0736
      11    C5      18.699118   19.798151   21.372932 C.3        1 MOL1        -0.1866
      12    H5      17.761652   20.370809   21.392263 H          1 MOL1         0.0738
      13    H6      19.466695   20.466621   20.958927 H          1 MOL1         0.0738
      14    C6      18.523321   18.573651   20.449672 C.3        1 MOL1        -0.2879
      15    H7      17.750953   17.896902   20.837748 H          1 MOL1         0.0750
      16    H8      18.222049   18.889803   19.442602 H          1 MOL1         0.0750
      17    H9      19.460094   18.008506   20.358620 H          1 MOL1         0.0750
@<TRIPOS>BOND
    1     1     2    1
    2     1     3    2
    3     1     4    1
    4     4     5    1
    5     4     6    2
    6     6     7    1
    7     6     8    1
    8     8     9    1
    9     8    10    1
   10     8    11    1
   11    11    12    1
   12    11    13    1
   13    11    14    1
   14    14    15    1
   15    14    16    1
   16    14    17    1
@<TRIPOS>SUBSTRUCTURE
       1 MOL1            1 RESIDUE      1      MOL     
@<SCITEGIC>MOL_PROPERTY
VConf Rank
SciTegic.value.IntegerValue
591

@<SCITEGIC>MOL_PROPERTY
Conf_Id
SciTegic.value.IntegerValue
3

@<SCITEGIC>MOL_PROPERTY
Delta U+W
SciTegic.value.DoubleValue
0.531

@<SCITEGIC>MOL_PROPERTY
U+W
SciTegic.value.DoubleValue
-52.878

@<SCITEGIC>MOL_PROPERTY
Grad RMS
SciTegic.value.DoubleValue
0.000000

@<SCITEGIC>MOL_PROPERTY
U
SciTegic.value.DoubleValue
10.067

@<SCITEGIC>MOL_PROPERTY
W
SciTegic.value.DoubleValue
-62.945

@<SCITEGIC>MOL_PROPERTY
W(PB)
SciTegic.value.DoubleValue
-64.982

@<SCITEGIC>MOL_PROPERTY
W(SA)
SciTegic.value.DoubleValue
2.037

@<SCITEGIC>MOL_PROPERTY
Valence
SciTegic.value.DoubleValue
2.779

@<SCITEGIC>MOL_PROPERTY
Coulomb
SciTegic.value.DoubleValue
6.474

@<SCITEGIC>MOL_PROPERTY
VdW
SciTegic.value.DoubleValue
0.815

@<SCITEGIC>MOL_PROPERTY
VdW6
SciTegic.value.DoubleValue
-5.088

@<SCITEGIC>MOL_PROPERTY
VdW12
SciTegic.value.DoubleValue
5.902

@<SCITEGIC>MOL_PROPERTY
Bond
SciTegic.value.DoubleValue
0.078

@<SCITEGIC>MOL_PROPERTY
Angle
SciTegic.value.DoubleValue
2.651

@<SCITEGIC>MOL_PROPERTY
Pdih
SciTegic.value.DoubleValue
0.050

@<SCITEGIC>MOL_PROPERTY
Idih
SciTegic.value.DoubleValue
0.000

@<SCITEGIC>MOL_PROPERTY
Tether
SciTegic.value.DoubleValue
0.000

@<TRIPOS>MOLECULE
guest-s19_confgen4.mol2 : confsearch ligand conformer 592
          17          16           1
SMALL
USER_CHARGES
 
@<TRIPOS>ATOM
       1    C1      21.280565   21.117701   23.905751 C.2        1 MOL1         0.6173
       2    O1      22.404057   21.580795   23.872754 O.co2      1 MOL1        -0.6755
       3    O2      20.591741   21.126847   24.908689 O.co2      1 MOL1        -0.6755
       4    C2      20.745473   20.522207   22.651504 C.2        1 MOL1        -0.1504
       5    H1      21.412592   20.546910   21.792989 H          1 MOL1         0.0814
       6    C3      19.515263   19.970208   22.544425 C.2        1 MOL1        -0.1394
       7    H2      18.841903   19.938009   23.400618 H          1 MOL1         0.0817
       8    C4      18.974373   19.362263   21.266859 C.3        1 MOL1        -0.1849
       9    H3      19.560917   19.697737   20.400739 H          1 MOL1         0.0736
      10    H4      17.951345   19.725935   21.102037 H          1 MOL1         0.0736
      11    C5      18.955590   17.818710   21.314383 C.3        1 MOL1        -0.1866
      12    H5      18.371244   17.482288   22.182034 H          1 MOL1         0.0738
      13    H6      18.439288   17.438868   20.421999 H          1 MOL1         0.0738
      14    C6      20.372501   17.209015   21.373263 C.3        1 MOL1        -0.2879
      15    H7      20.897954   17.515411   22.287086 H          1 MOL1         0.0750
      16    H8      20.321576   16.112555   21.366255 H          1 MOL1         0.0750
      17    H9      20.972496   17.526261   20.510446 H          1 MOL1         0.0750
@<TRIPOS>BOND
    1     1     2    1
    2     1     3    2
    3     1     4    1
    4     4     5    1
    5     4     6    2
    6     6     7    1
    7     6     8    1
    8     8     9    1
    9     8    10    1
   10     8    11    1
   11    11    12    1
   12    11    13    1
   13    11    14    1
   14    14    15    1
   15    14    16    1
   16    14    17    1
@<TRIPOS>SUBSTRUCTURE
       1 MOL1            1 RESIDUE      1      MOL     
@<SCITEGIC>MOL_PROPERTY
VConf Rank
SciTegic.value.IntegerValue
592

@<SCITEGIC>MOL_PROPERTY
Conf_Id
SciTegic.value.IntegerValue
45

@<SCITEGIC>MOL_PROPERTY
Delta U+W
SciTegic.value.DoubleValue
0.562

@<SCITEGIC>MOL_PROPERTY
U+W
SciTegic.value.DoubleValue
-52.846

@<SCITEGIC>MOL_PROPERTY
Grad RMS
SciTegic.value.DoubleValue
0.000000

@<SCITEGIC>MOL_PROPERTY
U
SciTegic.value.DoubleValue
10.243

@<SCITEGIC>MOL_PROPERTY
W
SciTegic.value.DoubleValue
-63.089

@<SCITEGIC>MOL_PROPERTY
W(PB)
SciTegic.value.DoubleValue
-65.116

@<SCITEGIC>MOL_PROPERTY
W(SA)
SciTegic.value.DoubleValue
2.026

@<SCITEGIC>MOL_PROPERTY
Valence
SciTegic.value.DoubleValue
2.822

@<SCITEGIC>MOL_PROPERTY
Coulomb
SciTegic.value.DoubleValue
6.637

@<SCITEGIC>MOL_PROPERTY
VdW
SciTegic.value.DoubleValue
0.785

@<SCITEGIC>MOL_PROPERTY
VdW6
SciTegic.value.DoubleValue
-5.216

@<SCITEGIC>MOL_PROPERTY
VdW12
SciTegic.value.DoubleValue
6.001

@<SCITEGIC>MOL_PROPERTY
Bond
SciTegic.value.DoubleValue
0.080

@<SCITEGIC>MOL_PROPERTY
Angle
SciTegic.value.DoubleValue
2.678

@<SCITEGIC>MOL_PROPERTY
Pdih
SciTegic.value.DoubleValue
0.064

@<SCITEGIC>MOL_PROPERTY
Idih
SciTegic.value.DoubleValue
0.000

@<SCITEGIC>MOL_PROPERTY
Tether
SciTegic.value.DoubleValue
0.000

@<TRIPOS>MOLECULE
guest-s19_confgen4.mol2 : confsearch ligand conformer 593
          17          16           1
SMALL
USER_CHARGES
 
@<TRIPOS>ATOM
       1    C1      22.758595   17.705793   23.231405 C.2        1 MOL1         0.6173
       2    O1      23.727897   17.238384   22.665997 O.co2      1 MOL1        -0.6755
       3    O2      22.533924   17.527626   24.413849 O.co2      1 MOL1        -0.6755
       4    C2      21.820985   18.529559   22.421184 C.2        1 MOL1        -0.1504
       5    H1      22.080019   18.649435   21.371689 H          1 MOL1         0.0814
       6    C3      20.704407   19.108802   22.917991 C.2        1 MOL1        -0.1394
       7    H2      20.434171   18.993193   23.967458 H          1 MOL1         0.0817
       8    C4      19.754897   19.943336   22.086594 C.3        1 MOL1        -0.1849
       9    H3      20.320900   20.556146   21.371811 H          1 MOL1         0.0736
      10    H4      19.213449   20.642802   22.737722 H          1 MOL1         0.0736
      11    C5      18.745410   19.057686   21.327927 C.3        1 MOL1        -0.1866
      12    H5      19.285448   18.360046   20.672780 H          1 MOL1         0.0738
      13    H6      18.179143   18.447254   22.045062 H          1 MOL1         0.0738
      14    C6      17.767814   19.901408   20.485333 C.3        1 MOL1        -0.2879
      15    H7      17.191295   20.586329   21.120896 H          1 MOL1         0.0750
      16    H8      18.307317   20.498670   19.738572 H          1 MOL1         0.0750
      17    H9      17.058081   19.254568   19.953348 H          1 MOL1         0.0750
@<TRIPOS>BOND
    1     1     2    1
    2     1     3    2
    3     1     4    1
    4     4     5    1
    5     4     6    2
    6     6     7    1
    7     6     8    1
    8     8     9    1
    9     8    10    1
   10     8    11    1
   11    11    12    1
   12    11    13    1
   13    11    14    1
   14    14    15    1
   15    14    16    1
   16    14    17    1
@<TRIPOS>SUBSTRUCTURE
       1 MOL1            1 RESIDUE      1      MOL     
@<SCITEGIC>MOL_PROPERTY
VConf Rank
SciTegic.value.IntegerValue
593

@<SCITEGIC>MOL_PROPERTY
Conf_Id
SciTegic.value.IntegerValue
36

@<SCITEGIC>MOL_PROPERTY
Delta U+W
SciTegic.value.DoubleValue
0.000

@<SCITEGIC>MOL_PROPERTY
U+W
SciTegic.value.DoubleValue
-53.409

@<SCITEGIC>MOL_PROPERTY
Grad RMS
SciTegic.value.DoubleValue
0.000000

@<SCITEGIC>MOL_PROPERTY
U
SciTegic.value.DoubleValue
9.048

@<SCITEGIC>MOL_PROPERTY
W
SciTegic.value.DoubleValue
-62.457

@<SCITEGIC>MOL_PROPERTY
W(PB)
SciTegic.value.DoubleValue
-64.540

@<SCITEGIC>MOL_PROPERTY
W(SA)
SciTegic.value.DoubleValue
2.084

@<SCITEGIC>MOL_PROPERTY
Valence
SciTegic.value.DoubleValue
2.652

@<SCITEGIC>MOL_PROPERTY
Coulomb
SciTegic.value.DoubleValue
5.578

@<SCITEGIC>MOL_PROPERTY
VdW
SciTegic.value.DoubleValue
0.818

@<SCITEGIC>MOL_PROPERTY
VdW6
SciTegic.value.DoubleValue
-4.534

@<SCITEGIC>MOL_PROPERTY
VdW12
SciTegic.value.DoubleValue
5.352

@<SCITEGIC>MOL_PROPERTY
Bond
SciTegic.value.DoubleValue
0.063

@<SCITEGIC>MOL_PROPERTY
Angle
SciTegic.value.DoubleValue
2.579

@<SCITEGIC>MOL_PROPERTY
Pdih
SciTegic.value.DoubleValue
0.010

@<SCITEGIC>MOL_PROPERTY
Idih
SciTegic.value.DoubleValue
0.000

@<SCITEGIC>MOL_PROPERTY
Tether
SciTegic.value.DoubleValue
0.000

@<TRIPOS>MOLECULE
guest-s19_confgen4.mol2 : confsearch ligand conformer 594
          17          16           1
SMALL
USER_CHARGES
 
@<TRIPOS>ATOM
       1    C1      22.328140   17.871108   19.785490 C.2        1 MOL1         0.6173
       2    O1      23.298753   17.570435   20.454744 O.co2      1 MOL1        -0.6755
       3    O2      22.347894   17.901183   18.570414 O.co2      1 MOL1        -0.6755
       4    C2      21.049080   18.219890   20.461153 C.2        1 MOL1        -0.1504
       5    H1      20.221063   18.478822   19.805219 H          1 MOL1         0.0814
       6    C3      20.883805   18.229189   21.803421 C.2        1 MOL1        -0.1394
       7    H2      21.707319   17.973551   22.469940 H          1 MOL1         0.0817
       8    C4      19.580013   18.586947   22.482667 C.3        1 MOL1        -0.1849
       9    H3      19.541056   18.117054   23.474670 H          1 MOL1         0.0736
      10    H4      18.734722   18.180335   21.910865 H          1 MOL1         0.0736
      11    C5      19.423042   20.114391   22.628584 C.3        1 MOL1        -0.1866
      12    H5      20.268482   20.518426   23.202651 H          1 MOL1         0.0738
      13    H6      19.457694   20.585741   21.636521 H          1 MOL1         0.0738
      14    C6      18.100602   20.487007   23.328466 C.3        1 MOL1        -0.2879
      15    H7      18.053760   20.054001   24.336307 H          1 MOL1         0.0750
      16    H8      18.006829   21.576669   23.423189 H          1 MOL1         0.0750
      17    H9      17.237238   20.120983   22.757445 H          1 MOL1         0.0750
@<TRIPOS>BOND
    1     1     2    1
    2     1     3    2
    3     1     4    1
    4     4     5    1
    5     4     6    2
    6     6     7    1
    7     6     8    1
    8     8     9    1
    9     8    10    1
   10     8    11    1
   11    11    12    1
   12    11    13    1
   13    11    14    1
   14    14    15    1
   15    14    16    1
   16    14    17    1
@<TRIPOS>SUBSTRUCTURE
       1 MOL1            1 RESIDUE      1      MOL     
@<SCITEGIC>MOL_PROPERTY
VConf Rank
SciTegic.value.IntegerValue
594

@<SCITEGIC>MOL_PROPERTY
Conf_Id
SciTegic.value.IntegerValue
1

@<SCITEGIC>MOL_PROPERTY
Delta U+W
SciTegic.value.DoubleValue
0.030

@<SCITEGIC>MOL_PROPERTY
U+W
SciTegic.value.DoubleValue
-53.378

@<SCITEGIC>MOL_PROPERTY
Grad RMS
SciTegic.value.DoubleValue
0.000000

@<SCITEGIC>MOL_PROPERTY
U
SciTegic.value.DoubleValue
9.048

@<SCITEGIC>MOL_PROPERTY
W
SciTegic.value.DoubleValue
-62.426

@<SCITEGIC>MOL_PROPERTY
W(PB)
SciTegic.value.DoubleValue
-64.506

@<SCITEGIC>MOL_PROPERTY
W(SA)
SciTegic.value.DoubleValue
2.080

@<SCITEGIC>MOL_PROPERTY
Valence
SciTegic.value.DoubleValue
2.652

@<SCITEGIC>MOL_PROPERTY
Coulomb
SciTegic.value.DoubleValue
5.578

@<SCITEGIC>MOL_PROPERTY
VdW
SciTegic.value.DoubleValue
0.818

@<SCITEGIC>MOL_PROPERTY
VdW6
SciTegic.value.DoubleValue
-4.535

@<SCITEGIC>MOL_PROPERTY
VdW12
SciTegic.value.DoubleValue
5.352

@<SCITEGIC>MOL_PROPERTY
Bond
SciTegic.value.DoubleValue
0.063

@<SCITEGIC>MOL_PROPERTY
Angle
SciTegic.value.DoubleValue
2.579

@<SCITEGIC>MOL_PROPERTY
Pdih
SciTegic.value.DoubleValue
0.010

@<SCITEGIC>MOL_PROPERTY
Idih
SciTegic.value.DoubleValue
0.000

@<SCITEGIC>MOL_PROPERTY
Tether
SciTegic.value.DoubleValue
0.000

@<TRIPOS>MOLECULE
guest-s19_confgen4.mol2 : confsearch ligand conformer 595
          17          16           1
SMALL
USER_CHARGES
 
@<TRIPOS>ATOM
       1    C1      22.046178   18.260355   24.217377 C.2        1 MOL1         0.6173
       2    O1      21.903696   19.172036   25.010457 O.co2      1 MOL1        -0.6755
       3    O2      22.609206   17.220960   24.501047 O.co2      1 MOL1        -0.6755
       4    C2      21.520028   18.401285   22.832676 C.2        1 MOL1        -0.1504
       5    H1      21.681503   17.550611   22.174618 H          1 MOL1         0.0814
       6    C3      20.872716   19.499257   22.380537 C.2        1 MOL1        -0.1394
       7    H2      20.702538   20.355876   23.032335 H          1 MOL1         0.0817
       8    C4      20.336513   19.633966   20.970802 C.3        1 MOL1        -0.1849
       9    H3      21.059930   19.212526   20.259759 H          1 MOL1         0.0736
      10    H4      20.234610   20.696115   20.710516 H          1 MOL1         0.0736
      11    C5      18.976366   18.925038   20.789184 C.3        1 MOL1        -0.1866
      12    H5      18.689271   18.964845   19.729399 H          1 MOL1         0.0738
      13    H6      19.075463   17.861664   21.047724 H          1 MOL1         0.0738
      14    C6      17.857867   19.564671   21.639208 C.3        1 MOL1        -0.2879
      15    H7      17.732330   20.626044   21.388464 H          1 MOL1         0.0750
      16    H8      16.900278   19.058660   21.460649 H          1 MOL1         0.0750
      17    H9      18.083064   19.489889   22.711082 H          1 MOL1         0.0750
@<TRIPOS>BOND
    1     1     2    1
    2     1     3    2
    3     1     4    1
    4     4     5    1
    5     4     6    2
    6     6     7    1
    7     6     8    1
    8     8     9    1
    9     8    10    1
   10     8    11    1
   11    11    12    1
   12    11    13    1
   13    11    14    1
   14    14    15    1
   15    14    16    1
   16    14    17    1
@<TRIPOS>SUBSTRUCTURE
       1 MOL1            1 RESIDUE      1      MOL     
@<SCITEGIC>MOL_PROPERTY
VConf Rank
SciTegic.value.IntegerValue
595

@<SCITEGIC>MOL_PROPERTY
Conf_Id
SciTegic.value.IntegerValue
3

@<SCITEGIC>MOL_PROPERTY
Delta U+W
SciTegic.value.DoubleValue
0.531

@<SCITEGIC>MOL_PROPERTY
U+W
SciTegic.value.DoubleValue
-52.878

@<SCITEGIC>MOL_PROPERTY
Grad RMS
SciTegic.value.DoubleValue
0.000000

@<SCITEGIC>MOL_PROPERTY
U
SciTegic.value.DoubleValue
10.067

@<SCITEGIC>MOL_PROPERTY
W
SciTegic.value.DoubleValue
-62.945

@<SCITEGIC>MOL_PROPERTY
W(PB)
SciTegic.value.DoubleValue
-64.982

@<SCITEGIC>MOL_PROPERTY
W(SA)
SciTegic.value.DoubleValue
2.037

@<SCITEGIC>MOL_PROPERTY
Valence
SciTegic.value.DoubleValue
2.779

@<SCITEGIC>MOL_PROPERTY
Coulomb
SciTegic.value.DoubleValue
6.474

@<SCITEGIC>MOL_PROPERTY
VdW
SciTegic.value.DoubleValue
0.815

@<SCITEGIC>MOL_PROPERTY
VdW6
SciTegic.value.DoubleValue
-5.088

@<SCITEGIC>MOL_PROPERTY
VdW12
SciTegic.value.DoubleValue
5.902

@<SCITEGIC>MOL_PROPERTY
Bond
SciTegic.value.DoubleValue
0.078

@<SCITEGIC>MOL_PROPERTY
Angle
SciTegic.value.DoubleValue
2.651

@<SCITEGIC>MOL_PROPERTY
Pdih
SciTegic.value.DoubleValue
0.050

@<SCITEGIC>MOL_PROPERTY
Idih
SciTegic.value.DoubleValue
0.000

@<SCITEGIC>MOL_PROPERTY
Tether
SciTegic.value.DoubleValue
0.000

@<TRIPOS>MOLECULE
guest-s19_confgen4.mol2 : confsearch ligand conformer 596
          17          16           1
SMALL
USER_CHARGES
 
@<TRIPOS>ATOM
       1    C1      19.076647   20.288467   19.450931 C.2        1 MOL1         0.6173
       2    O1      19.727205   20.851136   18.591887 O.co2      1 MOL1        -0.6755
       3    O2      17.872199   20.421678   19.560515 O.co2      1 MOL1        -0.6755
       4    C2      19.807354   19.400978   20.395656 C.2        1 MOL1        -0.1504
       5    H1      20.881375   19.326898   20.241717 H          1 MOL1         0.0814
       6    C3      19.212695   18.716067   21.399081 C.2        1 MOL1        -0.1394
       7    H2      18.137675   18.787486   21.562636 H          1 MOL1         0.0817
       8    C4      19.959711   17.815476   22.360975 C.3        1 MOL1        -0.1849
       9    H3      20.948566   17.556266   21.958838 H          1 MOL1         0.0736
      10    H4      19.413584   16.868136   22.462465 H          1 MOL1         0.0736
      11    C5      20.118853   18.453954   23.758182 C.3        1 MOL1        -0.1866
      12    H5      19.130275   18.715981   24.160070 H          1 MOL1         0.0738
      13    H6      20.549915   17.711970   24.444361 H          1 MOL1         0.0738
      14    C6      21.021580   19.705981   23.739737 C.3        1 MOL1        -0.2879
      15    H7      20.589282   20.496864   23.113098 H          1 MOL1         0.0750
      16    H8      21.143423   20.109043   24.753424 H          1 MOL1         0.0750
      17    H9      22.018541   19.465340   23.348260 H          1 MOL1         0.0750
@<TRIPOS>BOND
    1     1     2    1
    2     1     3    2
    3     1     4    1
    4     4     5    1
    5     4     6    2
    6     6     7    1
    7     6     8    1
    8     8     9    1
    9     8    10    1
   10     8    11    1
   11    11    12    1
   12    11    13    1
   13    11    14    1
   14    14    15    1
   15    14    16    1
   16    14    17    1
@<TRIPOS>SUBSTRUCTURE
       1 MOL1            1 RESIDUE      1      MOL     
@<SCITEGIC>MOL_PROPERTY
VConf Rank
SciTegic.value.IntegerValue
596

@<SCITEGIC>MOL_PROPERTY
Conf_Id
SciTegic.value.IntegerValue
45

@<SCITEGIC>MOL_PROPERTY
Delta U+W
SciTegic.value.DoubleValue
0.562

@<SCITEGIC>MOL_PROPERTY
U+W
SciTegic.value.DoubleValue
-52.846

@<SCITEGIC>MOL_PROPERTY
Grad RMS
SciTegic.value.DoubleValue
0.000000

@<SCITEGIC>MOL_PROPERTY
U
SciTegic.value.DoubleValue
10.243

@<SCITEGIC>MOL_PROPERTY
W
SciTegic.value.DoubleValue
-63.089

@<SCITEGIC>MOL_PROPERTY
W(PB)
SciTegic.value.DoubleValue
-65.116

@<SCITEGIC>MOL_PROPERTY
W(SA)
SciTegic.value.DoubleValue
2.026

@<SCITEGIC>MOL_PROPERTY
Valence
SciTegic.value.DoubleValue
2.822

@<SCITEGIC>MOL_PROPERTY
Coulomb
SciTegic.value.DoubleValue
6.637

@<SCITEGIC>MOL_PROPERTY
VdW
SciTegic.value.DoubleValue
0.785

@<SCITEGIC>MOL_PROPERTY
VdW6
SciTegic.value.DoubleValue
-5.216

@<SCITEGIC>MOL_PROPERTY
VdW12
SciTegic.value.DoubleValue
6.001

@<SCITEGIC>MOL_PROPERTY
Bond
SciTegic.value.DoubleValue
0.080

@<SCITEGIC>MOL_PROPERTY
Angle
SciTegic.value.DoubleValue
2.678

@<SCITEGIC>MOL_PROPERTY
Pdih
SciTegic.value.DoubleValue
0.064

@<SCITEGIC>MOL_PROPERTY
Idih
SciTegic.value.DoubleValue
0.000

@<SCITEGIC>MOL_PROPERTY
Tether
SciTegic.value.DoubleValue
0.000

@<TRIPOS>MOLECULE
guest-s19_confgen4.mol2 : confsearch ligand conformer 597
          17          16           1
SMALL
USER_CHARGES
 
@<TRIPOS>ATOM
       1    C1      17.061621   19.411697   23.555950 C.2        1 MOL1         0.6173
       2    O1      16.026109   19.935601   23.194090 O.co2      1 MOL1        -0.6755
       3    O2      17.270694   19.089513   24.710455 O.co2      1 MOL1        -0.6755
       4    C2      18.103495   19.162436   22.523222 C.2        1 MOL1        -0.1504
       5    H1      17.853205   19.474007   21.511695 H          1 MOL1         0.0814
       6    C3      19.300696   18.589578   22.783281 C.2        1 MOL1        -0.1394
       7    H2      19.562704   18.275807   23.793564 H          1 MOL1         0.0817
       8    C4      20.355711   18.341597   21.727494 C.3        1 MOL1        -0.1849
       9    H3      19.880601   18.025936   20.788645 H          1 MOL1         0.0736
      10    H4      21.004479   17.513461   22.043212 H          1 MOL1         0.0736
      11    C5      21.210430   19.601527   21.480415 C.3        1 MOL1        -0.1866
      12    H5      20.563285   20.429979   21.160368 H          1 MOL1         0.0738
      13    H6      21.686189   19.914090   22.420375 H          1 MOL1         0.0738
      14    C6      22.294464   19.354197   20.412134 C.3        1 MOL1        -0.2879
      15    H7      22.975510   18.550716   20.722015 H          1 MOL1         0.0750
      16    H8      21.842815   19.069985   19.452618 H          1 MOL1         0.0750
      17    H9      22.891742   20.260911   20.250086 H          1 MOL1         0.0750
@<TRIPOS>BOND
    1     1     2    1
    2     1     3    2
    3     1     4    1
    4     4     5    1
    5     4     6    2
    6     6     7    1
    7     6     8    1
    8     8     9    1
    9     8    10    1
   10     8    11    1
   11    11    12    1
   12    11    13    1
   13    11    14    1
   14    14    15    1
   15    14    16    1
   16    14    17    1
@<TRIPOS>SUBSTRUCTURE
       1 MOL1            1 RESIDUE      1      MOL     
@<SCITEGIC>MOL_PROPERTY
VConf Rank
SciTegic.value.IntegerValue
597

@<SCITEGIC>MOL_PROPERTY
Conf_Id
SciTegic.value.IntegerValue
36

@<SCITEGIC>MOL_PROPERTY
Delta U+W
SciTegic.value.DoubleValue
0.000

@<SCITEGIC>MOL_PROPERTY
U+W
SciTegic.value.DoubleValue
-53.409

@<SCITEGIC>MOL_PROPERTY
Grad RMS
SciTegic.value.DoubleValue
0.000000

@<SCITEGIC>MOL_PROPERTY
U
SciTegic.value.DoubleValue
9.048

@<SCITEGIC>MOL_PROPERTY
W
SciTegic.value.DoubleValue
-62.457

@<SCITEGIC>MOL_PROPERTY
W(PB)
SciTegic.value.DoubleValue
-64.540

@<SCITEGIC>MOL_PROPERTY
W(SA)
SciTegic.value.DoubleValue
2.084

@<SCITEGIC>MOL_PROPERTY
Valence
SciTegic.value.DoubleValue
2.652

@<SCITEGIC>MOL_PROPERTY
Coulomb
SciTegic.value.DoubleValue
5.578

@<SCITEGIC>MOL_PROPERTY
VdW
SciTegic.value.DoubleValue
0.818

@<SCITEGIC>MOL_PROPERTY
VdW6
SciTegic.value.DoubleValue
-4.534

@<SCITEGIC>MOL_PROPERTY
VdW12
SciTegic.value.DoubleValue
5.352

@<SCITEGIC>MOL_PROPERTY
Bond
SciTegic.value.DoubleValue
0.063

@<SCITEGIC>MOL_PROPERTY
Angle
SciTegic.value.DoubleValue
2.579

@<SCITEGIC>MOL_PROPERTY
Pdih
SciTegic.value.DoubleValue
0.010

@<SCITEGIC>MOL_PROPERTY
Idih
SciTegic.value.DoubleValue
0.000

@<SCITEGIC>MOL_PROPERTY
Tether
SciTegic.value.DoubleValue
0.000

@<TRIPOS>MOLECULE
guest-s19_confgen4.mol2 : confsearch ligand conformer 598
          17          16           1
SMALL
USER_CHARGES
 
@<TRIPOS>ATOM
       1    C1      19.748312   22.441926   22.219321 C.2        1 MOL1         0.6173
       2    O1      18.584813   22.724481   22.002929 O.co2      1 MOL1        -0.6755
       3    O2      20.625969   23.278725   22.304129 O.co2      1 MOL1        -0.6755
       4    C2      20.138383   21.016473   22.392784 C.2        1 MOL1        -0.1504
       5    H1      21.193279   20.832940   22.583622 H          1 MOL1         0.0814
       6    C3      19.268619   19.983163   22.323005 C.2        1 MOL1        -0.1394
       7    H2      18.209916   20.155540   22.130113 H          1 MOL1         0.0817
       8    C4      19.673898   18.536063   22.498760 C.3        1 MOL1        -0.1849
       9    H3      18.808971   17.950536   22.838536 H          1 MOL1         0.0736
      10    H4      20.436302   18.452444   23.285243 H          1 MOL1         0.0736
      11    C5      20.215678   17.940475   21.183174 C.3        1 MOL1        -0.1866
      12    H5      19.450612   18.023303   20.398712 H          1 MOL1         0.0738
      13    H6      21.083707   18.522729   20.843961 H          1 MOL1         0.0738
      14    C6      20.622397   16.462731   21.351632 C.3        1 MOL1        -0.2879
      15    H7      19.764060   15.851600   21.660187 H          1 MOL1         0.0750
      16    H8      21.004970   16.056706   20.406163 H          1 MOL1         0.0750
      17    H9      21.409607   16.355896   22.109473 H          1 MOL1         0.0750
@<TRIPOS>BOND
    1     1     2    1
    2     1     3    2
    3     1     4    1
    4     4     5    1
    5     4     6    2
    6     6     7    1
    7     6     8    1
    8     8     9    1
    9     8    10    1
   10     8    11    1
   11    11    12    1
   12    11    13    1
   13    11    14    1
   14    14    15    1
   15    14    16    1
   16    14    17    1
@<TRIPOS>SUBSTRUCTURE
       1 MOL1            1 RESIDUE      1      MOL     
@<SCITEGIC>MOL_PROPERTY
VConf Rank
SciTegic.value.IntegerValue
598

@<SCITEGIC>MOL_PROPERTY
Conf_Id
SciTegic.value.IntegerValue
1

@<SCITEGIC>MOL_PROPERTY
Delta U+W
SciTegic.value.DoubleValue
0.030

@<SCITEGIC>MOL_PROPERTY
U+W
SciTegic.value.DoubleValue
-53.378

@<SCITEGIC>MOL_PROPERTY
Grad RMS
SciTegic.value.DoubleValue
0.000000

@<SCITEGIC>MOL_PROPERTY
U
SciTegic.value.DoubleValue
9.048

@<SCITEGIC>MOL_PROPERTY
W
SciTegic.value.DoubleValue
-62.426

@<SCITEGIC>MOL_PROPERTY
W(PB)
SciTegic.value.DoubleValue
-64.506

@<SCITEGIC>MOL_PROPERTY
W(SA)
SciTegic.value.DoubleValue
2.080

@<SCITEGIC>MOL_PROPERTY
Valence
SciTegic.value.DoubleValue
2.652

@<SCITEGIC>MOL_PROPERTY
Coulomb
SciTegic.value.DoubleValue
5.578

@<SCITEGIC>MOL_PROPERTY
VdW
SciTegic.value.DoubleValue
0.818

@<SCITEGIC>MOL_PROPERTY
VdW6
SciTegic.value.DoubleValue
-4.535

@<SCITEGIC>MOL_PROPERTY
VdW12
SciTegic.value.DoubleValue
5.352

@<SCITEGIC>MOL_PROPERTY
Bond
SciTegic.value.DoubleValue
0.063

@<SCITEGIC>MOL_PROPERTY
Angle
SciTegic.value.DoubleValue
2.579

@<SCITEGIC>MOL_PROPERTY
Pdih
SciTegic.value.DoubleValue
0.010

@<SCITEGIC>MOL_PROPERTY
Idih
SciTegic.value.DoubleValue
0.000

@<SCITEGIC>MOL_PROPERTY
Tether
SciTegic.value.DoubleValue
0.000

@<TRIPOS>MOLECULE
guest-s19_confgen4.mol2 : confsearch ligand conformer 599
          17          16           1
SMALL
USER_CHARGES
 
@<TRIPOS>ATOM
       1    C1      21.275536   21.823513   22.707158 C.2        1 MOL1         0.6173
       2    O1      20.740414   22.518911   21.864242 O.co2      1 MOL1        -0.6755
       3    O2      21.849826   22.283748   23.674724 O.co2      1 MOL1        -0.6755
       4    C2      21.242124   20.342432   22.567960 C.2        1 MOL1        -0.1504
       5    H1      21.739793   19.780327   23.354804 H          1 MOL1         0.0814
       6    C3      20.639013   19.695015   21.545173 C.2        1 MOL1        -0.1394
       7    H2      20.134561   20.248237   20.753294 H          1 MOL1         0.0817
       8    C4      20.605752   18.186961   21.412209 C.3        1 MOL1        -0.1849
       9    H3      21.581705   17.770573   21.696221 H          1 MOL1         0.0736
      10    H4      20.448222   17.908650   20.361485 H          1 MOL1         0.0736
      11    C5      19.507127   17.544001   22.286960 C.3        1 MOL1        -0.1866
      12    H5      19.598615   16.450478   22.232276 H          1 MOL1         0.0738
      13    H6      19.662828   17.819699   23.339183 H          1 MOL1         0.0738
      14    C6      18.085459   17.953921   21.847031 C.3        1 MOL1        -0.2879
      15    H7      17.902826   17.676360   20.800728 H          1 MOL1         0.0750
      16    H8      17.330377   17.453702   22.467143 H          1 MOL1         0.0750
      17    H9      17.937379   19.037271   21.945240 H          1 MOL1         0.0750
@<TRIPOS>BOND
    1     1     2    1
    2     1     3    2
    3     1     4    1
    4     4     5    1
    5     4     6    2
    6     6     7    1
    7     6     8    1
    8     8     9    1
    9     8    10    1
   10     8    11    1
   11    11    12    1
   12    11    13    1
   13    11    14    1
   14    14    15    1
   15    14    16    1
   16    14    17    1
@<TRIPOS>SUBSTRUCTURE
       1 MOL1            1 RESIDUE      1      MOL     
@<SCITEGIC>MOL_PROPERTY
VConf Rank
SciTegic.value.IntegerValue
599

@<SCITEGIC>MOL_PROPERTY
Conf_Id
SciTegic.value.IntegerValue
3

@<SCITEGIC>MOL_PROPERTY
Delta U+W
SciTegic.value.DoubleValue
0.531

@<SCITEGIC>MOL_PROPERTY
U+W
SciTegic.value.DoubleValue
-52.878

@<SCITEGIC>MOL_PROPERTY
Grad RMS
SciTegic.value.DoubleValue
0.000000

@<SCITEGIC>MOL_PROPERTY
U
SciTegic.value.DoubleValue
10.067

@<SCITEGIC>MOL_PROPERTY
W
SciTegic.value.DoubleValue
-62.945

@<SCITEGIC>MOL_PROPERTY
W(PB)
SciTegic.value.DoubleValue
-64.982

@<SCITEGIC>MOL_PROPERTY
W(SA)
SciTegic.value.DoubleValue
2.037

@<SCITEGIC>MOL_PROPERTY
Valence
SciTegic.value.DoubleValue
2.779

@<SCITEGIC>MOL_PROPERTY
Coulomb
SciTegic.value.DoubleValue
6.474

@<SCITEGIC>MOL_PROPERTY
VdW
SciTegic.value.DoubleValue
0.815

@<SCITEGIC>MOL_PROPERTY
VdW6
SciTegic.value.DoubleValue
-5.088

@<SCITEGIC>MOL_PROPERTY
VdW12
SciTegic.value.DoubleValue
5.902

@<SCITEGIC>MOL_PROPERTY
Bond
SciTegic.value.DoubleValue
0.078

@<SCITEGIC>MOL_PROPERTY
Angle
SciTegic.value.DoubleValue
2.651

@<SCITEGIC>MOL_PROPERTY
Pdih
SciTegic.value.DoubleValue
0.050

@<SCITEGIC>MOL_PROPERTY
Idih
SciTegic.value.DoubleValue
0.000

@<SCITEGIC>MOL_PROPERTY
Tether
SciTegic.value.DoubleValue
0.000

@<TRIPOS>MOLECULE
guest-s19_confgen4.mol2 : confsearch ligand conformer 600
          17          16           1
SMALL
USER_CHARGES
 
@<TRIPOS>ATOM
       1    C1      22.517815   20.277931   20.947946 C.2        1 MOL1         0.6173
       2    O1      22.940753   21.415610   21.015695 O.co2      1 MOL1        -0.6755
       3    O2      22.883181   19.487087   20.098521 O.co2      1 MOL1        -0.6755
       4    C2      21.512665   19.856830   21.961070 C.2        1 MOL1        -0.1504
       5    H1      21.230447   20.612037   22.690948 H          1 MOL1         0.0814
       6    C3      20.956458   18.624601   22.003834 C.2        1 MOL1        -0.1394
       7    H2      21.230832   17.863150   21.274156 H          1 MOL1         0.0817
       8    C4      19.931339   18.199740   23.034834 C.3        1 MOL1        -0.1849
       9    H3      19.936532   18.887717   23.891223 H          1 MOL1         0.0736
      10    H4      20.210207   17.214914   23.432780 H          1 MOL1         0.0736
      11    C5      18.506496   18.116332   22.444893 C.3        1 MOL1        -0.1866
      12    H5      18.500969   17.430339   21.586498 H          1 MOL1         0.0738
      13    H6      17.832036   17.683702   23.196645 H          1 MOL1         0.0738
      14    C6      17.960753   19.494274   22.013299 C.3        1 MOL1        -0.2879
      15    H7      18.574284   19.930873   21.214541 H          1 MOL1         0.0750
      16    H8      16.933989   19.402026   21.636322 H          1 MOL1         0.0750
      17    H9      17.950125   20.194559   22.858627 H          1 MOL1         0.0750
@<TRIPOS>BOND
    1     1     2    1
    2     1     3    2
    3     1     4    1
    4     4     5    1
    5     4     6    2
    6     6     7    1
    7     6     8    1
    8     8     9    1
    9     8    10    1
   10     8    11    1
   11    11    12    1
   12    11    13    1
   13    11    14    1
   14    14    15    1
   15    14    16    1
   16    14    17    1
@<TRIPOS>SUBSTRUCTURE
       1 MOL1            1 RESIDUE      1      MOL     
@<SCITEGIC>MOL_PROPERTY
VConf Rank
SciTegic.value.IntegerValue
600

@<SCITEGIC>MOL_PROPERTY
Conf_Id
SciTegic.value.IntegerValue
45

@<SCITEGIC>MOL_PROPERTY
Delta U+W
SciTegic.value.DoubleValue
0.562

@<SCITEGIC>MOL_PROPERTY
U+W
SciTegic.value.DoubleValue
-52.846

@<SCITEGIC>MOL_PROPERTY
Grad RMS
SciTegic.value.DoubleValue
0.000000

@<SCITEGIC>MOL_PROPERTY
U
SciTegic.value.DoubleValue
10.243

@<SCITEGIC>MOL_PROPERTY
W
SciTegic.value.DoubleValue
-63.089

@<SCITEGIC>MOL_PROPERTY
W(PB)
SciTegic.value.DoubleValue
-65.116

@<SCITEGIC>MOL_PROPERTY
W(SA)
SciTegic.value.DoubleValue
2.026

@<SCITEGIC>MOL_PROPERTY
Valence
SciTegic.value.DoubleValue
2.822

@<SCITEGIC>MOL_PROPERTY
Coulomb
SciTegic.value.DoubleValue
6.637

@<SCITEGIC>MOL_PROPERTY
VdW
SciTegic.value.DoubleValue
0.785

@<SCITEGIC>MOL_PROPERTY
VdW6
SciTegic.value.DoubleValue
-5.216

@<SCITEGIC>MOL_PROPERTY
VdW12
SciTegic.value.DoubleValue
6.001

@<SCITEGIC>MOL_PROPERTY
Bond
SciTegic.value.DoubleValue
0.080

@<SCITEGIC>MOL_PROPERTY
Angle
SciTegic.value.DoubleValue
2.678

@<SCITEGIC>MOL_PROPERTY
Pdih
SciTegic.value.DoubleValue
0.064

@<SCITEGIC>MOL_PROPERTY
Idih
SciTegic.value.DoubleValue
0.000

@<SCITEGIC>MOL_PROPERTY
Tether
SciTegic.value.DoubleValue
0.000

@<TRIPOS>MOLECULE
guest-s19_confgen4.mol2 : confsearch ligand conformer 601
          17          16           1
SMALL
USER_CHARGES
 
@<TRIPOS>ATOM
       1    C1      17.379333   20.573794   23.470971 C.2        1 MOL1         0.6173
       2    O1      17.296664   20.988927   24.610504 O.co2      1 MOL1        -0.6755
       3    O2      16.409686   20.417655   22.752780 O.co2      1 MOL1        -0.6755
       4    C2      18.736616   20.250683   22.953724 C.2        1 MOL1        -0.1504
       5    H1      19.559431   20.412803   23.646258 H          1 MOL1         0.0814
       6    C3      18.976481   19.780497   21.708544 C.2        1 MOL1        -0.1394
       7    H2      18.159258   19.612173   21.007412 H          1 MOL1         0.0817
       8    C4      20.359840   19.452288   21.191016 C.3        1 MOL1        -0.1849
       9    H3      21.083740   20.192279   21.558700 H          1 MOL1         0.0736
      10    H4      20.369103   19.523953   20.095039 H          1 MOL1         0.0736
      11    C5      20.798929   18.037129   21.619433 C.3        1 MOL1        -0.1866
      12    H5      20.794248   17.965030   22.715945 H          1 MOL1         0.0738
      13    H6      20.074482   17.298635   21.248796 H          1 MOL1         0.0738
      14    C6      22.204382   17.691233   21.087847 C.3        1 MOL1        -0.2879
      15    H7      22.228822   17.724792   19.990711 H          1 MOL1         0.0750
      16    H8      22.953472   18.397450   21.469366 H          1 MOL1         0.0750
      17    H9      22.499263   16.681717   21.402574 H          1 MOL1         0.0750
@<TRIPOS>BOND
    1     1     2    1
    2     1     3    2
    3     1     4    1
    4     4     5    1
    5     4     6    2
    6     6     7    1
    7     6     8    1
    8     8     9    1
    9     8    10    1
   10     8    11    1
   11    11    12    1
   12    11    13    1
   13    11    14    1
   14    14    15    1
   15    14    16    1
   16    14    17    1
@<TRIPOS>SUBSTRUCTURE
       1 MOL1            1 RESIDUE      1      MOL     
@<SCITEGIC>MOL_PROPERTY
VConf Rank
SciTegic.value.IntegerValue
601

@<SCITEGIC>MOL_PROPERTY
Conf_Id
SciTegic.value.IntegerValue
36

@<SCITEGIC>MOL_PROPERTY
Delta U+W
SciTegic.value.DoubleValue
0.000

@<SCITEGIC>MOL_PROPERTY
U+W
SciTegic.value.DoubleValue
-53.409

@<SCITEGIC>MOL_PROPERTY
Grad RMS
SciTegic.value.DoubleValue
0.000000

@<SCITEGIC>MOL_PROPERTY
U
SciTegic.value.DoubleValue
9.048

@<SCITEGIC>MOL_PROPERTY
W
SciTegic.value.DoubleValue
-62.457

@<SCITEGIC>MOL_PROPERTY
W(PB)
SciTegic.value.DoubleValue
-64.540

@<SCITEGIC>MOL_PROPERTY
W(SA)
SciTegic.value.DoubleValue
2.084

@<SCITEGIC>MOL_PROPERTY
Valence
SciTegic.value.DoubleValue
2.652

@<SCITEGIC>MOL_PROPERTY
Coulomb
SciTegic.value.DoubleValue
5.578

@<SCITEGIC>MOL_PROPERTY
VdW
SciTegic.value.DoubleValue
0.818

@<SCITEGIC>MOL_PROPERTY
VdW6
SciTegic.value.DoubleValue
-4.534

@<SCITEGIC>MOL_PROPERTY
VdW12
SciTegic.value.DoubleValue
5.352

@<SCITEGIC>MOL_PROPERTY
Bond
SciTegic.value.DoubleValue
0.063

@<SCITEGIC>MOL_PROPERTY
Angle
SciTegic.value.DoubleValue
2.579

@<SCITEGIC>MOL_PROPERTY
Pdih
SciTegic.value.DoubleValue
0.010

@<SCITEGIC>MOL_PROPERTY
Idih
SciTegic.value.DoubleValue
0.000

@<SCITEGIC>MOL_PROPERTY
Tether
SciTegic.value.DoubleValue
0.000

@<TRIPOS>MOLECULE
guest-s19_confgen4.mol2 : confsearch ligand conformer 602
          17          16           1
SMALL
USER_CHARGES
 
@<TRIPOS>ATOM
       1    C1      23.073759   18.661745   20.560963 C.2        1 MOL1         0.6173
       2    O1      23.003479   17.689351   19.833018 O.co2      1 MOL1        -0.6755
       3    O2      24.128193   19.187523   20.860016 O.co2      1 MOL1        -0.6755
       4    C2      21.827944   19.252136   21.120915 C.2        1 MOL1        -0.1504
       5    H1      21.960948   20.119443   21.763563 H          1 MOL1         0.0814
       6    C3      20.588478   18.770738   20.873801 C.2        1 MOL1        -0.1394
       7    H2      20.443934   17.900991   20.233161 H          1 MOL1         0.0817
       8    C4      19.326635   19.376015   21.448807 C.3        1 MOL1        -0.1849
       9    H3      18.473971   19.134123   20.800086 H          1 MOL1         0.0736
      10    H4      19.408013   20.471459   21.462477 H          1 MOL1         0.0736
      11    C5      19.053622   18.856493   22.875194 C.3        1 MOL1        -0.1866
      12    H5      18.970485   17.760875   22.858580 H          1 MOL1         0.0738
      13    H6      19.904089   19.101327   23.526593 H          1 MOL1         0.0738
      14    C6      17.763899   19.461759   23.464933 C.3        1 MOL1        -0.2879
      15    H7      16.891968   19.205013   22.849103 H          1 MOL1         0.0750
      16    H8      17.586438   19.080737   24.479063 H          1 MOL1         0.0750
      17    H9      17.833635   20.556006   23.521471 H          1 MOL1         0.0750
@<TRIPOS>BOND
    1     1     2    1
    2     1     3    2
    3     1     4    1
    4     4     5    1
    5     4     6    2
    6     6     7    1
    7     6     8    1
    8     8     9    1
    9     8    10    1
   10     8    11    1
   11    11    12    1
   12    11    13    1
   13    11    14    1
   14    14    15    1
   15    14    16    1
   16    14    17    1
@<TRIPOS>SUBSTRUCTURE
       1 MOL1            1 RESIDUE      1      MOL     
@<SCITEGIC>MOL_PROPERTY
VConf Rank
SciTegic.value.IntegerValue
602

@<SCITEGIC>MOL_PROPERTY
Conf_Id
SciTegic.value.IntegerValue
1

@<SCITEGIC>MOL_PROPERTY
Delta U+W
SciTegic.value.DoubleValue
0.030

@<SCITEGIC>MOL_PROPERTY
U+W
SciTegic.value.DoubleValue
-53.378

@<SCITEGIC>MOL_PROPERTY
Grad RMS
SciTegic.value.DoubleValue
0.000000

@<SCITEGIC>MOL_PROPERTY
U
SciTegic.value.DoubleValue
9.048

@<SCITEGIC>MOL_PROPERTY
W
SciTegic.value.DoubleValue
-62.426

@<SCITEGIC>MOL_PROPERTY
W(PB)
SciTegic.value.DoubleValue
-64.506

@<SCITEGIC>MOL_PROPERTY
W(SA)
SciTegic.value.DoubleValue
2.080

@<SCITEGIC>MOL_PROPERTY
Valence
SciTegic.value.DoubleValue
2.652

@<SCITEGIC>MOL_PROPERTY
Coulomb
SciTegic.value.DoubleValue
5.578

@<SCITEGIC>MOL_PROPERTY
VdW
SciTegic.value.DoubleValue
0.818

@<SCITEGIC>MOL_PROPERTY
VdW6
SciTegic.value.DoubleValue
-4.535

@<SCITEGIC>MOL_PROPERTY
VdW12
SciTegic.value.DoubleValue
5.352

@<SCITEGIC>MOL_PROPERTY
Bond
SciTegic.value.DoubleValue
0.063

@<SCITEGIC>MOL_PROPERTY
Angle
SciTegic.value.DoubleValue
2.579

@<SCITEGIC>MOL_PROPERTY
Pdih
SciTegic.value.DoubleValue
0.010

@<SCITEGIC>MOL_PROPERTY
Idih
SciTegic.value.DoubleValue
0.000

@<SCITEGIC>MOL_PROPERTY
Tether
SciTegic.value.DoubleValue
0.000

@<TRIPOS>MOLECULE
guest-s19_confgen4.mol2 : confsearch ligand conformer 603
          17          16           1
SMALL
USER_CHARGES
 
@<TRIPOS>ATOM
       1    C1      21.959467   19.074895   24.443063 C.2        1 MOL1         0.6173
       2    O1      23.007880   19.317325   23.875172 O.co2      1 MOL1        -0.6755
       3    O2      21.824142   19.169698   25.647434 O.co2      1 MOL1        -0.6755
       4    C2      20.777966   18.638210   23.650944 C.2        1 MOL1        -0.1504
       5    H1      19.873145   18.436944   24.219759 H          1 MOL1         0.0814
       6    C3      20.784465   18.491263   22.306567 C.2        1 MOL1        -0.1394
       7    H2      21.684576   18.693476   21.726474 H          1 MOL1         0.0817
       8    C4      19.576785   18.050098   21.506632 C.3        1 MOL1        -0.1849
       9    H3      19.050675   17.250105   22.044912 H          1 MOL1         0.0736
      10    H4      19.900750   17.614856   20.551695 H          1 MOL1         0.0736
      11    C5      18.593873   19.210825   21.238012 C.3        1 MOL1        -0.1866
      12    H5      17.693381   18.813262   20.749943 H          1 MOL1         0.0738
      13    H6      18.266941   19.647604   22.191829 H          1 MOL1         0.0738
      14    C6      19.207386   20.310842   20.345670 C.3        1 MOL1        -0.2879
      15    H7      19.530229   19.898988   19.380634 H          1 MOL1         0.0750
      16    H8      18.472375   21.101739   20.147807 H          1 MOL1         0.0750
      17    H9      20.077518   20.773668   20.829285 H          1 MOL1         0.0750
@<TRIPOS>BOND
    1     1     2    1
    2     1     3    2
    3     1     4    1
    4     4     5    1
    5     4     6    2
    6     6     7    1
    7     6     8    1
    8     8     9    1
    9     8    10    1
   10     8    11    1
   11    11    12    1
   12    11    13    1
   13    11    14    1
   14    14    15    1
   15    14    16    1
   16    14    17    1
@<TRIPOS>SUBSTRUCTURE
       1 MOL1            1 RESIDUE      1      MOL     
@<SCITEGIC>MOL_PROPERTY
VConf Rank
SciTegic.value.IntegerValue
603

@<SCITEGIC>MOL_PROPERTY
Conf_Id
SciTegic.value.IntegerValue
3

@<SCITEGIC>MOL_PROPERTY
Delta U+W
SciTegic.value.DoubleValue
0.531

@<SCITEGIC>MOL_PROPERTY
U+W
SciTegic.value.DoubleValue
-52.878

@<SCITEGIC>MOL_PROPERTY
Grad RMS
SciTegic.value.DoubleValue
0.000000

@<SCITEGIC>MOL_PROPERTY
U
SciTegic.value.DoubleValue
10.067

@<SCITEGIC>MOL_PROPERTY
W
SciTegic.value.DoubleValue
-62.945

@<SCITEGIC>MOL_PROPERTY
W(PB)
SciTegic.value.DoubleValue
-64.982

@<SCITEGIC>MOL_PROPERTY
W(SA)
SciTegic.value.DoubleValue
2.037

@<SCITEGIC>MOL_PROPERTY
Valence
SciTegic.value.DoubleValue
2.779

@<SCITEGIC>MOL_PROPERTY
Coulomb
SciTegic.value.DoubleValue
6.474

@<SCITEGIC>MOL_PROPERTY
VdW
SciTegic.value.DoubleValue
0.815

@<SCITEGIC>MOL_PROPERTY
VdW6
SciTegic.value.DoubleValue
-5.088

@<SCITEGIC>MOL_PROPERTY
VdW12
SciTegic.value.DoubleValue
5.902

@<SCITEGIC>MOL_PROPERTY
Bond
SciTegic.value.DoubleValue
0.078

@<SCITEGIC>MOL_PROPERTY
Angle
SciTegic.value.DoubleValue
2.651

@<SCITEGIC>MOL_PROPERTY
Pdih
SciTegic.value.DoubleValue
0.050

@<SCITEGIC>MOL_PROPERTY
Idih
SciTegic.value.DoubleValue
0.000

@<SCITEGIC>MOL_PROPERTY
Tether
SciTegic.value.DoubleValue
0.000

@<TRIPOS>MOLECULE
guest-s19_confgen4.mol2 : confsearch ligand conformer 604
          17          16           1
SMALL
USER_CHARGES
 
@<TRIPOS>ATOM
       1    C1      20.279847   17.839493   24.804010 C.2        1 MOL1         0.6173
       2    O1      19.903075   16.754430   25.202082 O.co2      1 MOL1        -0.6755
       3    O2      20.540728   18.763098   25.551903 O.co2      1 MOL1        -0.6755
       4    C2      20.423500   18.020396   23.334075 C.2        1 MOL1        -0.1504
       5    H1      20.174206   17.155599   22.723595 H          1 MOL1         0.0814
       6    C3      20.830075   19.172053   22.752725 C.2        1 MOL1        -0.1394
       7    H2      21.078297   20.044443   23.356744 H          1 MOL1         0.0817
       8    C4      20.972698   19.354008   21.255766 C.3        1 MOL1        -0.1849
       9    H3      21.006695   18.379663   20.749568 H          1 MOL1         0.0736
      10    H4      21.933595   19.841688   21.043975 H          1 MOL1         0.0736
      11    C5      19.834346   20.209734   20.658227 C.3        1 MOL1        -0.1866
      12    H5      19.797937   21.183617   21.165854 H          1 MOL1         0.0738
      13    H6      20.056535   20.414611   19.601886 H          1 MOL1         0.0738
      14    C6      18.457309   19.519299   20.757714 C.3        1 MOL1        -0.2879
      15    H7      18.170822   19.355855   21.804741 H          1 MOL1         0.0750
      16    H8      17.680703   20.137555   20.289197 H          1 MOL1         0.0750
      17    H9      18.468512   18.546180   20.249770 H          1 MOL1         0.0750
@<TRIPOS>BOND
    1     1     2    1
    2     1     3    2
    3     1     4    1
    4     4     5    1
    5     4     6    2
    6     6     7    1
    7     6     8    1
    8     8     9    1
    9     8    10    1
   10     8    11    1
   11    11    12    1
   12    11    13    1
   13    11    14    1
   14    14    15    1
   15    14    16    1
   16    14    17    1
@<TRIPOS>SUBSTRUCTURE
       1 MOL1            1 RESIDUE      1      MOL     
@<SCITEGIC>MOL_PROPERTY
VConf Rank
SciTegic.value.IntegerValue
604

@<SCITEGIC>MOL_PROPERTY
Conf_Id
SciTegic.value.IntegerValue
45

@<SCITEGIC>MOL_PROPERTY
Delta U+W
SciTegic.value.DoubleValue
0.562

@<SCITEGIC>MOL_PROPERTY
U+W
SciTegic.value.DoubleValue
-52.846

@<SCITEGIC>MOL_PROPERTY
Grad RMS
SciTegic.value.DoubleValue
0.000000

@<SCITEGIC>MOL_PROPERTY
U
SciTegic.value.DoubleValue
10.243

@<SCITEGIC>MOL_PROPERTY
W
SciTegic.value.DoubleValue
-63.089

@<SCITEGIC>MOL_PROPERTY
W(PB)
SciTegic.value.DoubleValue
-65.116

@<SCITEGIC>MOL_PROPERTY
W(SA)
SciTegic.value.DoubleValue
2.026

@<SCITEGIC>MOL_PROPERTY
Valence
SciTegic.value.DoubleValue
2.822

@<SCITEGIC>MOL_PROPERTY
Coulomb
SciTegic.value.DoubleValue
6.637

@<SCITEGIC>MOL_PROPERTY
VdW
SciTegic.value.DoubleValue
0.785

@<SCITEGIC>MOL_PROPERTY
VdW6
SciTegic.value.DoubleValue
-5.216

@<SCITEGIC>MOL_PROPERTY
VdW12
SciTegic.value.DoubleValue
6.001

@<SCITEGIC>MOL_PROPERTY
Bond
SciTegic.value.DoubleValue
0.080

@<SCITEGIC>MOL_PROPERTY
Angle
SciTegic.value.DoubleValue
2.678

@<SCITEGIC>MOL_PROPERTY
Pdih
SciTegic.value.DoubleValue
0.064

@<SCITEGIC>MOL_PROPERTY
Idih
SciTegic.value.DoubleValue
0.000

@<SCITEGIC>MOL_PROPERTY
Tether
SciTegic.value.DoubleValue
0.000

@<TRIPOS>MOLECULE
guest-s19_confgen4.mol2 : confsearch ligand conformer 605
          17          16           1
SMALL
USER_CHARGES
 
@<TRIPOS>ATOM
       1    C1      16.996322   17.608858   22.260355 C.2        1 MOL1         0.6173
       2    O1      16.200817   17.679467   23.176810 O.co2      1 MOL1        -0.6755
       3    O2      16.921511   16.768233   21.383915 O.co2      1 MOL1        -0.6755
       4    C2      18.100380   18.606000   22.229931 C.2        1 MOL1        -0.1504
       5    H1      18.109273   19.329162   23.042252 H          1 MOL1         0.0814
       6    C3      19.054853   18.644743   21.272556 C.2        1 MOL1        -0.1394
       7    H2      19.056791   17.923525   20.455479 H          1 MOL1         0.0817
       8    C4      20.175626   19.660914   21.250164 C.3        1 MOL1        -0.1849
       9    H3      19.800863   20.640655   21.576458 H          1 MOL1         0.0736
      10    H4      20.533895   19.790701   20.220025 H          1 MOL1         0.0736
      11    C5      21.347599   19.224836   22.153120 C.3        1 MOL1        -0.1866
      12    H5      20.991683   19.098600   23.185083 H          1 MOL1         0.0738
      13    H6      21.722019   18.245676   21.823539 H          1 MOL1         0.0738
      14    C6      22.498299   20.250900   22.128458 C.3        1 MOL1        -0.2879
      15    H7      22.894499   20.372709   21.111787 H          1 MOL1         0.0750
      16    H8      22.157246   21.232251   22.483521 H          1 MOL1         0.0750
      17    H9      23.322077   19.923804   22.776167 H          1 MOL1         0.0750
@<TRIPOS>BOND
    1     1     2    1
    2     1     3    2
    3     1     4    1
    4     4     5    1
    5     4     6    2
    6     6     7    1
    7     6     8    1
    8     8     9    1
    9     8    10    1
   10     8    11    1
   11    11    12    1
   12    11    13    1
   13    11    14    1
   14    14    15    1
   15    14    16    1
   16    14    17    1
@<TRIPOS>SUBSTRUCTURE
       1 MOL1            1 RESIDUE      1      MOL     
@<SCITEGIC>MOL_PROPERTY
VConf Rank
SciTegic.value.IntegerValue
605

@<SCITEGIC>MOL_PROPERTY
Conf_Id
SciTegic.value.IntegerValue
36

@<SCITEGIC>MOL_PROPERTY
Delta U+W
SciTegic.value.DoubleValue
0.000

@<SCITEGIC>MOL_PROPERTY
U+W
SciTegic.value.DoubleValue
-53.409

@<SCITEGIC>MOL_PROPERTY
Grad RMS
SciTegic.value.DoubleValue
0.000000

@<SCITEGIC>MOL_PROPERTY
U
SciTegic.value.DoubleValue
9.048

@<SCITEGIC>MOL_PROPERTY
W
SciTegic.value.DoubleValue
-62.457

@<SCITEGIC>MOL_PROPERTY
W(PB)
SciTegic.value.DoubleValue
-64.540

@<SCITEGIC>MOL_PROPERTY
W(SA)
SciTegic.value.DoubleValue
2.084

@<SCITEGIC>MOL_PROPERTY
Valence
SciTegic.value.DoubleValue
2.652

@<SCITEGIC>MOL_PROPERTY
Coulomb
SciTegic.value.DoubleValue
5.578

@<SCITEGIC>MOL_PROPERTY
VdW
SciTegic.value.DoubleValue
0.818

@<SCITEGIC>MOL_PROPERTY
VdW6
SciTegic.value.DoubleValue
-4.534

@<SCITEGIC>MOL_PROPERTY
VdW12
SciTegic.value.DoubleValue
5.352

@<SCITEGIC>MOL_PROPERTY
Bond
SciTegic.value.DoubleValue
0.063

@<SCITEGIC>MOL_PROPERTY
Angle
SciTegic.value.DoubleValue
2.579

@<SCITEGIC>MOL_PROPERTY
Pdih
SciTegic.value.DoubleValue
0.010

@<SCITEGIC>MOL_PROPERTY
Idih
SciTegic.value.DoubleValue
0.000

@<SCITEGIC>MOL_PROPERTY
Tether
SciTegic.value.DoubleValue
0.000

@<TRIPOS>MOLECULE
guest-s19_confgen4.mol2 : confsearch ligand conformer 606
          17          16           1
SMALL
USER_CHARGES
 
@<TRIPOS>ATOM
       1    C1      22.954388   18.548968   23.474365 C.2        1 MOL1         0.6173
       2    O1      23.735600   18.157022   22.627914 O.co2      1 MOL1        -0.6755
       3    O2      23.198581   18.513978   24.664680 O.co2      1 MOL1        -0.6755
       4    C2      21.636491   19.100905   23.058823 C.2        1 MOL1        -0.1504
       5    H1      20.985887   19.433456   23.864449 H          1 MOL1         0.0814
       6    C3      21.232271   19.198894   21.771931 C.2        1 MOL1        -0.1394
       7    H2      21.875262   18.866696   20.957081 H          1 MOL1         0.0817
       8    C4      19.889428   19.759797   21.357929 C.3        1 MOL1        -0.1849
       9    H3      19.952364   20.144771   20.331177 H          1 MOL1         0.0736
      10    H4      19.626288   20.614136   21.996419 H          1 MOL1         0.0736
      11    C5      18.783208   18.688118   21.440404 C.3        1 MOL1        -0.1866
      12    H5      19.047615   17.835660   20.799334 H          1 MOL1         0.0738
      13    H6      18.716137   18.304787   22.468080 H          1 MOL1         0.0738
      14    C6      17.412815   19.249563   21.011070 C.3        1 MOL1        -0.2879
      15    H7      17.443444   19.611272   19.974895 H          1 MOL1         0.0750
      16    H8      16.639246   18.473371   21.076234 H          1 MOL1         0.0750
      17    H9      17.110468   20.084339   21.656958 H          1 MOL1         0.0750
@<TRIPOS>BOND
    1     1     2    1
    2     1     3    2
    3     1     4    1
    4     4     5    1
    5     4     6    2
    6     6     7    1
    7     6     8    1
    8     8     9    1
    9     8    10    1
   10     8    11    1
   11    11    12    1
   12    11    13    1
   13    11    14    1
   14    14    15    1
   15    14    16    1
   16    14    17    1
@<TRIPOS>SUBSTRUCTURE
       1 MOL1            1 RESIDUE      1      MOL     
@<SCITEGIC>MOL_PROPERTY
VConf Rank
SciTegic.value.IntegerValue
606

@<SCITEGIC>MOL_PROPERTY
Conf_Id
SciTegic.value.IntegerValue
1

@<SCITEGIC>MOL_PROPERTY
Delta U+W
SciTegic.value.DoubleValue
0.030

@<SCITEGIC>MOL_PROPERTY
U+W
SciTegic.value.DoubleValue
-53.378

@<SCITEGIC>MOL_PROPERTY
Grad RMS
SciTegic.value.DoubleValue
0.000000

@<SCITEGIC>MOL_PROPERTY
U
SciTegic.value.DoubleValue
9.048

@<SCITEGIC>MOL_PROPERTY
W
SciTegic.value.DoubleValue
-62.426

@<SCITEGIC>MOL_PROPERTY
W(PB)
SciTegic.value.DoubleValue
-64.506

@<SCITEGIC>MOL_PROPERTY
W(SA)
SciTegic.value.DoubleValue
2.080

@<SCITEGIC>MOL_PROPERTY
Valence
SciTegic.value.DoubleValue
2.652

@<SCITEGIC>MOL_PROPERTY
Coulomb
SciTegic.value.DoubleValue
5.578

@<SCITEGIC>MOL_PROPERTY
VdW
SciTegic.value.DoubleValue
0.818

@<SCITEGIC>MOL_PROPERTY
VdW6
SciTegic.value.DoubleValue
-4.535

@<SCITEGIC>MOL_PROPERTY
VdW12
SciTegic.value.DoubleValue
5.352

@<SCITEGIC>MOL_PROPERTY
Bond
SciTegic.value.DoubleValue
0.063

@<SCITEGIC>MOL_PROPERTY
Angle
SciTegic.value.DoubleValue
2.579

@<SCITEGIC>MOL_PROPERTY
Pdih
SciTegic.value.DoubleValue
0.010

@<SCITEGIC>MOL_PROPERTY
Idih
SciTegic.value.DoubleValue
0.000

@<SCITEGIC>MOL_PROPERTY
Tether
SciTegic.value.DoubleValue
0.000

@<TRIPOS>MOLECULE
guest-s19_confgen4.mol2 : confsearch ligand conformer 607
          17          16           1
SMALL
USER_CHARGES
 
@<TRIPOS>ATOM
       1    C1      20.405941   16.041307   21.791513 C.2        1 MOL1         0.6173
       2    O1      19.642428   15.648900   22.653781 O.co2      1 MOL1        -0.6755
       3    O2      20.858157   15.313154   20.929478 O.co2      1 MOL1        -0.6755
       4    C2      20.821873   17.469845   21.772272 C.2        1 MOL1        -0.1504
       5    H1      21.506123   17.754368   20.976276 H          1 MOL1         0.0814
       6    C3      20.396992   18.390602   22.667073 C.2        1 MOL1        -0.1394
       7    H2      19.708774   18.117142   23.466557 H          1 MOL1         0.0817
       8    C4      20.821652   19.843833   22.638857 C.3        1 MOL1        -0.1849
       9    H3      21.891031   19.910418   22.396943 H          1 MOL1         0.0736
      10    H4      20.705630   20.285682   23.637657 H          1 MOL1         0.0736
      11    C5      20.017813   20.671111   21.611717 C.3        1 MOL1        -0.1866
      12    H5      20.437676   21.685095   21.559725 H          1 MOL1         0.0738
      13    H6      20.132972   20.232093   20.611003 H          1 MOL1         0.0738
      14    C6      18.519107   20.763414   21.969593 C.3        1 MOL1        -0.2879
      15    H7      18.379213   21.211505   22.961959 H          1 MOL1         0.0750
      16    H8      17.985457   21.384802   21.238839 H          1 MOL1         0.0750
      17    H9      18.050718   19.770527   21.972587 H          1 MOL1         0.0750
@<TRIPOS>BOND
    1     1     2    1
    2     1     3    2
    3     1     4    1
    4     4     5    1
    5     4     6    2
    6     6     7    1
    7     6     8    1
    8     8     9    1
    9     8    10    1
   10     8    11    1
   11    11    12    1
   12    11    13    1
   13    11    14    1
   14    14    15    1
   15    14    16    1
   16    14    17    1
@<TRIPOS>SUBSTRUCTURE
       1 MOL1            1 RESIDUE      1      MOL     
@<SCITEGIC>MOL_PROPERTY
VConf Rank
SciTegic.value.IntegerValue
607

@<SCITEGIC>MOL_PROPERTY
Conf_Id
SciTegic.value.IntegerValue
3

@<SCITEGIC>MOL_PROPERTY
Delta U+W
SciTegic.value.DoubleValue
0.531

@<SCITEGIC>MOL_PROPERTY
U+W
SciTegic.value.DoubleValue
-52.878

@<SCITEGIC>MOL_PROPERTY
Grad RMS
SciTegic.value.DoubleValue
0.000000

@<SCITEGIC>MOL_PROPERTY
U
SciTegic.value.DoubleValue
10.067

@<SCITEGIC>MOL_PROPERTY
W
SciTegic.value.DoubleValue
-62.945

@<SCITEGIC>MOL_PROPERTY
W(PB)
SciTegic.value.DoubleValue
-64.982

@<SCITEGIC>MOL_PROPERTY
W(SA)
SciTegic.value.DoubleValue
2.037

@<SCITEGIC>MOL_PROPERTY
Valence
SciTegic.value.DoubleValue
2.779

@<SCITEGIC>MOL_PROPERTY
Coulomb
SciTegic.value.DoubleValue
6.474

@<SCITEGIC>MOL_PROPERTY
VdW
SciTegic.value.DoubleValue
0.815

@<SCITEGIC>MOL_PROPERTY
VdW6
SciTegic.value.DoubleValue
-5.088

@<SCITEGIC>MOL_PROPERTY
VdW12
SciTegic.value.DoubleValue
5.902

@<SCITEGIC>MOL_PROPERTY
Bond
SciTegic.value.DoubleValue
0.078

@<SCITEGIC>MOL_PROPERTY
Angle
SciTegic.value.DoubleValue
2.651

@<SCITEGIC>MOL_PROPERTY
Pdih
SciTegic.value.DoubleValue
0.050

@<SCITEGIC>MOL_PROPERTY
Idih
SciTegic.value.DoubleValue
0.000

@<SCITEGIC>MOL_PROPERTY
Tether
SciTegic.value.DoubleValue
0.000

@<TRIPOS>MOLECULE
guest-s19_confgen4.mol2 : confsearch ligand conformer 608
          17          16           1
SMALL
USER_CHARGES
 
@<TRIPOS>ATOM
       1    C1      20.120710   21.255917   19.967663 C.2        1 MOL1         0.6173
       2    O1      21.003710   22.060151   19.741171 O.co2      1 MOL1        -0.6755
       3    O2      18.972033   21.415238   19.599417 O.co2      1 MOL1        -0.6755
       4    C2      20.486106   20.029704   20.727242 C.2        1 MOL1        -0.1504
       5    H1      21.528841   19.950305   21.025747 H          1 MOL1         0.0814
       6    C3      19.607081   19.054044   21.051258 C.2        1 MOL1        -0.1394
       7    H2      18.559753   19.127387   20.759293 H          1 MOL1         0.0817
       8    C4      19.981532   17.808141   21.827045 C.3        1 MOL1        -0.1849
       9    H3      21.069713   17.658242   21.815561 H          1 MOL1         0.0736
      10    H4      19.547370   16.931379   21.328244 H          1 MOL1         0.0736
      11    C5      19.479387   17.853578   23.286824 C.3        1 MOL1        -0.1866
      12    H5      18.391258   18.006150   23.299268 H          1 MOL1         0.0738
      13    H6      19.665105   16.879632   23.760256 H          1 MOL1         0.0738
      14    C6      20.168987   18.956436   24.118080 C.3        1 MOL1        -0.2879
      15    H7      19.952294   19.952839   23.711536 H          1 MOL1         0.0750
      16    H8      19.816901   18.933512   25.157492 H          1 MOL1         0.0750
      17    H9      21.258098   18.819066   24.125734 H          1 MOL1         0.0750
@<TRIPOS>BOND
    1     1     2    1
    2     1     3    2
    3     1     4    1
    4     4     5    1
    5     4     6    2
    6     6     7    1
    7     6     8    1
    8     8     9    1
    9     8    10    1
   10     8    11    1
   11    11    12    1
   12    11    13    1
   13    11    14    1
   14    14    15    1
   15    14    16    1
   16    14    17    1
@<TRIPOS>SUBSTRUCTURE
       1 MOL1            1 RESIDUE      1      MOL     
@<SCITEGIC>MOL_PROPERTY
VConf Rank
SciTegic.value.IntegerValue
608

@<SCITEGIC>MOL_PROPERTY
Conf_Id
SciTegic.value.IntegerValue
45

@<SCITEGIC>MOL_PROPERTY
Delta U+W
SciTegic.value.DoubleValue
0.562

@<SCITEGIC>MOL_PROPERTY
U+W
SciTegic.value.DoubleValue
-52.846

@<SCITEGIC>MOL_PROPERTY
Grad RMS
SciTegic.value.DoubleValue
0.000000

@<SCITEGIC>MOL_PROPERTY
U
SciTegic.value.DoubleValue
10.243

@<SCITEGIC>MOL_PROPERTY
W
SciTegic.value.DoubleValue
-63.089

@<SCITEGIC>MOL_PROPERTY
W(PB)
SciTegic.value.DoubleValue
-65.116

@<SCITEGIC>MOL_PROPERTY
W(SA)
SciTegic.value.DoubleValue
2.026

@<SCITEGIC>MOL_PROPERTY
Valence
SciTegic.value.DoubleValue
2.822

@<SCITEGIC>MOL_PROPERTY
Coulomb
SciTegic.value.DoubleValue
6.637

@<SCITEGIC>MOL_PROPERTY
VdW
SciTegic.value.DoubleValue
0.785

@<SCITEGIC>MOL_PROPERTY
VdW6
SciTegic.value.DoubleValue
-5.216

@<SCITEGIC>MOL_PROPERTY
VdW12
SciTegic.value.DoubleValue
6.001

@<SCITEGIC>MOL_PROPERTY
Bond
SciTegic.value.DoubleValue
0.080

@<SCITEGIC>MOL_PROPERTY
Angle
SciTegic.value.DoubleValue
2.678

@<SCITEGIC>MOL_PROPERTY
Pdih
SciTegic.value.DoubleValue
0.064

@<SCITEGIC>MOL_PROPERTY
Idih
SciTegic.value.DoubleValue
0.000

@<SCITEGIC>MOL_PROPERTY
Tether
SciTegic.value.DoubleValue
0.000

@<TRIPOS>MOLECULE
guest-s19_confgen4.mol2 : confsearch ligand conformer 609
          17          16           1
SMALL
USER_CHARGES
 
@<TRIPOS>ATOM
       1    C1      17.439195   19.698878   24.038942 C.2        1 MOL1         0.6173
       2    O1      16.264002   19.408810   23.927204 O.co2      1 MOL1        -0.6755
       3    O2      17.850958   20.474894   24.880753 O.co2      1 MOL1        -0.6755
       4    C2      18.397101   19.063132   23.094271 C.2        1 MOL1        -0.1504
       5    H1      17.963940   18.379995   22.367220 H          1 MOL1         0.0814
       6    C3      19.729638   19.294127   23.102779 C.2        1 MOL1        -0.1394
       7    H2      20.173845   19.978494   23.825340 H          1 MOL1         0.0817
       8    C4      20.696743   18.645059   22.137039 C.3        1 MOL1        -0.1849
       9    H3      20.404413   17.601493   21.957257 H          1 MOL1         0.0736
      10    H4      21.699431   18.616013   22.584433 H          1 MOL1         0.0736
      11    C5      20.750996   19.408512   20.797931 C.3        1 MOL1        -0.1866
      12    H5      19.749278   19.434854   20.346901 H          1 MOL1         0.0738
      13    H6      21.045562   20.451396   20.980120 H          1 MOL1         0.0738
      14    C6      21.741736   18.758604   19.811229 C.3        1 MOL1        -0.2879
      15    H7      22.758656   18.748266   20.224989 H          1 MOL1         0.0750
      16    H8      21.451745   17.723472   19.587973 H          1 MOL1         0.0750
      17    H9      21.766512   19.315039   18.865239 H          1 MOL1         0.0750
@<TRIPOS>BOND
    1     1     2    1
    2     1     3    2
    3     1     4    1
    4     4     5    1
    5     4     6    2
    6     6     7    1
    7     6     8    1
    8     8     9    1
    9     8    10    1
   10     8    11    1
   11    11    12    1
   12    11    13    1
   13    11    14    1
   14    14    15    1
   15    14    16    1
   16    14    17    1
@<TRIPOS>SUBSTRUCTURE
       1 MOL1            1 RESIDUE      1      MOL     
@<SCITEGIC>MOL_PROPERTY
VConf Rank
SciTegic.value.IntegerValue
609

@<SCITEGIC>MOL_PROPERTY
Conf_Id
SciTegic.value.IntegerValue
36

@<SCITEGIC>MOL_PROPERTY
Delta U+W
SciTegic.value.DoubleValue
0.000

@<SCITEGIC>MOL_PROPERTY
U+W
SciTegic.value.DoubleValue
-53.409

@<SCITEGIC>MOL_PROPERTY
Grad RMS
SciTegic.value.DoubleValue
0.000000

@<SCITEGIC>MOL_PROPERTY
U
SciTegic.value.DoubleValue
9.048

@<SCITEGIC>MOL_PROPERTY
W
SciTegic.value.DoubleValue
-62.457

@<SCITEGIC>MOL_PROPERTY
W(PB)
SciTegic.value.DoubleValue
-64.540

@<SCITEGIC>MOL_PROPERTY
W(SA)
SciTegic.value.DoubleValue
2.084

@<SCITEGIC>MOL_PROPERTY
Valence
SciTegic.value.DoubleValue
2.652

@<SCITEGIC>MOL_PROPERTY
Coulomb
SciTegic.value.DoubleValue
5.578

@<SCITEGIC>MOL_PROPERTY
VdW
SciTegic.value.DoubleValue
0.818

@<SCITEGIC>MOL_PROPERTY
VdW6
SciTegic.value.DoubleValue
-4.534

@<SCITEGIC>MOL_PROPERTY
VdW12
SciTegic.value.DoubleValue
5.352

@<SCITEGIC>MOL_PROPERTY
Bond
SciTegic.value.DoubleValue
0.063

@<SCITEGIC>MOL_PROPERTY
Angle
SciTegic.value.DoubleValue
2.579

@<SCITEGIC>MOL_PROPERTY
Pdih
SciTegic.value.DoubleValue
0.010

@<SCITEGIC>MOL_PROPERTY
Idih
SciTegic.value.DoubleValue
0.000

@<SCITEGIC>MOL_PROPERTY
Tether
SciTegic.value.DoubleValue
0.000

@<TRIPOS>MOLECULE
guest-s19_confgen4.mol2 : confsearch ligand conformer 610
          17          16           1
SMALL
USER_CHARGES
 
@<TRIPOS>ATOM
       1    C1      17.986786   18.000604   19.449157 C.2        1 MOL1         0.6173
       2    O1      16.895324   18.502556   19.641895 O.co2      1 MOL1        -0.6755
       3    O2      18.172417   17.116827   18.635410 O.co2      1 MOL1        -0.6755
       4    C2      19.161478   18.473497   20.230587 C.2        1 MOL1        -0.1504
       5    H1      20.106963   17.983489   20.009546 H          1 MOL1         0.0814
       6    C3      19.101087   19.446887   21.167578 C.2        1 MOL1        -0.1394
       7    H2      18.158556   19.942954   21.398505 H          1 MOL1         0.0817
       8    C4      20.300273   19.920692   21.959223 C.3        1 MOL1        -0.1849
       9    H3      20.131290   20.950475   22.301829 H          1 MOL1         0.0736
      10    H4      21.189157   19.947817   21.314277 H          1 MOL1         0.0736
      11    C5      20.566789   19.009516   23.174849 C.3        1 MOL1        -0.1866
      12    H5      19.677150   18.985726   23.819475 H          1 MOL1         0.0738
      13    H6      20.740139   17.979480   22.833475 H          1 MOL1         0.0738
      14    C6      21.782179   19.491174   23.992380 C.3        1 MOL1        -0.2879
      15    H7      21.621603   20.508410   24.373007 H          1 MOL1         0.0750
      16    H8      21.955989   18.831202   24.852240 H          1 MOL1         0.0750
      17    H9      22.692313   19.494428   23.378311 H          1 MOL1         0.0750
@<TRIPOS>BOND
    1     1     2    1
    2     1     3    2
    3     1     4    1
    4     4     5    1
    5     4     6    2
    6     6     7    1
    7     6     8    1
    8     8     9    1
    9     8    10    1
   10     8    11    1
   11    11    12    1
   12    11    13    1
   13    11    14    1
   14    14    15    1
   15    14    16    1
   16    14    17    1
@<TRIPOS>SUBSTRUCTURE
       1 MOL1            1 RESIDUE      1      MOL     
@<SCITEGIC>MOL_PROPERTY
VConf Rank
SciTegic.value.IntegerValue
610

@<SCITEGIC>MOL_PROPERTY
Conf_Id
SciTegic.value.IntegerValue
1

@<SCITEGIC>MOL_PROPERTY
Delta U+W
SciTegic.value.DoubleValue
0.030

@<SCITEGIC>MOL_PROPERTY
U+W
SciTegic.value.DoubleValue
-53.378

@<SCITEGIC>MOL_PROPERTY
Grad RMS
SciTegic.value.DoubleValue
0.000000

@<SCITEGIC>MOL_PROPERTY
U
SciTegic.value.DoubleValue
9.048

@<SCITEGIC>MOL_PROPERTY
W
SciTegic.value.DoubleValue
-62.426

@<SCITEGIC>MOL_PROPERTY
W(PB)
SciTegic.value.DoubleValue
-64.506

@<SCITEGIC>MOL_PROPERTY
W(SA)
SciTegic.value.DoubleValue
2.080

@<SCITEGIC>MOL_PROPERTY
Valence
SciTegic.value.DoubleValue
2.652

@<SCITEGIC>MOL_PROPERTY
Coulomb
SciTegic.value.DoubleValue
5.578

@<SCITEGIC>MOL_PROPERTY
VdW
SciTegic.value.DoubleValue
0.818

@<SCITEGIC>MOL_PROPERTY
VdW6
SciTegic.value.DoubleValue
-4.535

@<SCITEGIC>MOL_PROPERTY
VdW12
SciTegic.value.DoubleValue
5.352

@<SCITEGIC>MOL_PROPERTY
Bond
SciTegic.value.DoubleValue
0.063

@<SCITEGIC>MOL_PROPERTY
Angle
SciTegic.value.DoubleValue
2.579

@<SCITEGIC>MOL_PROPERTY
Pdih
SciTegic.value.DoubleValue
0.010

@<SCITEGIC>MOL_PROPERTY
Idih
SciTegic.value.DoubleValue
0.000

@<SCITEGIC>MOL_PROPERTY
Tether
SciTegic.value.DoubleValue
0.000

@<TRIPOS>MOLECULE
guest-s19_confgen4.mol2 : confsearch ligand conformer 611
          17          16           1
SMALL
USER_CHARGES
 
@<TRIPOS>ATOM
       1    C1      19.005116   21.743816   23.243276 C.2        1 MOL1         0.6173
       2    O1      19.035218   22.453227   22.255212 O.co2      1 MOL1        -0.6755
       3    O2      18.400109   22.045120   24.253718 O.co2      1 MOL1        -0.6755
       4    C2      19.735752   20.447570   23.240393 C.2        1 MOL1        -0.1504
       5    H1      19.668678   19.862796   24.154888 H          1 MOL1         0.0814
       6    C3      20.447621   19.986050   22.187194 C.2        1 MOL1        -0.1394
       7    H2      20.518680   20.562221   21.264928 H          1 MOL1         0.0817
       8    C4      21.185563   18.663762   22.190220 C.3        1 MOL1        -0.1849
       9    H3      21.673458   18.516495   23.163256 H          1 MOL1         0.0736
      10    H4      21.991069   18.684561   21.443882 H          1 MOL1         0.0736
      11    C5      20.249918   17.467987   21.906934 C.3        1 MOL1        -0.1866
      12    H5      20.815371   16.533478   22.025721 H          1 MOL1         0.0738
      13    H6      19.443495   17.443801   22.652941 H          1 MOL1         0.0738
      14    C6      19.644178   17.514199   20.487901 C.3        1 MOL1        -0.2879
      15    H7      20.432925   17.526275   19.724437 H          1 MOL1         0.0750
      16    H8      19.012777   16.634286   20.309032 H          1 MOL1         0.0750
      17    H9      19.021629   18.408155   20.351901 H          1 MOL1         0.0750
@<TRIPOS>BOND
    1     1     2    1
    2     1     3    2
    3     1     4    1
    4     4     5    1
    5     4     6    2
    6     6     7    1
    7     6     8    1
    8     8     9    1
    9     8    10    1
   10     8    11    1
   11    11    12    1
   12    11    13    1
   13    11    14    1
   14    14    15    1
   15    14    16    1
   16    14    17    1
@<TRIPOS>SUBSTRUCTURE
       1 MOL1            1 RESIDUE      1      MOL     
@<SCITEGIC>MOL_PROPERTY
VConf Rank
SciTegic.value.IntegerValue
611

@<SCITEGIC>MOL_PROPERTY
Conf_Id
SciTegic.value.IntegerValue
3

@<SCITEGIC>MOL_PROPERTY
Delta U+W
SciTegic.value.DoubleValue
0.531

@<SCITEGIC>MOL_PROPERTY
U+W
SciTegic.value.DoubleValue
-52.878

@<SCITEGIC>MOL_PROPERTY
Grad RMS
SciTegic.value.DoubleValue
0.000000

@<SCITEGIC>MOL_PROPERTY
U
SciTegic.value.DoubleValue
10.067

@<SCITEGIC>MOL_PROPERTY
W
SciTegic.value.DoubleValue
-62.945

@<SCITEGIC>MOL_PROPERTY
W(PB)
SciTegic.value.DoubleValue
-64.982

@<SCITEGIC>MOL_PROPERTY
W(SA)
SciTegic.value.DoubleValue
2.037

@<SCITEGIC>MOL_PROPERTY
Valence
SciTegic.value.DoubleValue
2.779

@<SCITEGIC>MOL_PROPERTY
Coulomb
SciTegic.value.DoubleValue
6.474

@<SCITEGIC>MOL_PROPERTY
VdW
SciTegic.value.DoubleValue
0.815

@<SCITEGIC>MOL_PROPERTY
VdW6
SciTegic.value.DoubleValue
-5.088

@<SCITEGIC>MOL_PROPERTY
VdW12
SciTegic.value.DoubleValue
5.902

@<SCITEGIC>MOL_PROPERTY
Bond
SciTegic.value.DoubleValue
0.078

@<SCITEGIC>MOL_PROPERTY
Angle
SciTegic.value.DoubleValue
2.651

@<SCITEGIC>MOL_PROPERTY
Pdih
SciTegic.value.DoubleValue
0.050

@<SCITEGIC>MOL_PROPERTY
Idih
SciTegic.value.DoubleValue
0.000

@<SCITEGIC>MOL_PROPERTY
Tether
SciTegic.value.DoubleValue
0.000

@<TRIPOS>MOLECULE
guest-s19_confgen4.mol2 : confsearch ligand conformer 612
          17          16           1
SMALL
USER_CHARGES
 
@<TRIPOS>ATOM
       1    C1      19.188268   16.933431   24.027029 C.2        1 MOL1         0.6173
       2    O1      18.491186   17.002155   25.020575 O.co2      1 MOL1        -0.6755
       3    O2      19.987485   16.034849   23.841962 O.co2      1 MOL1        -0.6755
       4    C2      19.036922   18.004945   23.005744 C.2        1 MOL1        -0.1504
       5    H1      18.305640   18.776945   23.233668 H          1 MOL1         0.0814
       6    C3      19.747671   18.055980   21.856041 C.2        1 MOL1        -0.1394
       7    H2      20.484982   17.288578   21.621554 H          1 MOL1         0.0817
       8    C4      19.593306   19.149657   20.819518 C.3        1 MOL1        -0.1849
       9    H3      18.650446   19.693232   20.968787 H          1 MOL1         0.0736
      10    H4      19.527600   18.692455   19.823195 H          1 MOL1         0.0736
      11    C5      20.774288   20.144715   20.837008 C.3        1 MOL1        -0.1866
      12    H5      21.718120   19.601442   20.690392 H          1 MOL1         0.0738
      13    H6      20.674241   20.834726   19.987848 H          1 MOL1         0.0738
      14    C6      20.842420   20.962712   22.144322 C.3        1 MOL1        -0.2879
      15    H7      21.007189   20.310348   23.011690 H          1 MOL1         0.0750
      16    H8      21.668017   21.685017   22.105192 H          1 MOL1         0.0750
      17    H9      19.911097   21.520534   22.307305 H          1 MOL1         0.0750
@<TRIPOS>BOND
    1     1     2    1
    2     1     3    2
    3     1     4    1
    4     4     5    1
    5     4     6    2
    6     6     7    1
    7     6     8    1
    8     8     9    1
    9     8    10    1
   10     8    11    1
   11    11    12    1
   12    11    13    1
   13    11    14    1
   14    14    15    1
   15    14    16    1
   16    14    17    1
@<TRIPOS>SUBSTRUCTURE
       1 MOL1            1 RESIDUE      1      MOL     
@<SCITEGIC>MOL_PROPERTY
VConf Rank
SciTegic.value.IntegerValue
612

@<SCITEGIC>MOL_PROPERTY
Conf_Id
SciTegic.value.IntegerValue
45

@<SCITEGIC>MOL_PROPERTY
Delta U+W
SciTegic.value.DoubleValue
0.562

@<SCITEGIC>MOL_PROPERTY
U+W
SciTegic.value.DoubleValue
-52.846

@<SCITEGIC>MOL_PROPERTY
Grad RMS
SciTegic.value.DoubleValue
0.000000

@<SCITEGIC>MOL_PROPERTY
U
SciTegic.value.DoubleValue
10.243

@<SCITEGIC>MOL_PROPERTY
W
SciTegic.value.DoubleValue
-63.089

@<SCITEGIC>MOL_PROPERTY
W(PB)
SciTegic.value.DoubleValue
-65.116

@<SCITEGIC>MOL_PROPERTY
W(SA)
SciTegic.value.DoubleValue
2.026

@<SCITEGIC>MOL_PROPERTY
Valence
SciTegic.value.DoubleValue
2.822

@<SCITEGIC>MOL_PROPERTY
Coulomb
SciTegic.value.DoubleValue
6.637

@<SCITEGIC>MOL_PROPERTY
VdW
SciTegic.value.DoubleValue
0.785

@<SCITEGIC>MOL_PROPERTY
VdW6
SciTegic.value.DoubleValue
-5.216

@<SCITEGIC>MOL_PROPERTY
VdW12
SciTegic.value.DoubleValue
6.001

@<SCITEGIC>MOL_PROPERTY
Bond
SciTegic.value.DoubleValue
0.080

@<SCITEGIC>MOL_PROPERTY
Angle
SciTegic.value.DoubleValue
2.678

@<SCITEGIC>MOL_PROPERTY
Pdih
SciTegic.value.DoubleValue
0.064

@<SCITEGIC>MOL_PROPERTY
Idih
SciTegic.value.DoubleValue
0.000

@<SCITEGIC>MOL_PROPERTY
Tether
SciTegic.value.DoubleValue
0.000

@<TRIPOS>MOLECULE
guest-s19_confgen4.mol2 : confsearch ligand conformer 613
          17          16           1
SMALL
USER_CHARGES
 
@<TRIPOS>ATOM
       1    C1      20.060824   18.144813   25.142575 C.2        1 MOL1         0.6173
       2    O1      20.456575   17.100877   25.623492 O.co2      1 MOL1        -0.6755
       3    O2      19.395177   18.949404   25.767029 O.co2      1 MOL1        -0.6755
       4    C2      20.420188   18.429487   23.726955 C.2        1 MOL1        -0.1504
       5    H1      21.016329   17.669740   23.226646 H          1 MOL1         0.0814
       6    C3      20.047685   19.548576   23.065166 C.2        1 MOL1        -0.1394
       7    H2      19.448367   20.315103   23.556112 H          1 MOL1         0.0817
       8    C4      20.415570   19.829421   21.624671 C.3        1 MOL1        -0.1849
       9    H3      21.440452   19.487821   21.425329 H          1 MOL1         0.0736
      10    H4      20.407524   20.913385   21.447630 H          1 MOL1         0.0736
      11    C5      19.438394   19.140088   20.650526 C.3        1 MOL1        -0.1866
      12    H5      19.448377   18.054946   20.823525 H          1 MOL1         0.0738
      13    H6      18.414335   19.484877   20.850505 H          1 MOL1         0.0738
      14    C6      19.800992   19.429220   19.179998 C.3        1 MOL1        -0.2879
      15    H7      19.767433   20.506638   18.971491 H          1 MOL1         0.0750
      16    H8      20.810106   19.065748   18.945448 H          1 MOL1         0.0750
      17    H9      19.095422   18.930894   18.502523 H          1 MOL1         0.0750
@<TRIPOS>BOND
    1     1     2    1
    2     1     3    2
    3     1     4    1
    4     4     5    1
    5     4     6    2
    6     6     7    1
    7     6     8    1
    8     8     9    1
    9     8    10    1
   10     8    11    1
   11    11    12    1
   12    11    13    1
   13    11    14    1
   14    14    15    1
   15    14    16    1
   16    14    17    1
@<TRIPOS>SUBSTRUCTURE
       1 MOL1            1 RESIDUE      1      MOL     
@<SCITEGIC>MOL_PROPERTY
VConf Rank
SciTegic.value.IntegerValue
613

@<SCITEGIC>MOL_PROPERTY
Conf_Id
SciTegic.value.IntegerValue
36

@<SCITEGIC>MOL_PROPERTY
Delta U+W
SciTegic.value.DoubleValue
0.000

@<SCITEGIC>MOL_PROPERTY
U+W
SciTegic.value.DoubleValue
-53.409

@<SCITEGIC>MOL_PROPERTY
Grad RMS
SciTegic.value.DoubleValue
0.000000

@<SCITEGIC>MOL_PROPERTY
U
SciTegic.value.DoubleValue
9.048

@<SCITEGIC>MOL_PROPERTY
W
SciTegic.value.DoubleValue
-62.457

@<SCITEGIC>MOL_PROPERTY
W(PB)
SciTegic.value.DoubleValue
-64.540

@<SCITEGIC>MOL_PROPERTY
W(SA)
SciTegic.value.DoubleValue
2.084

@<SCITEGIC>MOL_PROPERTY
Valence
SciTegic.value.DoubleValue
2.652

@<SCITEGIC>MOL_PROPERTY
Coulomb
SciTegic.value.DoubleValue
5.578

@<SCITEGIC>MOL_PROPERTY
VdW
SciTegic.value.DoubleValue
0.818

@<SCITEGIC>MOL_PROPERTY
VdW6
SciTegic.value.DoubleValue
-4.534

@<SCITEGIC>MOL_PROPERTY
VdW12
SciTegic.value.DoubleValue
5.352

@<SCITEGIC>MOL_PROPERTY
Bond
SciTegic.value.DoubleValue
0.063

@<SCITEGIC>MOL_PROPERTY
Angle
SciTegic.value.DoubleValue
2.579

@<SCITEGIC>MOL_PROPERTY
Pdih
SciTegic.value.DoubleValue
0.010

@<SCITEGIC>MOL_PROPERTY
Idih
SciTegic.value.DoubleValue
0.000

@<SCITEGIC>MOL_PROPERTY
Tether
SciTegic.value.DoubleValue
0.000

@<TRIPOS>MOLECULE
guest-s19_confgen4.mol2 : confsearch ligand conformer 614
          17          16           1
SMALL
USER_CHARGES
 
@<TRIPOS>ATOM
       1    C1      20.382728   21.710452   19.817914 C.2        1 MOL1         0.6173
       2    O1      20.478790   21.252096   18.694938 O.co2      1 MOL1        -0.6755
       3    O2      20.606611   22.877054   20.076023 O.co2      1 MOL1        -0.6755
       4    C2      19.973457   20.824132   20.940900 C.2        1 MOL1        -0.1504
       5    H1      19.906799   21.296519   21.918302 H          1 MOL1         0.0814
       6    C3      19.694941   19.508252   20.799564 C.2        1 MOL1        -0.1394
       7    H2      19.760676   19.024343   19.825252 H          1 MOL1         0.0817
       8    C4      19.281161   18.613405   21.947290 C.3        1 MOL1        -0.1849
       9    H3      18.701635   17.764084   21.561037 H          1 MOL1         0.0736
      10    H4      18.616522   19.160776   22.629526 H          1 MOL1         0.0736
      11    C5      20.507703   18.091120   22.723067 C.3        1 MOL1        -0.1866
      12    H5      21.169828   17.542195   22.039081 H          1 MOL1         0.0738
      13    H6      21.086457   18.939642   23.113727 H          1 MOL1         0.0738
      14    C6      20.094751   17.170631   23.889127 C.3        1 MOL1        -0.2879
      15    H7      19.540995   16.296338   23.522525 H          1 MOL1         0.0750
      16    H8      20.979844   16.809239   24.428698 H          1 MOL1         0.0750
      17    H9      19.456591   17.705456   24.604773 H          1 MOL1         0.0750
@<TRIPOS>BOND
    1     1     2    1
    2     1     3    2
    3     1     4    1
    4     4     5    1
    5     4     6    2
    6     6     7    1
    7     6     8    1
    8     8     9    1
    9     8    10    1
   10     8    11    1
   11    11    12    1
   12    11    13    1
   13    11    14    1
   14    14    15    1
   15    14    16    1
   16    14    17    1
@<TRIPOS>SUBSTRUCTURE
       1 MOL1            1 RESIDUE      1      MOL     
@<SCITEGIC>MOL_PROPERTY
VConf Rank
SciTegic.value.IntegerValue
614

@<SCITEGIC>MOL_PROPERTY
Conf_Id
SciTegic.value.IntegerValue
1

@<SCITEGIC>MOL_PROPERTY
Delta U+W
SciTegic.value.DoubleValue
0.030

@<SCITEGIC>MOL_PROPERTY
U+W
SciTegic.value.DoubleValue
-53.378

@<SCITEGIC>MOL_PROPERTY
Grad RMS
SciTegic.value.DoubleValue
0.000000

@<SCITEGIC>MOL_PROPERTY
U
SciTegic.value.DoubleValue
9.048

@<SCITEGIC>MOL_PROPERTY
W
SciTegic.value.DoubleValue
-62.426

@<SCITEGIC>MOL_PROPERTY
W(PB)
SciTegic.value.DoubleValue
-64.506

@<SCITEGIC>MOL_PROPERTY
W(SA)
SciTegic.value.DoubleValue
2.080

@<SCITEGIC>MOL_PROPERTY
Valence
SciTegic.value.DoubleValue
2.652

@<SCITEGIC>MOL_PROPERTY
Coulomb
SciTegic.value.DoubleValue
5.578

@<SCITEGIC>MOL_PROPERTY
VdW
SciTegic.value.DoubleValue
0.818

@<SCITEGIC>MOL_PROPERTY
VdW6
SciTegic.value.DoubleValue
-4.535

@<SCITEGIC>MOL_PROPERTY
VdW12
SciTegic.value.DoubleValue
5.352

@<SCITEGIC>MOL_PROPERTY
Bond
SciTegic.value.DoubleValue
0.063

@<SCITEGIC>MOL_PROPERTY
Angle
SciTegic.value.DoubleValue
2.579

@<SCITEGIC>MOL_PROPERTY
Pdih
SciTegic.value.DoubleValue
0.010

@<SCITEGIC>MOL_PROPERTY
Idih
SciTegic.value.DoubleValue
0.000

@<SCITEGIC>MOL_PROPERTY
Tether
SciTegic.value.DoubleValue
0.000

@<TRIPOS>MOLECULE
guest-s19_confgen4.mol2 : confsearch ligand conformer 615
          17          16           1
SMALL
USER_CHARGES
 
@<TRIPOS>ATOM
       1    C1      17.362291   17.525154   21.936684 C.2        1 MOL1         0.6173
       2    O1      16.568048   18.429115   22.116890 O.co2      1 MOL1        -0.6755
       3    O2      17.035846   16.435865   21.506924 O.co2      1 MOL1        -0.6755
       4    C2      18.801047   17.736661   22.251863 C.2        1 MOL1        -0.1504
       5    H1      19.456780   16.888565   22.068812 H          1 MOL1         0.0814
       6    C3      19.304496   18.895607   22.733909 C.2        1 MOL1        -0.1394
       7    H2      18.657051   19.752698   22.917778 H          1 MOL1         0.0817
       8    C4      20.770836   19.104767   23.048734 C.3        1 MOL1        -0.1849
       9    H3      21.177013   18.203356   23.527278 H          1 MOL1         0.0736
      10    H4      20.883130   19.916592   23.779913 H          1 MOL1         0.0736
      11    C5      21.602476   19.426915   21.787719 C.3        1 MOL1        -0.1866
      12    H5      22.666567   19.463402   22.058887 H          1 MOL1         0.0738
      13    H6      21.493093   18.615699   21.054649 H          1 MOL1         0.0738
      14    C6      21.200332   20.769636   21.141117 C.3        1 MOL1        -0.2879
      15    H7      21.313892   21.597785   21.852748 H          1 MOL1         0.0750
      16    H8      21.832442   20.982751   20.269380 H          1 MOL1         0.0750
      17    H9      20.156218   20.749228   20.802546 H          1 MOL1         0.0750
@<TRIPOS>BOND
    1     1     2    1
    2     1     3    2
    3     1     4    1
    4     4     5    1
    5     4     6    2
    6     6     7    1
    7     6     8    1
    8     8     9    1
    9     8    10    1
   10     8    11    1
   11    11    12    1
   12    11    13    1
   13    11    14    1
   14    14    15    1
   15    14    16    1
   16    14    17    1
@<TRIPOS>SUBSTRUCTURE
       1 MOL1            1 RESIDUE      1      MOL     
@<SCITEGIC>MOL_PROPERTY
VConf Rank
SciTegic.value.IntegerValue
615

@<SCITEGIC>MOL_PROPERTY
Conf_Id
SciTegic.value.IntegerValue
3

@<SCITEGIC>MOL_PROPERTY
Delta U+W
SciTegic.value.DoubleValue
0.531

@<SCITEGIC>MOL_PROPERTY
U+W
SciTegic.value.DoubleValue
-52.878

@<SCITEGIC>MOL_PROPERTY
Grad RMS
SciTegic.value.DoubleValue
0.000000

@<SCITEGIC>MOL_PROPERTY
U
SciTegic.value.DoubleValue
10.067

@<SCITEGIC>MOL_PROPERTY
W
SciTegic.value.DoubleValue
-62.945

@<SCITEGIC>MOL_PROPERTY
W(PB)
SciTegic.value.DoubleValue
-64.982

@<SCITEGIC>MOL_PROPERTY
W(SA)
SciTegic.value.DoubleValue
2.037

@<SCITEGIC>MOL_PROPERTY
Valence
SciTegic.value.DoubleValue
2.779

@<SCITEGIC>MOL_PROPERTY
Coulomb
SciTegic.value.DoubleValue
6.474

@<SCITEGIC>MOL_PROPERTY
VdW
SciTegic.value.DoubleValue
0.815

@<SCITEGIC>MOL_PROPERTY
VdW6
SciTegic.value.DoubleValue
-5.088

@<SCITEGIC>MOL_PROPERTY
VdW12
SciTegic.value.DoubleValue
5.902

@<SCITEGIC>MOL_PROPERTY
Bond
SciTegic.value.DoubleValue
0.078

@<SCITEGIC>MOL_PROPERTY
Angle
SciTegic.value.DoubleValue
2.651

@<SCITEGIC>MOL_PROPERTY
Pdih
SciTegic.value.DoubleValue
0.050

@<SCITEGIC>MOL_PROPERTY
Idih
SciTegic.value.DoubleValue
0.000

@<SCITEGIC>MOL_PROPERTY
Tether
SciTegic.value.DoubleValue
0.000

@<TRIPOS>MOLECULE
guest-s19_confgen4.mol2 : confsearch ligand conformer 616
          17          16           1
SMALL
USER_CHARGES
 
@<TRIPOS>ATOM
       1    C1      22.974283   19.111592   21.710025 C.2        1 MOL1         0.6173
       2    O1      23.737630   18.180786   21.540669 O.co2      1 MOL1        -0.6755
       3    O2      23.338473   20.198408   22.118246 O.co2      1 MOL1        -0.6755
       4    C2      21.537438   18.888371   21.394237 C.2        1 MOL1        -0.1504
       5    H1      21.280217   17.895045   21.033895 H          1 MOL1         0.0814
       6    C3      20.579040   19.832110   21.537110 C.2        1 MOL1        -0.1394
       7    H2      20.827502   20.828789   21.901002 H          1 MOL1         0.0817
       8    C4      19.116610   19.600988   21.217397 C.3        1 MOL1        -0.1849
       9    H3      18.995276   18.710965   20.585039 H          1 MOL1         0.0736
      10    H4      18.740466   20.447792   20.627948 H          1 MOL1         0.0736
      11    C5      18.254371   19.454577   22.490297 C.3        1 MOL1        -0.1866
      12    H5      18.377212   20.343337   23.124705 H          1 MOL1         0.0738
      13    H6      17.194479   19.418156   22.203065 H          1 MOL1         0.0738
      14    C6      18.600044   18.186088   23.299169 C.3        1 MOL1        -0.2879
      15    H7      19.636515   18.216251   23.659545 H          1 MOL1         0.0750
      16    H8      17.942615   18.094601   24.173402 H          1 MOL1         0.0750
      17    H9      18.476708   17.283866   22.686081 H          1 MOL1         0.0750
@<TRIPOS>BOND
    1     1     2    1
    2     1     3    2
    3     1     4    1
    4     4     5    1
    5     4     6    2
    6     6     7    1
    7     6     8    1
    8     8     9    1
    9     8    10    1
   10     8    11    1
   11    11    12    1
   12    11    13    1
   13    11    14    1
   14    14    15    1
   15    14    16    1
   16    14    17    1
@<TRIPOS>SUBSTRUCTURE
       1 MOL1            1 RESIDUE      1      MOL     
@<SCITEGIC>MOL_PROPERTY
VConf Rank
SciTegic.value.IntegerValue
616

@<SCITEGIC>MOL_PROPERTY
Conf_Id
SciTegic.value.IntegerValue
45

@<SCITEGIC>MOL_PROPERTY
Delta U+W
SciTegic.value.DoubleValue
0.562

@<SCITEGIC>MOL_PROPERTY
U+W
SciTegic.value.DoubleValue
-52.846

@<SCITEGIC>MOL_PROPERTY
Grad RMS
SciTegic.value.DoubleValue
0.000000

@<SCITEGIC>MOL_PROPERTY
U
SciTegic.value.DoubleValue
10.243

@<SCITEGIC>MOL_PROPERTY
W
SciTegic.value.DoubleValue
-63.089

@<SCITEGIC>MOL_PROPERTY
W(PB)
SciTegic.value.DoubleValue
-65.116

@<SCITEGIC>MOL_PROPERTY
W(SA)
SciTegic.value.DoubleValue
2.026

@<SCITEGIC>MOL_PROPERTY
Valence
SciTegic.value.DoubleValue
2.822

@<SCITEGIC>MOL_PROPERTY
Coulomb
SciTegic.value.DoubleValue
6.637

@<SCITEGIC>MOL_PROPERTY
VdW
SciTegic.value.DoubleValue
0.785

@<SCITEGIC>MOL_PROPERTY
VdW6
SciTegic.value.DoubleValue
-5.216

@<SCITEGIC>MOL_PROPERTY
VdW12
SciTegic.value.DoubleValue
6.001

@<SCITEGIC>MOL_PROPERTY
Bond
SciTegic.value.DoubleValue
0.080

@<SCITEGIC>MOL_PROPERTY
Angle
SciTegic.value.DoubleValue
2.678

@<SCITEGIC>MOL_PROPERTY
Pdih
SciTegic.value.DoubleValue
0.064

@<SCITEGIC>MOL_PROPERTY
Idih
SciTegic.value.DoubleValue
0.000

@<SCITEGIC>MOL_PROPERTY
Tether
SciTegic.value.DoubleValue
0.000

@<TRIPOS>MOLECULE
guest-s19_confgen4.mol2 : confsearch ligand conformer 617
          17          16           1
SMALL
USER_CHARGES
 
@<TRIPOS>ATOM
       1    C1      18.592921   18.777855   24.963393 C.2        1 MOL1         0.6173
       2    O1      17.417973   18.779971   25.275156 O.co2      1 MOL1        -0.6755
       3    O2      19.492444   18.875000   25.776914 O.co2      1 MOL1        -0.6755
       4    C2      18.920392   18.648218   23.517669 C.2        1 MOL1        -0.1504
       5    H1      18.070473   18.565380   22.844108 H          1 MOL1         0.0814
       6    C3      20.181328   18.632537   23.028917 C.2        1 MOL1        -0.1394
       7    H2      21.040085   18.717249   23.694599 H          1 MOL1         0.0817
       8    C4      20.505705   18.502522   21.556805 C.3        1 MOL1        -0.1849
       9    H3      19.810769   17.797948   21.079891 H          1 MOL1         0.0736
      10    H4      21.511675   18.077923   21.437946 H          1 MOL1         0.0736
      11    C5      20.434139   19.867908   20.842932 C.3        1 MOL1        -0.1866
      12    H5      19.426942   20.292204   20.957333 H          1 MOL1         0.0738
      13    H6      21.131511   20.570241   21.320391 H          1 MOL1         0.0738
      14    C6      20.772755   19.745458   19.343642 C.3        1 MOL1        -0.2879
      15    H7      21.788089   19.352851   19.200855 H          1 MOL1         0.0750
      16    H8      20.069991   19.071818   18.835933 H          1 MOL1         0.0750
      17    H9      20.716558   20.725953   18.853132 H          1 MOL1         0.0750
@<TRIPOS>BOND
    1     1     2    1
    2     1     3    2
    3     1     4    1
    4     4     5    1
    5     4     6    2
    6     6     7    1
    7     6     8    1
    8     8     9    1
    9     8    10    1
   10     8    11    1
   11    11    12    1
   12    11    13    1
   13    11    14    1
   14    14    15    1
   15    14    16    1
   16    14    17    1
@<TRIPOS>SUBSTRUCTURE
       1 MOL1            1 RESIDUE      1      MOL     
@<SCITEGIC>MOL_PROPERTY
VConf Rank
SciTegic.value.IntegerValue
617

@<SCITEGIC>MOL_PROPERTY
Conf_Id
SciTegic.value.IntegerValue
36

@<SCITEGIC>MOL_PROPERTY
Delta U+W
SciTegic.value.DoubleValue
0.000

@<SCITEGIC>MOL_PROPERTY
U+W
SciTegic.value.DoubleValue
-53.409

@<SCITEGIC>MOL_PROPERTY
Grad RMS
SciTegic.value.DoubleValue
0.000000

@<SCITEGIC>MOL_PROPERTY
U
SciTegic.value.DoubleValue
9.048

@<SCITEGIC>MOL_PROPERTY
W
SciTegic.value.DoubleValue
-62.457

@<SCITEGIC>MOL_PROPERTY
W(PB)
SciTegic.value.DoubleValue
-64.540

@<SCITEGIC>MOL_PROPERTY
W(SA)
SciTegic.value.DoubleValue
2.084

@<SCITEGIC>MOL_PROPERTY
Valence
SciTegic.value.DoubleValue
2.652

@<SCITEGIC>MOL_PROPERTY
Coulomb
SciTegic.value.DoubleValue
5.578

@<SCITEGIC>MOL_PROPERTY
VdW
SciTegic.value.DoubleValue
0.818

@<SCITEGIC>MOL_PROPERTY
VdW6
SciTegic.value.DoubleValue
-4.534

@<SCITEGIC>MOL_PROPERTY
VdW12
SciTegic.value.DoubleValue
5.352

@<SCITEGIC>MOL_PROPERTY
Bond
SciTegic.value.DoubleValue
0.063

@<SCITEGIC>MOL_PROPERTY
Angle
SciTegic.value.DoubleValue
2.579

@<SCITEGIC>MOL_PROPERTY
Pdih
SciTegic.value.DoubleValue
0.010

@<SCITEGIC>MOL_PROPERTY
Idih
SciTegic.value.DoubleValue
0.000

@<SCITEGIC>MOL_PROPERTY
Tether
SciTegic.value.DoubleValue
0.000

@<TRIPOS>MOLECULE
guest-s19_confgen4.mol2 : confsearch ligand conformer 618
          17          16           1
SMALL
USER_CHARGES
 
@<TRIPOS>ATOM
       1    C1      17.400668   16.971775   22.129938 C.2        1 MOL1         0.6173
       2    O1      16.402126   17.654597   22.260559 O.co2      1 MOL1        -0.6755
       3    O2      17.399473   15.765371   22.279245 O.co2      1 MOL1        -0.6755
       4    C2      18.691549   17.618786   21.770541 C.2        1 MOL1        -0.1504
       5    H1      19.544682   16.951852   21.669193 H          1 MOL1         0.0814
       6    C3      18.839383   18.948876   21.575371 C.2        1 MOL1        -0.1394
       7    H2      17.991758   19.626429   21.676499 H          1 MOL1         0.0817
       8    C4      20.156295   19.599142   21.211869 C.3        1 MOL1        -0.1849
       9    H3      19.966857   20.546048   20.688544 H          1 MOL1         0.0736
      10    H4      20.709880   18.959878   20.510661 H          1 MOL1         0.0736
      11    C5      21.016467   19.864749   22.464296 C.3        1 MOL1        -0.1866
      12    H5      20.461529   20.506061   23.163102 H          1 MOL1         0.0738
      13    H6      21.210388   18.917720   22.986877 H          1 MOL1         0.0738
      14    C6      22.356802   20.536000   22.103118 C.3        1 MOL1        -0.2879
      15    H7      22.191725   21.501405   21.606961 H          1 MOL1         0.0750
      16    H8      22.954410   20.716928   23.006036 H          1 MOL1         0.0750
      17    H9      22.945500   19.900116   21.428936 H          1 MOL1         0.0750
@<TRIPOS>BOND
    1     1     2    1
    2     1     3    2
    3     1     4    1
    4     4     5    1
    5     4     6    2
    6     6     7    1
    7     6     8    1
    8     8     9    1
    9     8    10    1
   10     8    11    1
   11    11    12    1
   12    11    13    1
   13    11    14    1
   14    14    15    1
   15    14    16    1
   16    14    17    1
@<TRIPOS>SUBSTRUCTURE
       1 MOL1            1 RESIDUE      1      MOL     
@<SCITEGIC>MOL_PROPERTY
VConf Rank
SciTegic.value.IntegerValue
618

@<SCITEGIC>MOL_PROPERTY
Conf_Id
SciTegic.value.IntegerValue
1

@<SCITEGIC>MOL_PROPERTY
Delta U+W
SciTegic.value.DoubleValue
0.030

@<SCITEGIC>MOL_PROPERTY
U+W
SciTegic.value.DoubleValue
-53.378

@<SCITEGIC>MOL_PROPERTY
Grad RMS
SciTegic.value.DoubleValue
0.000000

@<SCITEGIC>MOL_PROPERTY
U
SciTegic.value.DoubleValue
9.048

@<SCITEGIC>MOL_PROPERTY
W
SciTegic.value.DoubleValue
-62.426

@<SCITEGIC>MOL_PROPERTY
W(PB)
SciTegic.value.DoubleValue
-64.506

@<SCITEGIC>MOL_PROPERTY
W(SA)
SciTegic.value.DoubleValue
2.080

@<SCITEGIC>MOL_PROPERTY
Valence
SciTegic.value.DoubleValue
2.652

@<SCITEGIC>MOL_PROPERTY
Coulomb
SciTegic.value.DoubleValue
5.578

@<SCITEGIC>MOL_PROPERTY
VdW
SciTegic.value.DoubleValue
0.818

@<SCITEGIC>MOL_PROPERTY
VdW6
SciTegic.value.DoubleValue
-4.535

@<SCITEGIC>MOL_PROPERTY
VdW12
SciTegic.value.DoubleValue
5.352

@<SCITEGIC>MOL_PROPERTY
Bond
SciTegic.value.DoubleValue
0.063

@<SCITEGIC>MOL_PROPERTY
Angle
SciTegic.value.DoubleValue
2.579

@<SCITEGIC>MOL_PROPERTY
Pdih
SciTegic.value.DoubleValue
0.010

@<SCITEGIC>MOL_PROPERTY
Idih
SciTegic.value.DoubleValue
0.000

@<SCITEGIC>MOL_PROPERTY
Tether
SciTegic.value.DoubleValue
0.000

@<TRIPOS>MOLECULE
guest-s19_confgen4.mol2 : confsearch ligand conformer 619
          17          16           1
SMALL
USER_CHARGES
 
@<TRIPOS>ATOM
       1    C1      20.394240   22.086050   21.443351 C.2        1 MOL1         0.6173
       2    O1      21.228516   22.375558   22.280375 O.co2      1 MOL1        -0.6755
       3    O2      20.138956   22.798685   20.492146 O.co2      1 MOL1        -0.6755
       4    C2      19.637689   20.810977   21.569496 C.2        1 MOL1        -0.1504
       5    H1      18.906715   20.613478   20.788836 H          1 MOL1         0.0814
       6    C3      19.818713   19.923443   22.573737 C.2        1 MOL1        -0.1394
       7    H2      20.550783   20.109721   23.359212 H          1 MOL1         0.0817
       8    C4      19.047620   18.625712   22.693429 C.3        1 MOL1        -0.1849
       9    H3      17.995778   18.796361   22.426908 H          1 MOL1         0.0736
      10    H4      19.047634   18.286955   23.738195 H          1 MOL1         0.0736
      11    C5      19.624758   17.513770   21.790069 C.3        1 MOL1        -0.1866
      12    H5      18.967117   16.634907   21.837613 H          1 MOL1         0.0738
      13    H6      19.624885   17.849371   20.743743 H          1 MOL1         0.0738
      14    C6      21.052881   17.098118   22.202878 C.3        1 MOL1        -0.2879
      15    H7      21.074498   16.746749   23.242694 H          1 MOL1         0.0750
      16    H8      21.418311   16.284827   21.562624 H          1 MOL1         0.0750
      17    H9      21.752463   17.939116   22.110526 H          1 MOL1         0.0750
@<TRIPOS>BOND
    1     1     2    1
    2     1     3    2
    3     1     4    1
    4     4     5    1
    5     4     6    2
    6     6     7    1
    7     6     8    1
    8     8     9    1
    9     8    10    1
   10     8    11    1
   11    11    12    1
   12    11    13    1
   13    11    14    1
   14    14    15    1
   15    14    16    1
   16    14    17    1
@<TRIPOS>SUBSTRUCTURE
       1 MOL1            1 RESIDUE      1      MOL     
@<SCITEGIC>MOL_PROPERTY
VConf Rank
SciTegic.value.IntegerValue
619

@<SCITEGIC>MOL_PROPERTY
Conf_Id
SciTegic.value.IntegerValue
3

@<SCITEGIC>MOL_PROPERTY
Delta U+W
SciTegic.value.DoubleValue
0.531

@<SCITEGIC>MOL_PROPERTY
U+W
SciTegic.value.DoubleValue
-52.878

@<SCITEGIC>MOL_PROPERTY
Grad RMS
SciTegic.value.DoubleValue
0.000000

@<SCITEGIC>MOL_PROPERTY
U
SciTegic.value.DoubleValue
10.067

@<SCITEGIC>MOL_PROPERTY
W
SciTegic.value.DoubleValue
-62.945

@<SCITEGIC>MOL_PROPERTY
W(PB)
SciTegic.value.DoubleValue
-64.982

@<SCITEGIC>MOL_PROPERTY
W(SA)
SciTegic.value.DoubleValue
2.037

@<SCITEGIC>MOL_PROPERTY
Valence
SciTegic.value.DoubleValue
2.779

@<SCITEGIC>MOL_PROPERTY
Coulomb
SciTegic.value.DoubleValue
6.474

@<SCITEGIC>MOL_PROPERTY
VdW
SciTegic.value.DoubleValue
0.815

@<SCITEGIC>MOL_PROPERTY
VdW6
SciTegic.value.DoubleValue
-5.088

@<SCITEGIC>MOL_PROPERTY
VdW12
SciTegic.value.DoubleValue
5.902

@<SCITEGIC>MOL_PROPERTY
Bond
SciTegic.value.DoubleValue
0.078

@<SCITEGIC>MOL_PROPERTY
Angle
SciTegic.value.DoubleValue
2.651

@<SCITEGIC>MOL_PROPERTY
Pdih
SciTegic.value.DoubleValue
0.050

@<SCITEGIC>MOL_PROPERTY
Idih
SciTegic.value.DoubleValue
0.000

@<SCITEGIC>MOL_PROPERTY
Tether
SciTegic.value.DoubleValue
0.000

@<TRIPOS>MOLECULE
guest-s19_confgen4.mol2 : confsearch ligand conformer 620
          17          16           1
SMALL
USER_CHARGES
 
@<TRIPOS>ATOM
       1    C1      22.045225   19.710133   19.962858 C.2        1 MOL1         0.6173
       2    O1      23.251814   19.565659   19.995255 O.co2      1 MOL1        -0.6755
       3    O2      21.491360   20.466986   19.187709 O.co2      1 MOL1        -0.6755
       4    C2      21.231606   18.913298   20.920538 C.2        1 MOL1        -0.1504
       5    H1      21.789333   18.257062   21.584617 H          1 MOL1         0.0814
       6    C3      19.882562   18.975283   20.996840 C.2        1 MOL1        -0.1394
       7    H2      19.316234   19.632841   20.337744 H          1 MOL1         0.0817
       8    C4      19.057230   18.164846   21.974774 C.3        1 MOL1        -0.1849
       9    H3      19.644811   17.327552   22.375308 H          1 MOL1         0.0736
      10    H4      18.209205   17.715021   21.441371 H          1 MOL1         0.0736
      11    C5      18.517621   19.023962   23.139210 C.3        1 MOL1        -0.1866
      12    H5      17.931908   19.863298   22.739319 H          1 MOL1         0.0738
      13    H6      17.826771   18.418043   23.741528 H          1 MOL1         0.0738
      14    C6      19.641189   19.561306   24.051178 C.3        1 MOL1        -0.2879
      15    H7      20.317443   20.225348   23.497300 H          1 MOL1         0.0750
      16    H8      19.219133   20.133048   24.887747 H          1 MOL1         0.0750
      17    H9      20.235436   18.738035   24.468536 H          1 MOL1         0.0750
@<TRIPOS>BOND
    1     1     2    1
    2     1     3    2
    3     1     4    1
    4     4     5    1
    5     4     6    2
    6     6     7    1
    7     6     8    1
    8     8     9    1
    9     8    10    1
   10     8    11    1
   11    11    12    1
   12    11    13    1
   13    11    14    1
   14    14    15    1
   15    14    16    1
   16    14    17    1
@<TRIPOS>SUBSTRUCTURE
       1 MOL1            1 RESIDUE      1      MOL     
@<SCITEGIC>MOL_PROPERTY
VConf Rank
SciTegic.value.IntegerValue
620

@<SCITEGIC>MOL_PROPERTY
Conf_Id
SciTegic.value.IntegerValue
45

@<SCITEGIC>MOL_PROPERTY
Delta U+W
SciTegic.value.DoubleValue
0.562

@<SCITEGIC>MOL_PROPERTY
U+W
SciTegic.value.DoubleValue
-52.846

@<SCITEGIC>MOL_PROPERTY
Grad RMS
SciTegic.value.DoubleValue
0.000000

@<SCITEGIC>MOL_PROPERTY
U
SciTegic.value.DoubleValue
10.243

@<SCITEGIC>MOL_PROPERTY
W
SciTegic.value.DoubleValue
-63.089

@<SCITEGIC>MOL_PROPERTY
W(PB)
SciTegic.value.DoubleValue
-65.116

@<SCITEGIC>MOL_PROPERTY
W(SA)
SciTegic.value.DoubleValue
2.026

@<SCITEGIC>MOL_PROPERTY
Valence
SciTegic.value.DoubleValue
2.822

@<SCITEGIC>MOL_PROPERTY
Coulomb
SciTegic.value.DoubleValue
6.637

@<SCITEGIC>MOL_PROPERTY
VdW
SciTegic.value.DoubleValue
0.785

@<SCITEGIC>MOL_PROPERTY
VdW6
SciTegic.value.DoubleValue
-5.216

@<SCITEGIC>MOL_PROPERTY
VdW12
SciTegic.value.DoubleValue
6.001

@<SCITEGIC>MOL_PROPERTY
Bond
SciTegic.value.DoubleValue
0.080

@<SCITEGIC>MOL_PROPERTY
Angle
SciTegic.value.DoubleValue
2.678

@<SCITEGIC>MOL_PROPERTY
Pdih
SciTegic.value.DoubleValue
0.064

@<SCITEGIC>MOL_PROPERTY
Idih
SciTegic.value.DoubleValue
0.000

@<SCITEGIC>MOL_PROPERTY
Tether
SciTegic.value.DoubleValue
0.000

@<TRIPOS>MOLECULE
guest-s19_confgen4.mol2 : confsearch ligand conformer 621
          17          16           1
SMALL
USER_CHARGES
 
@<TRIPOS>ATOM
       1    C1      17.186920   19.174980   20.042756 C.2        1 MOL1         0.6173
       2    O1      16.196841   18.473830   20.119150 O.co2      1 MOL1        -0.6755
       3    O2      17.413443   19.896621   19.089700 O.co2      1 MOL1        -0.6755
       4    C2      18.148522   19.132742   21.177525 C.2        1 MOL1        -0.1504
       5    H1      17.886468   18.467586   21.997160 H          1 MOL1         0.0814
       6    C3      19.289421   19.857366   21.226053 C.2        1 MOL1        -0.1394
       7    H2      19.562828   20.525111   20.409267 H          1 MOL1         0.0817
       8    C4      20.263159   19.806959   22.383002 C.3        1 MOL1        -0.1849
       9    H3      19.715091   19.733949   23.332264 H          1 MOL1         0.0736
      10    H4      20.834928   20.743879   22.423596 H          1 MOL1         0.0736
      11    C5      21.233522   18.615525   22.249228 C.3        1 MOL1        -0.1866
      12    H5      20.663202   17.676930   22.212704 H          1 MOL1         0.0738
      13    H6      21.781960   18.691868   21.300041 H          1 MOL1         0.0738
      14    C6      22.235586   18.562544   23.419949 C.3        1 MOL1        -0.2879
      15    H7      22.841747   19.477087   23.460099 H          1 MOL1         0.0750
      16    H8      21.713188   18.454901   24.379610 H          1 MOL1         0.0750
      17    H9      22.916925   17.709160   23.307512 H          1 MOL1         0.0750
@<TRIPOS>BOND
    1     1     2    1
    2     1     3    2
    3     1     4    1
    4     4     5    1
    5     4     6    2
    6     6     7    1
    7     6     8    1
    8     8     9    1
    9     8    10    1
   10     8    11    1
   11    11    12    1
   12    11    13    1
   13    11    14    1
   14    14    15    1
   15    14    16    1
   16    14    17    1
@<TRIPOS>SUBSTRUCTURE
       1 MOL1            1 RESIDUE      1      MOL     
@<SCITEGIC>MOL_PROPERTY
VConf Rank
SciTegic.value.IntegerValue
621

@<SCITEGIC>MOL_PROPERTY
Conf_Id
SciTegic.value.IntegerValue
36

@<SCITEGIC>MOL_PROPERTY
Delta U+W
SciTegic.value.DoubleValue
0.000

@<SCITEGIC>MOL_PROPERTY
U+W
SciTegic.value.DoubleValue
-53.409

@<SCITEGIC>MOL_PROPERTY
Grad RMS
SciTegic.value.DoubleValue
0.000000

@<SCITEGIC>MOL_PROPERTY
U
SciTegic.value.DoubleValue
9.048

@<SCITEGIC>MOL_PROPERTY
W
SciTegic.value.DoubleValue
-62.457

@<SCITEGIC>MOL_PROPERTY
W(PB)
SciTegic.value.DoubleValue
-64.540

@<SCITEGIC>MOL_PROPERTY
W(SA)
SciTegic.value.DoubleValue
2.084

@<SCITEGIC>MOL_PROPERTY
Valence
SciTegic.value.DoubleValue
2.652

@<SCITEGIC>MOL_PROPERTY
Coulomb
SciTegic.value.DoubleValue
5.578

@<SCITEGIC>MOL_PROPERTY
VdW
SciTegic.value.DoubleValue
0.818

@<SCITEGIC>MOL_PROPERTY
VdW6
SciTegic.value.DoubleValue
-4.534

@<SCITEGIC>MOL_PROPERTY
VdW12
SciTegic.value.DoubleValue
5.352

@<SCITEGIC>MOL_PROPERTY
Bond
SciTegic.value.DoubleValue
0.063

@<SCITEGIC>MOL_PROPERTY
Angle
SciTegic.value.DoubleValue
2.579

@<SCITEGIC>MOL_PROPERTY
Pdih
SciTegic.value.DoubleValue
0.010

@<SCITEGIC>MOL_PROPERTY
Idih
SciTegic.value.DoubleValue
0.000

@<SCITEGIC>MOL_PROPERTY
Tether
SciTegic.value.DoubleValue
0.000

@<TRIPOS>MOLECULE
guest-s19_confgen4.mol2 : confsearch ligand conformer 622
          17          16           1
SMALL
USER_CHARGES
 
@<TRIPOS>ATOM
       1    C1      18.332634   17.818306   24.545112 C.2        1 MOL1         0.6173
       2    O1      18.272049   18.697301   25.384213 O.co2      1 MOL1        -0.6755
       3    O2      18.018735   16.666121   24.772360 O.co2      1 MOL1        -0.6755
       4    C2      18.807343   18.143705   23.172913 C.2        1 MOL1        -0.1504
       5    H1      18.837328   17.312919   22.471625 H          1 MOL1         0.0814
       6    C3      19.189182   19.380495   22.780951 C.2        1 MOL1        -0.1394
       7    H2      19.165168   20.219582   23.476026 H          1 MOL1         0.0817
       8    C4      19.672528   19.702598   21.383859 C.3        1 MOL1        -0.1849
       9    H3      19.501087   20.766507   21.171508 H          1 MOL1         0.0736
      10    H4      19.087762   19.138222   20.644715 H          1 MOL1         0.0736
      11    C5      21.171464   19.378444   21.219136 C.3        1 MOL1        -0.1866
      12    H5      21.754406   19.945719   21.958016 H          1 MOL1         0.0738
      13    H6      21.344113   18.313346   21.427270 H          1 MOL1         0.0738
      14    C6      21.674145   19.712684   19.800292 C.3        1 MOL1        -0.2879
      15    H7      21.542223   20.779706   19.577826 H          1 MOL1         0.0750
      16    H8      22.741540   19.475619   19.702321 H          1 MOL1         0.0750
      17    H9      21.127785   19.134457   19.043601 H          1 MOL1         0.0750
@<TRIPOS>BOND
    1     1     2    1
    2     1     3    2
    3     1     4    1
    4     4     5    1
    5     4     6    2
    6     6     7    1
    7     6     8    1
    8     8     9    1
    9     8    10    1
   10     8    11    1
   11    11    12    1
   12    11    13    1
   13    11    14    1
   14    14    15    1
   15    14    16    1
   16    14    17    1
@<TRIPOS>SUBSTRUCTURE
       1 MOL1            1 RESIDUE      1      MOL     
@<SCITEGIC>MOL_PROPERTY
VConf Rank
SciTegic.value.IntegerValue
622

@<SCITEGIC>MOL_PROPERTY
Conf_Id
SciTegic.value.IntegerValue
1

@<SCITEGIC>MOL_PROPERTY
Delta U+W
SciTegic.value.DoubleValue
0.030

@<SCITEGIC>MOL_PROPERTY
U+W
SciTegic.value.DoubleValue
-53.378

@<SCITEGIC>MOL_PROPERTY
Grad RMS
SciTegic.value.DoubleValue
0.000000

@<SCITEGIC>MOL_PROPERTY
U
SciTegic.value.DoubleValue
9.048

@<SCITEGIC>MOL_PROPERTY
W
SciTegic.value.DoubleValue
-62.426

@<SCITEGIC>MOL_PROPERTY
W(PB)
SciTegic.value.DoubleValue
-64.506

@<SCITEGIC>MOL_PROPERTY
W(SA)
SciTegic.value.DoubleValue
2.080

@<SCITEGIC>MOL_PROPERTY
Valence
SciTegic.value.DoubleValue
2.652

@<SCITEGIC>MOL_PROPERTY
Coulomb
SciTegic.value.DoubleValue
5.578

@<SCITEGIC>MOL_PROPERTY
VdW
SciTegic.value.DoubleValue
0.818

@<SCITEGIC>MOL_PROPERTY
VdW6
SciTegic.value.DoubleValue
-4.535

@<SCITEGIC>MOL_PROPERTY
VdW12
SciTegic.value.DoubleValue
5.352

@<SCITEGIC>MOL_PROPERTY
Bond
SciTegic.value.DoubleValue
0.063

@<SCITEGIC>MOL_PROPERTY
Angle
SciTegic.value.DoubleValue
2.579

@<SCITEGIC>MOL_PROPERTY
Pdih
SciTegic.value.DoubleValue
0.010

@<SCITEGIC>MOL_PROPERTY
Idih
SciTegic.value.DoubleValue
0.000

@<SCITEGIC>MOL_PROPERTY
Tether
SciTegic.value.DoubleValue
0.000

@<TRIPOS>MOLECULE
guest-s19_confgen4.mol2 : confsearch ligand conformer 623
          17          16           1
SMALL
USER_CHARGES
 
@<TRIPOS>ATOM
       1    C1      20.796620   18.315109   19.170324 C.2        1 MOL1         0.6173
       2    O1      20.228248   19.191793   18.546770 O.co2      1 MOL1        -0.6755
       3    O2      21.663885   17.615705   18.684015 O.co2      1 MOL1        -0.6755
       4    C2      20.429304   18.066642   20.590689 C.2        1 MOL1        -0.1504
       5    H1      20.974512   17.268649   21.089404 H          1 MOL1         0.0814
       6    C3      19.485344   18.767803   21.258744 C.2        1 MOL1        -0.1394
       7    H2      18.935456   19.571612   20.769752 H          1 MOL1         0.0817
       8    C4      19.119563   18.511756   22.705692 C.3        1 MOL1        -0.1849
       9    H3      19.094345   17.429769   22.893292 H          1 MOL1         0.0736
      10    H4      18.104367   18.880695   22.904580 H          1 MOL1         0.0736
      11    C5      20.110973   19.172931   23.688298 C.3        1 MOL1        -0.1866
      12    H5      19.858553   18.867499   24.713065 H          1 MOL1         0.0738
      13    H6      21.127608   18.804752   23.492534 H          1 MOL1         0.0738
      14    C6      20.090492   20.713967   23.601691 C.3        1 MOL1        -0.2879
      15    H7      19.085555   21.105474   23.806556 H          1 MOL1         0.0750
      16    H8      20.780474   21.150865   24.335144 H          1 MOL1         0.0750
      17    H9      20.396258   21.058780   22.605281 H          1 MOL1         0.0750
@<TRIPOS>BOND
    1     1     2    1
    2     1     3    2
    3     1     4    1
    4     4     5    1
    5     4     6    2
    6     6     7    1
    7     6     8    1
    8     8     9    1
    9     8    10    1
   10     8    11    1
   11    11    12    1
   12    11    13    1
   13    11    14    1
   14    14    15    1
   15    14    16    1
   16    14    17    1
@<TRIPOS>SUBSTRUCTURE
       1 MOL1            1 RESIDUE      1      MOL     
@<SCITEGIC>MOL_PROPERTY
VConf Rank
SciTegic.value.IntegerValue
623

@<SCITEGIC>MOL_PROPERTY
Conf_Id
SciTegic.value.IntegerValue
3

@<SCITEGIC>MOL_PROPERTY
Delta U+W
SciTegic.value.DoubleValue
0.531

@<SCITEGIC>MOL_PROPERTY
U+W
SciTegic.value.DoubleValue
-52.878

@<SCITEGIC>MOL_PROPERTY
Grad RMS
SciTegic.value.DoubleValue
0.000000

@<SCITEGIC>MOL_PROPERTY
U
SciTegic.value.DoubleValue
10.067

@<SCITEGIC>MOL_PROPERTY
W
SciTegic.value.DoubleValue
-62.945

@<SCITEGIC>MOL_PROPERTY
W(PB)
SciTegic.value.DoubleValue
-64.982

@<SCITEGIC>MOL_PROPERTY
W(SA)
SciTegic.value.DoubleValue
2.037

@<SCITEGIC>MOL_PROPERTY
Valence
SciTegic.value.DoubleValue
2.779

@<SCITEGIC>MOL_PROPERTY
Coulomb
SciTegic.value.DoubleValue
6.474

@<SCITEGIC>MOL_PROPERTY
VdW
SciTegic.value.DoubleValue
0.815

@<SCITEGIC>MOL_PROPERTY
VdW6
SciTegic.value.DoubleValue
-5.088

@<SCITEGIC>MOL_PROPERTY
VdW12
SciTegic.value.DoubleValue
5.902

@<SCITEGIC>MOL_PROPERTY
Bond
SciTegic.value.DoubleValue
0.078

@<SCITEGIC>MOL_PROPERTY
Angle
SciTegic.value.DoubleValue
2.651

@<SCITEGIC>MOL_PROPERTY
Pdih
SciTegic.value.DoubleValue
0.050

@<SCITEGIC>MOL_PROPERTY
Idih
SciTegic.value.DoubleValue
0.000

@<SCITEGIC>MOL_PROPERTY
Tether
SciTegic.value.DoubleValue
0.000

@<TRIPOS>MOLECULE
guest-s19_confgen4.mol2 : confsearch ligand conformer 624
          17          16           1
SMALL
USER_CHARGES
 
@<TRIPOS>ATOM
       1    C1      22.993449   19.182679   21.965539 C.2        1 MOL1         0.6173
       2    O1      23.806400   19.000980   22.850907 O.co2      1 MOL1        -0.6755
       3    O2      23.255761   19.785541   20.941723 O.co2      1 MOL1        -0.6755
       4    C2      21.625736   18.631462   22.164520 C.2        1 MOL1        -0.1504
       5    H1      21.458969   18.104079   23.100876 H          1 MOL1         0.0814
       6    C3      20.623205   18.760330   21.265683 C.2        1 MOL1        -0.1394
       7    H2      20.780679   19.290363   20.326649 H          1 MOL1         0.0817
       8    C4      19.231036   18.200420   21.472334 C.3        1 MOL1        -0.1849
       9    H3      19.233906   17.440770   22.265847 H          1 MOL1         0.0736
      10    H4      18.912831   17.684208   20.556758 H          1 MOL1         0.0736
      11    C5      18.201140   19.300395   21.810768 C.3        1 MOL1        -0.1866
      12    H5      18.199513   20.062102   21.018772 H          1 MOL1         0.0738
      13    H6      17.195380   18.858246   21.822939 H          1 MOL1         0.0738
      14    C6      18.473037   19.969069   23.175238 C.3        1 MOL1        -0.2879
      15    H7      19.445379   20.478562   23.179969 H          1 MOL1         0.0750
      16    H8      17.700849   20.716194   23.399728 H          1 MOL1         0.0750
      17    H9      18.471608   19.226322   23.983580 H          1 MOL1         0.0750
@<TRIPOS>BOND
    1     1     2    1
    2     1     3    2
    3     1     4    1
    4     4     5    1
    5     4     6    2
    6     6     7    1
    7     6     8    1
    8     8     9    1
    9     8    10    1
   10     8    11    1
   11    11    12    1
   12    11    13    1
   13    11    14    1
   14    14    15    1
   15    14    16    1
   16    14    17    1
@<TRIPOS>SUBSTRUCTURE
       1 MOL1            1 RESIDUE      1      MOL     
@<SCITEGIC>MOL_PROPERTY
VConf Rank
SciTegic.value.IntegerValue
624

@<SCITEGIC>MOL_PROPERTY
Conf_Id
SciTegic.value.IntegerValue
45

@<SCITEGIC>MOL_PROPERTY
Delta U+W
SciTegic.value.DoubleValue
0.562

@<SCITEGIC>MOL_PROPERTY
U+W
SciTegic.value.DoubleValue
-52.846

@<SCITEGIC>MOL_PROPERTY
Grad RMS
SciTegic.value.DoubleValue
0.000000

@<SCITEGIC>MOL_PROPERTY
U
SciTegic.value.DoubleValue
10.243

@<SCITEGIC>MOL_PROPERTY
W
SciTegic.value.DoubleValue
-63.089

@<SCITEGIC>MOL_PROPERTY
W(PB)
SciTegic.value.DoubleValue
-65.116

@<SCITEGIC>MOL_PROPERTY
W(SA)
SciTegic.value.DoubleValue
2.026

@<SCITEGIC>MOL_PROPERTY
Valence
SciTegic.value.DoubleValue
2.822

@<SCITEGIC>MOL_PROPERTY
Coulomb
SciTegic.value.DoubleValue
6.637

@<SCITEGIC>MOL_PROPERTY
VdW
SciTegic.value.DoubleValue
0.785

@<SCITEGIC>MOL_PROPERTY
VdW6
SciTegic.value.DoubleValue
-5.216

@<SCITEGIC>MOL_PROPERTY
VdW12
SciTegic.value.DoubleValue
6.001

@<SCITEGIC>MOL_PROPERTY
Bond
SciTegic.value.DoubleValue
0.080

@<SCITEGIC>MOL_PROPERTY
Angle
SciTegic.value.DoubleValue
2.678

@<SCITEGIC>MOL_PROPERTY
Pdih
SciTegic.value.DoubleValue
0.064

@<SCITEGIC>MOL_PROPERTY
Idih
SciTegic.value.DoubleValue
0.000

@<SCITEGIC>MOL_PROPERTY
Tether
SciTegic.value.DoubleValue
0.000

@<TRIPOS>MOLECULE
guest-s19_confgen4.mol2 : confsearch ligand conformer 625
          17          16           1
SMALL
USER_CHARGES
 
@<TRIPOS>ATOM
       1    C1      19.143814   21.148795   24.469143 C.2        1 MOL1         0.6173
       2    O1      19.199307   20.943781   25.666053 O.co2      1 MOL1        -0.6755
       3    O2      18.537573   22.087107   23.987025 O.co2      1 MOL1        -0.6755
       4    C2      19.857704   20.197600   23.574855 C.2        1 MOL1        -0.1504
       5    H1      20.379540   19.381639   24.069631 H          1 MOL1         0.0814
       6    C3      19.879825   20.302619   22.226683 C.2        1 MOL1        -0.1394
       7    H2      19.358427   21.114850   21.720523 H          1 MOL1         0.0817
       8    C4      20.606539   19.329632   21.324230 C.3        1 MOL1        -0.1849
       9    H3      21.556946   19.027899   21.785199 H          1 MOL1         0.0736
      10    H4      20.861782   19.825813   20.378163 H          1 MOL1         0.0736
      11    C5      19.747828   18.081005   21.036894 C.3        1 MOL1        -0.1866
      12    H5      19.495081   17.580989   21.982231 H          1 MOL1         0.0738
      13    H6      18.798723   18.385181   20.574030 H          1 MOL1         0.0738
      14    C6      20.477845   17.088405   20.109885 C.3        1 MOL1        -0.2879
      15    H7      20.714366   17.553881   19.144058 H          1 MOL1         0.0750
      16    H8      21.416480   16.744488   20.563891 H          1 MOL1         0.0750
      17    H9      19.851971   16.207351   19.917126 H          1 MOL1         0.0750
@<TRIPOS>BOND
    1     1     2    1
    2     1     3    2
    3     1     4    1
    4     4     5    1
    5     4     6    2
    6     6     7    1
    7     6     8    1
    8     8     9    1
    9     8    10    1
   10     8    11    1
   11    11    12    1
   12    11    13    1
   13    11    14    1
   14    14    15    1
   15    14    16    1
   16    14    17    1
@<TRIPOS>SUBSTRUCTURE
       1 MOL1            1 RESIDUE      1      MOL     
@<SCITEGIC>MOL_PROPERTY
VConf Rank
SciTegic.value.IntegerValue
625

@<SCITEGIC>MOL_PROPERTY
Conf_Id
SciTegic.value.IntegerValue
36

@<SCITEGIC>MOL_PROPERTY
Delta U+W
SciTegic.value.DoubleValue
0.000

@<SCITEGIC>MOL_PROPERTY
U+W
SciTegic.value.DoubleValue
-53.409

@<SCITEGIC>MOL_PROPERTY
Grad RMS
SciTegic.value.DoubleValue
0.000000

@<SCITEGIC>MOL_PROPERTY
U
SciTegic.value.DoubleValue
9.048

@<SCITEGIC>MOL_PROPERTY
W
SciTegic.value.DoubleValue
-62.457

@<SCITEGIC>MOL_PROPERTY
W(PB)
SciTegic.value.DoubleValue
-64.540

@<SCITEGIC>MOL_PROPERTY
W(SA)
SciTegic.value.DoubleValue
2.084

@<SCITEGIC>MOL_PROPERTY
Valence
SciTegic.value.DoubleValue
2.652

@<SCITEGIC>MOL_PROPERTY
Coulomb
SciTegic.value.DoubleValue
5.578

@<SCITEGIC>MOL_PROPERTY
VdW
SciTegic.value.DoubleValue
0.818

@<SCITEGIC>MOL_PROPERTY
VdW6
SciTegic.value.DoubleValue
-4.534

@<SCITEGIC>MOL_PROPERTY
VdW12
SciTegic.value.DoubleValue
5.352

@<SCITEGIC>MOL_PROPERTY
Bond
SciTegic.value.DoubleValue
0.063

@<SCITEGIC>MOL_PROPERTY
Angle
SciTegic.value.DoubleValue
2.579

@<SCITEGIC>MOL_PROPERTY
Pdih
SciTegic.value.DoubleValue
0.010

@<SCITEGIC>MOL_PROPERTY
Idih
SciTegic.value.DoubleValue
0.000

@<SCITEGIC>MOL_PROPERTY
Tether
SciTegic.value.DoubleValue
0.000

@<TRIPOS>MOLECULE
guest-s19_confgen4.mol2 : confsearch ligand conformer 626
          17          16           1
SMALL
USER_CHARGES
 
@<TRIPOS>ATOM
       1    C1      16.825051   18.510172   22.845059 C.2        1 MOL1         0.6173
       2    O1      16.583836   17.349857   22.569596 O.co2      1 MOL1        -0.6755
       3    O2      15.965750   19.300544   23.183613 O.co2      1 MOL1        -0.6755
       4    C2      18.225954   19.006623   22.773154 C.2        1 MOL1        -0.1504
       5    H1      18.372620   20.052752   23.032021 H          1 MOL1         0.0814
       6    C3      19.279676   18.239939   22.411283 C.2        1 MOL1        -0.1394
       7    H2      19.143740   17.191187   22.147819 H          1 MOL1         0.0817
       8    C4      20.701152   18.753173   22.338914 C.3        1 MOL1        -0.1849
       9    H3      21.401228   17.916311   22.465178 H          1 MOL1         0.0736
      10    H4      20.892159   19.448187   23.167937 H          1 MOL1         0.0736
      11    C5      20.976372   19.457995   20.994854 C.3        1 MOL1        -0.1866
      12    H5      20.786732   18.760232   20.167369 H          1 MOL1         0.0738
      13    H6      20.279397   20.298173   20.868812 H          1 MOL1         0.0738
      14    C6      22.426176   19.975975   20.909471 C.3        1 MOL1        -0.2879
      15    H7      23.144408   19.150622   21.000928 H          1 MOL1         0.0750
      16    H8      22.602942   20.473850   19.947180 H          1 MOL1         0.0750
      17    H9      22.632299   20.700140   21.708555 H          1 MOL1         0.0750
@<TRIPOS>BOND
    1     1     2    1
    2     1     3    2
    3     1     4    1
    4     4     5    1
    5     4     6    2
    6     6     7    1
    7     6     8    1
    8     8     9    1
    9     8    10    1
   10     8    11    1
   11    11    12    1
   12    11    13    1
   13    11    14    1
   14    14    15    1
   15    14    16    1
   16    14    17    1
@<TRIPOS>SUBSTRUCTURE
       1 MOL1            1 RESIDUE      1      MOL     
@<SCITEGIC>MOL_PROPERTY
VConf Rank
SciTegic.value.IntegerValue
626

@<SCITEGIC>MOL_PROPERTY
Conf_Id
SciTegic.value.IntegerValue
1

@<SCITEGIC>MOL_PROPERTY
Delta U+W
SciTegic.value.DoubleValue
0.030

@<SCITEGIC>MOL_PROPERTY
U+W
SciTegic.value.DoubleValue
-53.378

@<SCITEGIC>MOL_PROPERTY
Grad RMS
SciTegic.value.DoubleValue
0.000000

@<SCITEGIC>MOL_PROPERTY
U
SciTegic.value.DoubleValue
9.048

@<SCITEGIC>MOL_PROPERTY
W
SciTegic.value.DoubleValue
-62.426

@<SCITEGIC>MOL_PROPERTY
W(PB)
SciTegic.value.DoubleValue
-64.506

@<SCITEGIC>MOL_PROPERTY
W(SA)
SciTegic.value.DoubleValue
2.080

@<SCITEGIC>MOL_PROPERTY
Valence
SciTegic.value.DoubleValue
2.652

@<SCITEGIC>MOL_PROPERTY
Coulomb
SciTegic.value.DoubleValue
5.578

@<SCITEGIC>MOL_PROPERTY
VdW
SciTegic.value.DoubleValue
0.818

@<SCITEGIC>MOL_PROPERTY
VdW6
SciTegic.value.DoubleValue
-4.535

@<SCITEGIC>MOL_PROPERTY
VdW12
SciTegic.value.DoubleValue
5.352

@<SCITEGIC>MOL_PROPERTY
Bond
SciTegic.value.DoubleValue
0.063

@<SCITEGIC>MOL_PROPERTY
Angle
SciTegic.value.DoubleValue
2.579

@<SCITEGIC>MOL_PROPERTY
Pdih
SciTegic.value.DoubleValue
0.010

@<SCITEGIC>MOL_PROPERTY
Idih
SciTegic.value.DoubleValue
0.000

@<SCITEGIC>MOL_PROPERTY
Tether
SciTegic.value.DoubleValue
0.000

@<TRIPOS>MOLECULE
guest-s19_confgen4.mol2 : confsearch ligand conformer 627
          17          16           1
SMALL
USER_CHARGES
 
@<TRIPOS>ATOM
       1    C1      23.059537   19.171285   22.533566 C.2        1 MOL1         0.6173
       2    O1      23.268934   20.363070   22.406119 O.co2      1 MOL1        -0.6755
       3    O2      23.859416   18.411740   23.044541 O.co2      1 MOL1        -0.6755
       4    C2      21.777189   18.593867   22.047496 C.2        1 MOL1        -0.1504
       5    H1      21.654140   17.522894   22.191143 H          1 MOL1         0.0814
       6    C3      20.798042   19.319658   21.461420 C.2        1 MOL1        -0.1394
       7    H2      20.909463   20.393868   21.315627 H          1 MOL1         0.0817
       8    C4      19.493736   18.725594   20.972657 C.3        1 MOL1        -0.1849
       9    H3      19.687592   17.757919   20.490421 H          1 MOL1         0.0736
      10    H4      19.056732   19.371125   20.198959 H          1 MOL1         0.0736
      11    C5      18.473975   18.526417   22.115451 C.3        1 MOL1        -0.1866
      12    H5      17.593670   17.998693   21.723374 H          1 MOL1         0.0738
      13    H6      18.907986   17.879810   22.890668 H          1 MOL1         0.0738
      14    C6      18.022788   19.861680   22.744909 C.3        1 MOL1        -0.2879
      15    H7      17.573733   20.519895   21.989761 H          1 MOL1         0.0750
      16    H8      17.274884   19.685492   23.528812 H          1 MOL1         0.0750
      17    H9      18.869739   20.390791   23.200910 H          1 MOL1         0.0750
@<TRIPOS>BOND
    1     1     2    1
    2     1     3    2
    3     1     4    1
    4     4     5    1
    5     4     6    2
    6     6     7    1
    7     6     8    1
    8     8     9    1
    9     8    10    1
   10     8    11    1
   11    11    12    1
   12    11    13    1
   13    11    14    1
   14    14    15    1
   15    14    16    1
   16    14    17    1
@<TRIPOS>SUBSTRUCTURE
       1 MOL1            1 RESIDUE      1      MOL     
@<SCITEGIC>MOL_PROPERTY
VConf Rank
SciTegic.value.IntegerValue
627

@<SCITEGIC>MOL_PROPERTY
Conf_Id
SciTegic.value.IntegerValue
3

@<SCITEGIC>MOL_PROPERTY
Delta U+W
SciTegic.value.DoubleValue
0.531

@<SCITEGIC>MOL_PROPERTY
U+W
SciTegic.value.DoubleValue
-52.878

@<SCITEGIC>MOL_PROPERTY
Grad RMS
SciTegic.value.DoubleValue
0.000000

@<SCITEGIC>MOL_PROPERTY
U
SciTegic.value.DoubleValue
10.067

@<SCITEGIC>MOL_PROPERTY
W
SciTegic.value.DoubleValue
-62.945

@<SCITEGIC>MOL_PROPERTY
W(PB)
SciTegic.value.DoubleValue
-64.982

@<SCITEGIC>MOL_PROPERTY
W(SA)
SciTegic.value.DoubleValue
2.037

@<SCITEGIC>MOL_PROPERTY
Valence
SciTegic.value.DoubleValue
2.779

@<SCITEGIC>MOL_PROPERTY
Coulomb
SciTegic.value.DoubleValue
6.474

@<SCITEGIC>MOL_PROPERTY
VdW
SciTegic.value.DoubleValue
0.815

@<SCITEGIC>MOL_PROPERTY
VdW6
SciTegic.value.DoubleValue
-5.088

@<SCITEGIC>MOL_PROPERTY
VdW12
SciTegic.value.DoubleValue
5.902

@<SCITEGIC>MOL_PROPERTY
Bond
SciTegic.value.DoubleValue
0.078

@<SCITEGIC>MOL_PROPERTY
Angle
SciTegic.value.DoubleValue
2.651

@<SCITEGIC>MOL_PROPERTY
Pdih
SciTegic.value.DoubleValue
0.050

@<SCITEGIC>MOL_PROPERTY
Idih
SciTegic.value.DoubleValue
0.000

@<SCITEGIC>MOL_PROPERTY
Tether
SciTegic.value.DoubleValue
0.000

@<TRIPOS>MOLECULE
guest-s19_confgen4.mol2 : confsearch ligand conformer 628
          17          16           1
SMALL
USER_CHARGES
 
@<TRIPOS>ATOM
       1    C1      19.149565   17.538226   24.525252 C.2        1 MOL1         0.6173
       2    O1      18.952662   16.345499   24.653361 O.co2      1 MOL1        -0.6755
       3    O2      18.697906   18.368162   25.291841 O.co2      1 MOL1        -0.6755
       4    C2      19.985055   17.977285   23.374924 C.2        1 MOL1        -0.1504
       5    H1      20.356724   17.184862   22.729451 H          1 MOL1         0.0814
       6    C3      20.282907   19.269800   23.109828 C.2        1 MOL1        -0.1394
       7    H2      19.911581   20.070247   23.749296 H          1 MOL1         0.0817
       8    C4      21.131479   19.713863   21.936341 C.3        1 MOL1        -0.1849
       9    H3      21.706612   18.868962   21.533722 H          1 MOL1         0.0736
      10    H4      21.870458   20.447272   22.285671 H          1 MOL1         0.0736
      11    C5      20.287582   20.350565   20.810457 C.3        1 MOL1        -0.1866
      12    H5      19.709901   21.194214   21.212949 H          1 MOL1         0.0738
      13    H6      20.961494   20.766642   20.048931 H          1 MOL1         0.0738
      14    C6      19.333402   19.339686   20.139268 C.3        1 MOL1        -0.2879
      15    H7      18.600970   18.949125   20.857642 H          1 MOL1         0.0750
      16    H8      18.779716   19.816611   19.320220 H          1 MOL1         0.0750
      17    H9      19.890865   18.490698   19.722678 H          1 MOL1         0.0750
@<TRIPOS>BOND
    1     1     2    1
    2     1     3    2
    3     1     4    1
    4     4     5    1
    5     4     6    2
    6     6     7    1
    7     6     8    1
    8     8     9    1
    9     8    10    1
   10     8    11    1
   11    11    12    1
   12    11    13    1
   13    11    14    1
   14    14    15    1
   15    14    16    1
   16    14    17    1
@<TRIPOS>SUBSTRUCTURE
       1 MOL1            1 RESIDUE      1      MOL     
@<SCITEGIC>MOL_PROPERTY
VConf Rank
SciTegic.value.IntegerValue
628

@<SCITEGIC>MOL_PROPERTY
Conf_Id
SciTegic.value.IntegerValue
45

@<SCITEGIC>MOL_PROPERTY
Delta U+W
SciTegic.value.DoubleValue
0.562

@<SCITEGIC>MOL_PROPERTY
U+W
SciTegic.value.DoubleValue
-52.846

@<SCITEGIC>MOL_PROPERTY
Grad RMS
SciTegic.value.DoubleValue
0.000000

@<SCITEGIC>MOL_PROPERTY
U
SciTegic.value.DoubleValue
10.243

@<SCITEGIC>MOL_PROPERTY
W
SciTegic.value.DoubleValue
-63.089

@<SCITEGIC>MOL_PROPERTY
W(PB)
SciTegic.value.DoubleValue
-65.116

@<SCITEGIC>MOL_PROPERTY
W(SA)
SciTegic.value.DoubleValue
2.026

@<SCITEGIC>MOL_PROPERTY
Valence
SciTegic.value.DoubleValue
2.822

@<SCITEGIC>MOL_PROPERTY
Coulomb
SciTegic.value.DoubleValue
6.637

@<SCITEGIC>MOL_PROPERTY
VdW
SciTegic.value.DoubleValue
0.785

@<SCITEGIC>MOL_PROPERTY
VdW6
SciTegic.value.DoubleValue
-5.216

@<SCITEGIC>MOL_PROPERTY
VdW12
SciTegic.value.DoubleValue
6.001

@<SCITEGIC>MOL_PROPERTY
Bond
SciTegic.value.DoubleValue
0.080

@<SCITEGIC>MOL_PROPERTY
Angle
SciTegic.value.DoubleValue
2.678

@<SCITEGIC>MOL_PROPERTY
Pdih
SciTegic.value.DoubleValue
0.064

@<SCITEGIC>MOL_PROPERTY
Idih
SciTegic.value.DoubleValue
0.000

@<SCITEGIC>MOL_PROPERTY
Tether
SciTegic.value.DoubleValue
0.000

@<TRIPOS>MOLECULE
guest-s19_confgen4.mol2 : confsearch ligand conformer 629
          17          16           1
SMALL
USER_CHARGES
 
@<TRIPOS>ATOM
       1    C1      19.218544   19.729072   18.687955 C.2        1 MOL1         0.6173
       2    O1      18.965364   20.786591   18.144580 O.co2      1 MOL1        -0.6755
       3    O2      19.006114   18.650684   18.166086 O.co2      1 MOL1        -0.6755
       4    C2      19.815178   19.781509   20.050101 C.2        1 MOL1        -0.1504
       5    H1      19.979152   20.776137   20.458435 H          1 MOL1         0.0814
       6    C3      20.145410   18.685914   20.771004 C.2        1 MOL1        -0.1394
       7    H2      19.983199   17.684602   20.372464 H          1 MOL1         0.0817
       8    C4      20.749830   18.747957   22.156669 C.3        1 MOL1        -0.1849
       9    H3      21.463883   19.580527   22.218019 H          1 MOL1         0.0736
      10    H4      21.322177   17.830598   22.349694 H          1 MOL1         0.0736
      11    C5      19.661933   18.914542   23.237290 C.3        1 MOL1        -0.1866
      12    H5      19.091032   19.834218   23.048007 H          1 MOL1         0.0738
      13    H6      18.950165   18.079614   23.175251 H          1 MOL1         0.0738
      14    C6      20.269206   18.969165   24.653539 C.3        1 MOL1        -0.2879
      15    H7      20.819693   18.046838   24.880934 H          1 MOL1         0.0750
      16    H8      20.962122   19.815162   24.751489 H          1 MOL1         0.0750
      17    H9      19.480749   19.087906   25.408102 H          1 MOL1         0.0750
@<TRIPOS>BOND
    1     1     2    1
    2     1     3    2
    3     1     4    1
    4     4     5    1
    5     4     6    2
    6     6     7    1
    7     6     8    1
    8     8     9    1
    9     8    10    1
   10     8    11    1
   11    11    12    1
   12    11    13    1
   13    11    14    1
   14    14    15    1
   15    14    16    1
   16    14    17    1
@<TRIPOS>SUBSTRUCTURE
       1 MOL1            1 RESIDUE      1      MOL     
@<SCITEGIC>MOL_PROPERTY
VConf Rank
SciTegic.value.IntegerValue
629

@<SCITEGIC>MOL_PROPERTY
Conf_Id
SciTegic.value.IntegerValue
36

@<SCITEGIC>MOL_PROPERTY
Delta U+W
SciTegic.value.DoubleValue
0.000

@<SCITEGIC>MOL_PROPERTY
U+W
SciTegic.value.DoubleValue
-53.409

@<SCITEGIC>MOL_PROPERTY
Grad RMS
SciTegic.value.DoubleValue
0.000000

@<SCITEGIC>MOL_PROPERTY
U
SciTegic.value.DoubleValue
9.048

@<SCITEGIC>MOL_PROPERTY
W
SciTegic.value.DoubleValue
-62.457

@<SCITEGIC>MOL_PROPERTY
W(PB)
SciTegic.value.DoubleValue
-64.540

@<SCITEGIC>MOL_PROPERTY
W(SA)
SciTegic.value.DoubleValue
2.084

@<SCITEGIC>MOL_PROPERTY
Valence
SciTegic.value.DoubleValue
2.652

@<SCITEGIC>MOL_PROPERTY
Coulomb
SciTegic.value.DoubleValue
5.578

@<SCITEGIC>MOL_PROPERTY
VdW
SciTegic.value.DoubleValue
0.818

@<SCITEGIC>MOL_PROPERTY
VdW6
SciTegic.value.DoubleValue
-4.534

@<SCITEGIC>MOL_PROPERTY
VdW12
SciTegic.value.DoubleValue
5.352

@<SCITEGIC>MOL_PROPERTY
Bond
SciTegic.value.DoubleValue
0.063

@<SCITEGIC>MOL_PROPERTY
Angle
SciTegic.value.DoubleValue
2.579

@<SCITEGIC>MOL_PROPERTY
Pdih
SciTegic.value.DoubleValue
0.010

@<SCITEGIC>MOL_PROPERTY
Idih
SciTegic.value.DoubleValue
0.000

@<SCITEGIC>MOL_PROPERTY
Tether
SciTegic.value.DoubleValue
0.000

@<TRIPOS>MOLECULE
guest-s19_confgen4.mol2 : confsearch ligand conformer 630
          17          16           1
SMALL
USER_CHARGES
 
@<TRIPOS>ATOM
       1    C1      20.657259   22.398525   22.111627 C.2        1 MOL1         0.6173
       2    O1      21.078266   22.609201   23.233573 O.co2      1 MOL1        -0.6755
       3    O2      20.349374   23.289473   21.344083 O.co2      1 MOL1        -0.6755
       4    C2      20.505138   20.997190   21.634885 C.2        1 MOL1        -0.1504
       5    H1      20.124160   20.878819   20.623078 H          1 MOL1         0.0814
       6    C3      20.807532   19.910276   22.380714 C.2        1 MOL1        -0.1394
       7    H2      21.187842   20.017358   23.396426 H          1 MOL1         0.0817
       8    C4      20.648128   18.488320   21.888911 C.3        1 MOL1        -0.1849
       9    H3      21.333439   17.829747   22.439382 H          1 MOL1         0.0736
      10    H4      20.934501   18.422720   20.830378 H          1 MOL1         0.0736
      11    C5      19.199147   17.990907   22.067940 C.3        1 MOL1        -0.1866
      12    H5      18.915796   18.055444   23.127711 H          1 MOL1         0.0738
      13    H6      18.512515   18.646407   21.514392 H          1 MOL1         0.0738
      14    C6      19.030484   16.538836   21.577463 C.3        1 MOL1        -0.2879
      15    H7      19.683725   15.856594   22.137152 H          1 MOL1         0.0750
      16    H8      17.994186   16.202822   21.712784 H          1 MOL1         0.0750
      17    H9      19.277999   16.453093   20.511245 H          1 MOL1         0.0750
@<TRIPOS>BOND
    1     1     2    1
    2     1     3    2
    3     1     4    1
    4     4     5    1
    5     4     6    2
    6     6     7    1
    7     6     8    1
    8     8     9    1
    9     8    10    1
   10     8    11    1
   11    11    12    1
   12    11    13    1
   13    11    14    1
   14    14    15    1
   15    14    16    1
   16    14    17    1
@<TRIPOS>SUBSTRUCTURE
       1 MOL1            1 RESIDUE      1      MOL     
@<SCITEGIC>MOL_PROPERTY
VConf Rank
SciTegic.value.IntegerValue
630

@<SCITEGIC>MOL_PROPERTY
Conf_Id
SciTegic.value.IntegerValue
1

@<SCITEGIC>MOL_PROPERTY
Delta U+W
SciTegic.value.DoubleValue
0.030

@<SCITEGIC>MOL_PROPERTY
U+W
SciTegic.value.DoubleValue
-53.378

@<SCITEGIC>MOL_PROPERTY
Grad RMS
SciTegic.value.DoubleValue
0.000000

@<SCITEGIC>MOL_PROPERTY
U
SciTegic.value.DoubleValue
9.048

@<SCITEGIC>MOL_PROPERTY
W
SciTegic.value.DoubleValue
-62.426

@<SCITEGIC>MOL_PROPERTY
W(PB)
SciTegic.value.DoubleValue
-64.506

@<SCITEGIC>MOL_PROPERTY
W(SA)
SciTegic.value.DoubleValue
2.080

@<SCITEGIC>MOL_PROPERTY
Valence
SciTegic.value.DoubleValue
2.652

@<SCITEGIC>MOL_PROPERTY
Coulomb
SciTegic.value.DoubleValue
5.578

@<SCITEGIC>MOL_PROPERTY
VdW
SciTegic.value.DoubleValue
0.818

@<SCITEGIC>MOL_PROPERTY
VdW6
SciTegic.value.DoubleValue
-4.535

@<SCITEGIC>MOL_PROPERTY
VdW12
SciTegic.value.DoubleValue
5.352

@<SCITEGIC>MOL_PROPERTY
Bond
SciTegic.value.DoubleValue
0.063

@<SCITEGIC>MOL_PROPERTY
Angle
SciTegic.value.DoubleValue
2.579

@<SCITEGIC>MOL_PROPERTY
Pdih
SciTegic.value.DoubleValue
0.010

@<SCITEGIC>MOL_PROPERTY
Idih
SciTegic.value.DoubleValue
0.000

@<SCITEGIC>MOL_PROPERTY
Tether
SciTegic.value.DoubleValue
0.000

@<TRIPOS>MOLECULE
guest-s19_confgen4.mol2 : confsearch ligand conformer 631
          17          16           1
SMALL
USER_CHARGES
 
@<TRIPOS>ATOM
       1    C1      20.055118   20.755787   19.458678 C.2        1 MOL1         0.6173
       2    O1      20.628031   19.985554   18.711046 O.co2      1 MOL1        -0.6755
       3    O2      19.432983   21.721469   19.060911 O.co2      1 MOL1        -0.6755
       4    C2      20.106481   20.529044   20.928386 C.2        1 MOL1        -0.1504
       5    H1      19.574511   21.254501   21.539517 H          1 MOL1         0.0814
       6    C3      20.759102   19.496777   21.509330 C.2        1 MOL1        -0.1394
       7    H2      21.292467   18.762258   20.906336 H          1 MOL1         0.0817
       8    C4      20.803746   19.270248   23.005894 C.3        1 MOL1        -0.1849
       9    H3      20.933281   20.232096   23.520283 H          1 MOL1         0.0736
      10    H4      21.681903   18.663702   23.265189 H          1 MOL1         0.0736
      11    C5      19.526240   18.581575   23.534356 C.3        1 MOL1        -0.1866
      12    H5      19.568644   18.539234   24.631426 H          1 MOL1         0.0738
      13    H6      18.645852   19.186849   23.277475 H          1 MOL1         0.0738
      14    C6      19.353231   17.151139   22.980612 C.3        1 MOL1        -0.2879
      15    H7      20.216987   16.523811   23.236600 H          1 MOL1         0.0750
      16    H8      18.455614   16.680242   23.401857 H          1 MOL1         0.0750
      17    H9      19.247365   17.159511   21.887935 H          1 MOL1         0.0750
@<TRIPOS>BOND
    1     1     2    1
    2     1     3    2
    3     1     4    1
    4     4     5    1
    5     4     6    2
    6     6     7    1
    7     6     8    1
    8     8     9    1
    9     8    10    1
   10     8    11    1
   11    11    12    1
   12    11    13    1
   13    11    14    1
   14    14    15    1
   15    14    16    1
   16    14    17    1
@<TRIPOS>SUBSTRUCTURE
       1 MOL1            1 RESIDUE      1      MOL     
@<SCITEGIC>MOL_PROPERTY
VConf Rank
SciTegic.value.IntegerValue
631

@<SCITEGIC>MOL_PROPERTY
Conf_Id
SciTegic.value.IntegerValue
3

@<SCITEGIC>MOL_PROPERTY
Delta U+W
SciTegic.value.DoubleValue
0.531

@<SCITEGIC>MOL_PROPERTY
U+W
SciTegic.value.DoubleValue
-52.878

@<SCITEGIC>MOL_PROPERTY
Grad RMS
SciTegic.value.DoubleValue
0.000000

@<SCITEGIC>MOL_PROPERTY
U
SciTegic.value.DoubleValue
10.067

@<SCITEGIC>MOL_PROPERTY
W
SciTegic.value.DoubleValue
-62.945

@<SCITEGIC>MOL_PROPERTY
W(PB)
SciTegic.value.DoubleValue
-64.982

@<SCITEGIC>MOL_PROPERTY
W(SA)
SciTegic.value.DoubleValue
2.037

@<SCITEGIC>MOL_PROPERTY
Valence
SciTegic.value.DoubleValue
2.779

@<SCITEGIC>MOL_PROPERTY
Coulomb
SciTegic.value.DoubleValue
6.474

@<SCITEGIC>MOL_PROPERTY
VdW
SciTegic.value.DoubleValue
0.815

@<SCITEGIC>MOL_PROPERTY
VdW6
SciTegic.value.DoubleValue
-5.088

@<SCITEGIC>MOL_PROPERTY
VdW12
SciTegic.value.DoubleValue
5.902

@<SCITEGIC>MOL_PROPERTY
Bond
SciTegic.value.DoubleValue
0.078

@<SCITEGIC>MOL_PROPERTY
Angle
SciTegic.value.DoubleValue
2.651

@<SCITEGIC>MOL_PROPERTY
Pdih
SciTegic.value.DoubleValue
0.050

@<SCITEGIC>MOL_PROPERTY
Idih
SciTegic.value.DoubleValue
0.000

@<SCITEGIC>MOL_PROPERTY
Tether
SciTegic.value.DoubleValue
0.000

@<TRIPOS>MOLECULE
guest-s19_confgen4.mol2 : confsearch ligand conformer 632
          17          16           1
SMALL
USER_CHARGES
 
@<TRIPOS>ATOM
       1    C1      21.695973   16.951484   20.831856 C.2        1 MOL1         0.6173
       2    O1      21.405653   15.814706   20.513688 O.co2      1 MOL1        -0.6755
       3    O2      22.841949   17.309893   21.028657 O.co2      1 MOL1        -0.6755
       4    C2      20.584211   17.929663   20.977534 C.2        1 MOL1        -0.1504
       5    H1      19.585454   17.543696   20.787215 H          1 MOL1         0.0814
       6    C3      20.760528   19.224202   21.327772 C.2        1 MOL1        -0.1394
       7    H2      21.757451   19.618186   21.523828 H          1 MOL1         0.0817
       8    C4      19.626411   20.216955   21.477958 C.3        1 MOL1        -0.1849
       9    H3      18.719905   19.846229   20.980414 H          1 MOL1         0.0736
      10    H4      19.896349   21.149715   20.965025 H          1 MOL1         0.0736
      11    C5      19.314593   20.531221   22.957543 C.3        1 MOL1        -0.1866
      12    H5      20.221557   20.899642   23.456684 H          1 MOL1         0.0738
      13    H6      18.578334   21.345470   23.003587 H          1 MOL1         0.0738
      14    C6      18.760869   19.308843   23.720441 C.3        1 MOL1        -0.2879
      15    H7      19.496546   18.494675   23.751452 H          1 MOL1         0.0750
      16    H8      18.514391   19.578911   24.755419 H          1 MOL1         0.0750
      17    H9      17.848704   18.928231   23.242756 H          1 MOL1         0.0750
@<TRIPOS>BOND
    1     1     2    1
    2     1     3    2
    3     1     4    1
    4     4     5    1
    5     4     6    2
    6     6     7    1
    7     6     8    1
    8     8     9    1
    9     8    10    1
   10     8    11    1
   11    11    12    1
   12    11    13    1
   13    11    14    1
   14    14    15    1
   15    14    16    1
   16    14    17    1
@<TRIPOS>SUBSTRUCTURE
       1 MOL1            1 RESIDUE      1      MOL     
@<SCITEGIC>MOL_PROPERTY
VConf Rank
SciTegic.value.IntegerValue
632

@<SCITEGIC>MOL_PROPERTY
Conf_Id
SciTegic.value.IntegerValue
45

@<SCITEGIC>MOL_PROPERTY
Delta U+W
SciTegic.value.DoubleValue
0.562

@<SCITEGIC>MOL_PROPERTY
U+W
SciTegic.value.DoubleValue
-52.846

@<SCITEGIC>MOL_PROPERTY
Grad RMS
SciTegic.value.DoubleValue
0.000000

@<SCITEGIC>MOL_PROPERTY
U
SciTegic.value.DoubleValue
10.243

@<SCITEGIC>MOL_PROPERTY
W
SciTegic.value.DoubleValue
-63.089

@<SCITEGIC>MOL_PROPERTY
W(PB)
SciTegic.value.DoubleValue
-65.116

@<SCITEGIC>MOL_PROPERTY
W(SA)
SciTegic.value.DoubleValue
2.026

@<SCITEGIC>MOL_PROPERTY
Valence
SciTegic.value.DoubleValue
2.822

@<SCITEGIC>MOL_PROPERTY
Coulomb
SciTegic.value.DoubleValue
6.637

@<SCITEGIC>MOL_PROPERTY
VdW
SciTegic.value.DoubleValue
0.785

@<SCITEGIC>MOL_PROPERTY
VdW6
SciTegic.value.DoubleValue
-5.216

@<SCITEGIC>MOL_PROPERTY
VdW12
SciTegic.value.DoubleValue
6.001

@<SCITEGIC>MOL_PROPERTY
Bond
SciTegic.value.DoubleValue
0.080

@<SCITEGIC>MOL_PROPERTY
Angle
SciTegic.value.DoubleValue
2.678

@<SCITEGIC>MOL_PROPERTY
Pdih
SciTegic.value.DoubleValue
0.064

@<SCITEGIC>MOL_PROPERTY
Idih
SciTegic.value.DoubleValue
0.000

@<SCITEGIC>MOL_PROPERTY
Tether
SciTegic.value.DoubleValue
0.000

@<TRIPOS>MOLECULE
guest-s19_confgen4.mol2 : confsearch ligand conformer 633
          17          16           1
SMALL
USER_CHARGES
 
@<TRIPOS>ATOM
       1    C1      17.576877   20.734716   23.623721 C.2        1 MOL1         0.6173
       2    O1      16.396217   20.464882   23.728296 O.co2      1 MOL1        -0.6755
       3    O2      18.041987   21.806894   23.962100 O.co2      1 MOL1        -0.6755
       4    C2      18.472866   19.691405   23.055507 C.2        1 MOL1        -0.1504
       5    H1      17.993742   18.756595   22.773586 H          1 MOL1         0.0814
       6    C3      19.804032   19.854630   22.881037 C.2        1 MOL1        -0.1394
       7    H2      20.293908   20.787992   23.157859 H          1 MOL1         0.0817
       8    C4      20.707866   18.789193   22.300375 C.3        1 MOL1        -0.1849
       9    H3      20.402064   17.798519   22.663500 H          1 MOL1         0.0736
      10    H4      21.736167   18.947310   22.652488 H          1 MOL1         0.0736
      11    C5      20.681520   18.809307   20.758326 C.3        1 MOL1        -0.1866
      12    H5      19.653954   18.647037   20.404295 H          1 MOL1         0.0738
      13    H6      20.989698   19.800473   20.397517 H          1 MOL1         0.0738
      14    C6      21.607646   17.732254   20.158514 C.3        1 MOL1        -0.2879
      15    H7      22.648129   17.890052   20.471444 H          1 MOL1         0.0750
      16    H8      21.301520   16.727904   20.479456 H          1 MOL1         0.0750
      17    H9      21.575559   17.761873   19.061598 H          1 MOL1         0.0750
@<TRIPOS>BOND
    1     1     2    1
    2     1     3    2
    3     1     4    1
    4     4     5    1
    5     4     6    2
    6     6     7    1
    7     6     8    1
    8     8     9    1
    9     8    10    1
   10     8    11    1
   11    11    12    1
   12    11    13    1
   13    11    14    1
   14    14    15    1
   15    14    16    1
   16    14    17    1
@<TRIPOS>SUBSTRUCTURE
       1 MOL1            1 RESIDUE      1      MOL     
@<SCITEGIC>MOL_PROPERTY
VConf Rank
SciTegic.value.IntegerValue
633

@<SCITEGIC>MOL_PROPERTY
Conf_Id
SciTegic.value.IntegerValue
36

@<SCITEGIC>MOL_PROPERTY
Delta U+W
SciTegic.value.DoubleValue
0.000

@<SCITEGIC>MOL_PROPERTY
U+W
SciTegic.value.DoubleValue
-53.409

@<SCITEGIC>MOL_PROPERTY
Grad RMS
SciTegic.value.DoubleValue
0.000000

@<SCITEGIC>MOL_PROPERTY
U
SciTegic.value.DoubleValue
9.048

@<SCITEGIC>MOL_PROPERTY
W
SciTegic.value.DoubleValue
-62.457

@<SCITEGIC>MOL_PROPERTY
W(PB)
SciTegic.value.DoubleValue
-64.540

@<SCITEGIC>MOL_PROPERTY
W(SA)
SciTegic.value.DoubleValue
2.084

@<SCITEGIC>MOL_PROPERTY
Valence
SciTegic.value.DoubleValue
2.652

@<SCITEGIC>MOL_PROPERTY
Coulomb
SciTegic.value.DoubleValue
5.578

@<SCITEGIC>MOL_PROPERTY
VdW
SciTegic.value.DoubleValue
0.818

@<SCITEGIC>MOL_PROPERTY
VdW6
SciTegic.value.DoubleValue
-4.534

@<SCITEGIC>MOL_PROPERTY
VdW12
SciTegic.value.DoubleValue
5.352

@<SCITEGIC>MOL_PROPERTY
Bond
SciTegic.value.DoubleValue
0.063

@<SCITEGIC>MOL_PROPERTY
Angle
SciTegic.value.DoubleValue
2.579

@<SCITEGIC>MOL_PROPERTY
Pdih
SciTegic.value.DoubleValue
0.010

@<SCITEGIC>MOL_PROPERTY
Idih
SciTegic.value.DoubleValue
0.000

@<SCITEGIC>MOL_PROPERTY
Tether
SciTegic.value.DoubleValue
0.000

@<TRIPOS>MOLECULE
guest-s19_confgen4.mol2 : confsearch ligand conformer 634
          17          16           1
SMALL
USER_CHARGES
 
@<TRIPOS>ATOM
       1    C1      20.332675   22.401251   22.490994 C.2        1 MOL1         0.6173
       2    O1      19.670597   22.651809   23.480572 O.co2      1 MOL1        -0.6755
       3    O2      20.807472   23.264269   21.778622 O.co2      1 MOL1        -0.6755
       4    C2      20.587237   20.983781   22.116640 C.2        1 MOL1        -0.1504
       5    H1      21.185875   20.829397   21.221818 H          1 MOL1         0.0814
       6    C3      20.120608   19.924147   22.815583 C.2        1 MOL1        -0.1394
       7    H2      19.518039   20.067396   23.712335 H          1 MOL1         0.0817
       8    C4      20.382535   18.485539   22.426947 C.3        1 MOL1        -0.1849
       9    H3      20.310867   17.845336   23.316549 H          1 MOL1         0.0736
      10    H4      21.408069   18.379755   22.047609 H          1 MOL1         0.0736
      11    C5      19.380161   18.000321   21.359788 C.3        1 MOL1        -0.1866
      12    H5      18.355340   18.105077   21.742324 H          1 MOL1         0.0738
      13    H6      19.453469   18.637343   20.467382 H          1 MOL1         0.0738
      14    C6      19.634668   16.531701   20.964937 C.3        1 MOL1        -0.2879
      15    H7      19.536127   15.868302   21.834203 H          1 MOL1         0.0750
      16    H8      18.912489   16.204664   20.205572 H          1 MOL1         0.0750
      17    H9      20.643262   16.405643   20.549869 H          1 MOL1         0.0750
@<TRIPOS>BOND
    1     1     2    1
    2     1     3    2
    3     1     4    1
    4     4     5    1
    5     4     6    2
    6     6     7    1
    7     6     8    1
    8     8     9    1
    9     8    10    1
   10     8    11    1
   11    11    12    1
   12    11    13    1
   13    11    14    1
   14    14    15    1
   15    14    16    1
   16    14    17    1
@<TRIPOS>SUBSTRUCTURE
       1 MOL1            1 RESIDUE      1      MOL     
@<SCITEGIC>MOL_PROPERTY
VConf Rank
SciTegic.value.IntegerValue
634

@<SCITEGIC>MOL_PROPERTY
Conf_Id
SciTegic.value.IntegerValue
1

@<SCITEGIC>MOL_PROPERTY
Delta U+W
SciTegic.value.DoubleValue
0.030

@<SCITEGIC>MOL_PROPERTY
U+W
SciTegic.value.DoubleValue
-53.378

@<SCITEGIC>MOL_PROPERTY
Grad RMS
SciTegic.value.DoubleValue
0.000000

@<SCITEGIC>MOL_PROPERTY
U
SciTegic.value.DoubleValue
9.048

@<SCITEGIC>MOL_PROPERTY
W
SciTegic.value.DoubleValue
-62.426

@<SCITEGIC>MOL_PROPERTY
W(PB)
SciTegic.value.DoubleValue
-64.506

@<SCITEGIC>MOL_PROPERTY
W(SA)
SciTegic.value.DoubleValue
2.080

@<SCITEGIC>MOL_PROPERTY
Valence
SciTegic.value.DoubleValue
2.652

@<SCITEGIC>MOL_PROPERTY
Coulomb
SciTegic.value.DoubleValue
5.578

@<SCITEGIC>MOL_PROPERTY
VdW
SciTegic.value.DoubleValue
0.818

@<SCITEGIC>MOL_PROPERTY
VdW6
SciTegic.value.DoubleValue
-4.535

@<SCITEGIC>MOL_PROPERTY
VdW12
SciTegic.value.DoubleValue
5.352

@<SCITEGIC>MOL_PROPERTY
Bond
SciTegic.value.DoubleValue
0.063

@<SCITEGIC>MOL_PROPERTY
Angle
SciTegic.value.DoubleValue
2.579

@<SCITEGIC>MOL_PROPERTY
Pdih
SciTegic.value.DoubleValue
0.010

@<SCITEGIC>MOL_PROPERTY
Idih
SciTegic.value.DoubleValue
0.000

@<SCITEGIC>MOL_PROPERTY
Tether
SciTegic.value.DoubleValue
0.000

@<TRIPOS>MOLECULE
guest-s19_confgen4.mol2 : confsearch ligand conformer 635
          17          16           1
SMALL
USER_CHARGES
 
@<TRIPOS>ATOM
       1    C1      18.180249   17.461610   23.916728 C.2        1 MOL1         0.6173
       2    O1      19.011014   16.871490   24.581580 O.co2      1 MOL1        -0.6755
       3    O2      17.012241   17.545500   24.243116 O.co2      1 MOL1        -0.6755
       4    C2      18.586468   18.114356   22.642757 C.2        1 MOL1        -0.1504
       5    H1      17.795534   18.623656   22.097048 H          1 MOL1         0.0814
       6    C3      19.849320   18.102226   22.158978 C.2        1 MOL1        -0.1394
       7    H2      20.650104   17.597834   22.699286 H          1 MOL1         0.0817
       8    C4      20.256113   18.772202   20.863344 C.3        1 MOL1        -0.1849
       9    H3      19.480724   18.605728   20.103354 H          1 MOL1         0.0736
      10    H4      21.171394   18.306384   20.474027 H          1 MOL1         0.0736
      11    C5      20.481354   20.290820   21.032539 C.3        1 MOL1        -0.1866
      12    H5      20.669206   20.738088   20.046732 H          1 MOL1         0.0738
      13    H6      19.566713   20.759951   21.420836 H          1 MOL1         0.0738
      14    C6      21.667404   20.612357   21.966677 C.3        1 MOL1        -0.2879
      15    H7      22.596088   20.163422   21.590980 H          1 MOL1         0.0750
      16    H8      21.819765   21.697107   22.037465 H          1 MOL1         0.0750
      17    H9      21.487865   20.231068   22.980385 H          1 MOL1         0.0750
@<TRIPOS>BOND
    1     1     2    1
    2     1     3    2
    3     1     4    1
    4     4     5    1
    5     4     6    2
    6     6     7    1
    7     6     8    1
    8     8     9    1
    9     8    10    1
   10     8    11    1
   11    11    12    1
   12    11    13    1
   13    11    14    1
   14    14    15    1
   15    14    16    1
   16    14    17    1
@<TRIPOS>SUBSTRUCTURE
       1 MOL1            1 RESIDUE      1      MOL     
@<SCITEGIC>MOL_PROPERTY
VConf Rank
SciTegic.value.IntegerValue
635

@<SCITEGIC>MOL_PROPERTY
Conf_Id
SciTegic.value.IntegerValue
3

@<SCITEGIC>MOL_PROPERTY
Delta U+W
SciTegic.value.DoubleValue
0.531

@<SCITEGIC>MOL_PROPERTY
U+W
SciTegic.value.DoubleValue
-52.878

@<SCITEGIC>MOL_PROPERTY
Grad RMS
SciTegic.value.DoubleValue
0.000000

@<SCITEGIC>MOL_PROPERTY
U
SciTegic.value.DoubleValue
10.067

@<SCITEGIC>MOL_PROPERTY
W
SciTegic.value.DoubleValue
-62.945

@<SCITEGIC>MOL_PROPERTY
W(PB)
SciTegic.value.DoubleValue
-64.982

@<SCITEGIC>MOL_PROPERTY
W(SA)
SciTegic.value.DoubleValue
2.037

@<SCITEGIC>MOL_PROPERTY
Valence
SciTegic.value.DoubleValue
2.779

@<SCITEGIC>MOL_PROPERTY
Coulomb
SciTegic.value.DoubleValue
6.474

@<SCITEGIC>MOL_PROPERTY
VdW
SciTegic.value.DoubleValue
0.815

@<SCITEGIC>MOL_PROPERTY
VdW6
SciTegic.value.DoubleValue
-5.088

@<SCITEGIC>MOL_PROPERTY
VdW12
SciTegic.value.DoubleValue
5.902

@<SCITEGIC>MOL_PROPERTY
Bond
SciTegic.value.DoubleValue
0.078

@<SCITEGIC>MOL_PROPERTY
Angle
SciTegic.value.DoubleValue
2.651

@<SCITEGIC>MOL_PROPERTY
Pdih
SciTegic.value.DoubleValue
0.050

@<SCITEGIC>MOL_PROPERTY
Idih
SciTegic.value.DoubleValue
0.000

@<SCITEGIC>MOL_PROPERTY
Tether
SciTegic.value.DoubleValue
0.000

@<TRIPOS>MOLECULE
guest-s19_confgen4.mol2 : confsearch ligand conformer 636
          17          16           1
SMALL
USER_CHARGES
 
@<TRIPOS>ATOM
       1    C1      18.983831   19.656221   24.873355 C.2        1 MOL1         0.6173
       2    O1      19.305190   20.535649   25.648671 O.co2      1 MOL1        -0.6755
       3    O2      18.450676   18.622725   25.231239 O.co2      1 MOL1        -0.6755
       4    C2      19.262157   19.878133   23.428585 C.2        1 MOL1        -0.1504
       5    H1      19.739990   20.822269   23.177609 H          1 MOL1         0.0814
       6    C3      18.960994   18.986069   22.457447 C.2        1 MOL1        -0.1394
       7    H2      18.485520   18.036157   22.700573 H          1 MOL1         0.0817
       8    C4      19.248101   19.213684   20.987720 C.3        1 MOL1        -0.1849
       9    H3      19.433186   20.278387   20.790515 H          1 MOL1         0.0736
      10    H4      18.358184   18.945156   20.402955 H          1 MOL1         0.0736
      11    C5      20.446618   18.377465   20.488259 C.3        1 MOL1        -0.1866
      12    H5      20.263449   17.312479   20.687542 H          1 MOL1         0.0738
      13    H6      20.527780   18.483178   19.397646 H          1 MOL1         0.0738
      14    C6      21.780783   18.806025   21.135691 C.3        1 MOL1        -0.2879
      15    H7      21.760692   18.653468   22.222603 H          1 MOL1         0.0750
      16    H8      22.613695   18.218065   20.728964 H          1 MOL1         0.0750
      17    H9      21.988032   19.866591   20.942456 H          1 MOL1         0.0750
@<TRIPOS>BOND
    1     1     2    1
    2     1     3    2
    3     1     4    1
    4     4     5    1
    5     4     6    2
    6     6     7    1
    7     6     8    1
    8     8     9    1
    9     8    10    1
   10     8    11    1
   11    11    12    1
   12    11    13    1
   13    11    14    1
   14    14    15    1
   15    14    16    1
   16    14    17    1
@<TRIPOS>SUBSTRUCTURE
       1 MOL1            1 RESIDUE      1      MOL     
@<SCITEGIC>MOL_PROPERTY
VConf Rank
SciTegic.value.IntegerValue
636

@<SCITEGIC>MOL_PROPERTY
Conf_Id
SciTegic.value.IntegerValue
45

@<SCITEGIC>MOL_PROPERTY
Delta U+W
SciTegic.value.DoubleValue
0.562

@<SCITEGIC>MOL_PROPERTY
U+W
SciTegic.value.DoubleValue
-52.846

@<SCITEGIC>MOL_PROPERTY
Grad RMS
SciTegic.value.DoubleValue
0.000000

@<SCITEGIC>MOL_PROPERTY
U
SciTegic.value.DoubleValue
10.243

@<SCITEGIC>MOL_PROPERTY
W
SciTegic.value.DoubleValue
-63.089

@<SCITEGIC>MOL_PROPERTY
W(PB)
SciTegic.value.DoubleValue
-65.116

@<SCITEGIC>MOL_PROPERTY
W(SA)
SciTegic.value.DoubleValue
2.026

@<SCITEGIC>MOL_PROPERTY
Valence
SciTegic.value.DoubleValue
2.822

@<SCITEGIC>MOL_PROPERTY
Coulomb
SciTegic.value.DoubleValue
6.637

@<SCITEGIC>MOL_PROPERTY
VdW
SciTegic.value.DoubleValue
0.785

@<SCITEGIC>MOL_PROPERTY
VdW6
SciTegic.value.DoubleValue
-5.216

@<SCITEGIC>MOL_PROPERTY
VdW12
SciTegic.value.DoubleValue
6.001

@<SCITEGIC>MOL_PROPERTY
Bond
SciTegic.value.DoubleValue
0.080

@<SCITEGIC>MOL_PROPERTY
Angle
SciTegic.value.DoubleValue
2.678

@<SCITEGIC>MOL_PROPERTY
Pdih
SciTegic.value.DoubleValue
0.064

@<SCITEGIC>MOL_PROPERTY
Idih
SciTegic.value.DoubleValue
0.000

@<SCITEGIC>MOL_PROPERTY
Tether
SciTegic.value.DoubleValue
0.000

@<TRIPOS>MOLECULE
guest-s19_confgen4.mol2 : confsearch ligand conformer 637
          17          16           1
SMALL
USER_CHARGES
 
@<TRIPOS>ATOM
       1    C1      17.937401   19.357478   19.249987 C.2        1 MOL1         0.6173
       2    O1      17.029872   20.140222   19.046500 O.co2      1 MOL1        -0.6755
       3    O2      18.106276   18.353941   18.583062 O.co2      1 MOL1        -0.6755
       4    C2      18.870436   19.662262   20.368341 C.2        1 MOL1        -0.1504
       5    H1      18.663326   20.573907   20.924144 H          1 MOL1         0.0814
       6    C3      19.920789   18.880869   20.707851 C.2        1 MOL1        -0.1394
       7    H2      20.136012   17.964098   20.159231 H          1 MOL1         0.0817
       8    C4      20.863702   19.196939   21.848137 C.3        1 MOL1        -0.1849
       9    H3      21.052629   20.278290   21.890521 H          1 MOL1         0.0736
      10    H4      21.834758   18.716996   21.666224 H          1 MOL1         0.0736
      11    C5      20.294457   18.714676   23.198099 C.3        1 MOL1        -0.1866
      12    H5      19.324756   19.197193   23.383619 H          1 MOL1         0.0738
      13    H6      20.108257   17.632574   23.153914 H          1 MOL1         0.0738
      14    C6      21.254057   19.024713   24.364534 C.3        1 MOL1        -0.2879
      15    H7      22.222179   18.527517   24.219736 H          1 MOL1         0.0750
      16    H8      21.432494   20.104664   24.449982 H          1 MOL1         0.0750
      17    H9      20.832350   18.674697   25.315735 H          1 MOL1         0.0750
@<TRIPOS>BOND
    1     1     2    1
    2     1     3    2
    3     1     4    1
    4     4     5    1
    5     4     6    2
    6     6     7    1
    7     6     8    1
    8     8     9    1
    9     8    10    1
   10     8    11    1
   11    11    12    1
   12    11    13    1
   13    11    14    1
   14    14    15    1
   15    14    16    1
   16    14    17    1
@<TRIPOS>SUBSTRUCTURE
       1 MOL1            1 RESIDUE      1      MOL     
@<SCITEGIC>MOL_PROPERTY
VConf Rank
SciTegic.value.IntegerValue
637

@<SCITEGIC>MOL_PROPERTY
Conf_Id
SciTegic.value.IntegerValue
36

@<SCITEGIC>MOL_PROPERTY
Delta U+W
SciTegic.value.DoubleValue
0.000

@<SCITEGIC>MOL_PROPERTY
U+W
SciTegic.value.DoubleValue
-53.409

@<SCITEGIC>MOL_PROPERTY
Grad RMS
SciTegic.value.DoubleValue
0.000000

@<SCITEGIC>MOL_PROPERTY
U
SciTegic.value.DoubleValue
9.048

@<SCITEGIC>MOL_PROPERTY
W
SciTegic.value.DoubleValue
-62.457

@<SCITEGIC>MOL_PROPERTY
W(PB)
SciTegic.value.DoubleValue
-64.540

@<SCITEGIC>MOL_PROPERTY
W(SA)
SciTegic.value.DoubleValue
2.084

@<SCITEGIC>MOL_PROPERTY
Valence
SciTegic.value.DoubleValue
2.652

@<SCITEGIC>MOL_PROPERTY
Coulomb
SciTegic.value.DoubleValue
5.578

@<SCITEGIC>MOL_PROPERTY
VdW
SciTegic.value.DoubleValue
0.818

@<SCITEGIC>MOL_PROPERTY
VdW6
SciTegic.value.DoubleValue
-4.534

@<SCITEGIC>MOL_PROPERTY
VdW12
SciTegic.value.DoubleValue
5.352

@<SCITEGIC>MOL_PROPERTY
Bond
SciTegic.value.DoubleValue
0.063

@<SCITEGIC>MOL_PROPERTY
Angle
SciTegic.value.DoubleValue
2.579

@<SCITEGIC>MOL_PROPERTY
Pdih
SciTegic.value.DoubleValue
0.010

@<SCITEGIC>MOL_PROPERTY
Idih
SciTegic.value.DoubleValue
0.000

@<SCITEGIC>MOL_PROPERTY
Tether
SciTegic.value.DoubleValue
0.000

@<TRIPOS>MOLECULE
guest-s19_confgen4.mol2 : confsearch ligand conformer 638
          17          16           1
SMALL
USER_CHARGES
 
@<TRIPOS>ATOM
       1    C1      21.016843   20.099099   24.973098 C.2        1 MOL1         0.6173
       2    O1      20.086977   20.709826   25.465799 O.co2      1 MOL1        -0.6755
       3    O2      22.130478   20.086690   25.460303 O.co2      1 MOL1        -0.6755
       4    C2      20.805945   19.324828   23.720026 C.2        1 MOL1        -0.1504
       5    H1      21.677529   18.802062   23.332772 H          1 MOL1         0.0814
       6    C3      19.622339   19.250880   23.069876 C.2        1 MOL1        -0.1394
       7    H2      18.743247   19.772494   23.447885 H          1 MOL1         0.0817
       8    C4      19.416779   18.462637   21.794863 C.3        1 MOL1        -0.1849
       9    H3      18.358654   18.183192   21.701752 H          1 MOL1         0.0736
      10    H4      19.985339   17.523658   21.838039 H          1 MOL1         0.0736
      11    C5      19.846917   19.275130   20.556375 C.3        1 MOL1        -0.1866
      12    H5      19.275367   20.212743   20.514195 H          1 MOL1         0.0738
      13    H6      20.906557   19.552052   20.646023 H          1 MOL1         0.0738
      14    C6      19.631829   18.481967   19.251708 C.3        1 MOL1        -0.2879
      15    H7      18.573778   18.219372   19.121317 H          1 MOL1         0.0750
      16    H8      19.943181   19.075650   18.382380 H          1 MOL1         0.0750
      17    H9      20.217734   17.553453   19.255332 H          1 MOL1         0.0750
@<TRIPOS>BOND
    1     1     2    1
    2     1     3    2
    3     1     4    1
    4     4     5    1
    5     4     6    2
    6     6     7    1
    7     6     8    1
    8     8     9    1
    9     8    10    1
   10     8    11    1
   11    11    12    1
   12    11    13    1
   13    11    14    1
   14    14    15    1
   15    14    16    1
   16    14    17    1
@<TRIPOS>SUBSTRUCTURE
       1 MOL1            1 RESIDUE      1      MOL     
@<SCITEGIC>MOL_PROPERTY
VConf Rank
SciTegic.value.IntegerValue
638

@<SCITEGIC>MOL_PROPERTY
Conf_Id
SciTegic.value.IntegerValue
1

@<SCITEGIC>MOL_PROPERTY
Delta U+W
SciTegic.value.DoubleValue
0.030

@<SCITEGIC>MOL_PROPERTY
U+W
SciTegic.value.DoubleValue
-53.378

@<SCITEGIC>MOL_PROPERTY
Grad RMS
SciTegic.value.DoubleValue
0.000000

@<SCITEGIC>MOL_PROPERTY
U
SciTegic.value.DoubleValue
9.048

@<SCITEGIC>MOL_PROPERTY
W
SciTegic.value.DoubleValue
-62.426

@<SCITEGIC>MOL_PROPERTY
W(PB)
SciTegic.value.DoubleValue
-64.506

@<SCITEGIC>MOL_PROPERTY
W(SA)
SciTegic.value.DoubleValue
2.080

@<SCITEGIC>MOL_PROPERTY
Valence
SciTegic.value.DoubleValue
2.652

@<SCITEGIC>MOL_PROPERTY
Coulomb
SciTegic.value.DoubleValue
5.578

@<SCITEGIC>MOL_PROPERTY
VdW
SciTegic.value.DoubleValue
0.818

@<SCITEGIC>MOL_PROPERTY
VdW6
SciTegic.value.DoubleValue
-4.535

@<SCITEGIC>MOL_PROPERTY
VdW12
SciTegic.value.DoubleValue
5.352

@<SCITEGIC>MOL_PROPERTY
Bond
SciTegic.value.DoubleValue
0.063

@<SCITEGIC>MOL_PROPERTY
Angle
SciTegic.value.DoubleValue
2.579

@<SCITEGIC>MOL_PROPERTY
Pdih
SciTegic.value.DoubleValue
0.010

@<SCITEGIC>MOL_PROPERTY
Idih
SciTegic.value.DoubleValue
0.000

@<SCITEGIC>MOL_PROPERTY
Tether
SciTegic.value.DoubleValue
0.000

@<TRIPOS>MOLECULE
guest-s19_confgen4.mol2 : confsearch ligand conformer 639
          17          16           1
SMALL
USER_CHARGES
 
@<TRIPOS>ATOM
       1    C1      17.057286   18.945887   22.900452 C.2        1 MOL1         0.6173
       2    O1      16.763793   17.839448   22.488027 O.co2      1 MOL1        -0.6755
       3    O2      16.373055   19.555166   23.699463 O.co2      1 MOL1        -0.6755
       4    C2      18.301364   19.604374   22.418003 C.2        1 MOL1        -0.1504
       5    H1      18.504206   20.592201   22.825204 H          1 MOL1         0.0814
       6    C3      19.155858   19.043938   21.532149 C.2        1 MOL1        -0.1394
       7    H2      18.964076   18.053317   21.120461 H          1 MOL1         0.0817
       8    C4      20.422334   19.718661   21.048620 C.3        1 MOL1        -0.1849
       9    H3      20.227656   20.785488   20.873958 H          1 MOL1         0.0736
      10    H4      20.721307   19.299195   20.078590 H          1 MOL1         0.0736
      11    C5      21.585744   19.574387   22.054216 C.3        1 MOL1        -0.1866
      12    H5      22.440290   20.168686   21.702487 H          1 MOL1         0.0738
      13    H6      21.289988   19.994404   23.025577 H          1 MOL1         0.0738
      14    C6      22.031874   18.107892   22.236079 C.3        1 MOL1        -0.2879
      15    H7      22.344333   17.670881   21.278720 H          1 MOL1         0.0750
      16    H8      22.880190   18.045854   22.929922 H          1 MOL1         0.0750
      17    H9      21.218202   17.494021   22.643906 H          1 MOL1         0.0750
@<TRIPOS>BOND
    1     1     2    1
    2     1     3    2
    3     1     4    1
    4     4     5    1
    5     4     6    2
    6     6     7    1
    7     6     8    1
    8     8     9    1
    9     8    10    1
   10     8    11    1
   11    11    12    1
   12    11    13    1
   13    11    14    1
   14    14    15    1
   15    14    16    1
   16    14    17    1
@<TRIPOS>SUBSTRUCTURE
       1 MOL1            1 RESIDUE      1      MOL     
@<SCITEGIC>MOL_PROPERTY
VConf Rank
SciTegic.value.IntegerValue
639

@<SCITEGIC>MOL_PROPERTY
Conf_Id
SciTegic.value.IntegerValue
3

@<SCITEGIC>MOL_PROPERTY
Delta U+W
SciTegic.value.DoubleValue
0.531

@<SCITEGIC>MOL_PROPERTY
U+W
SciTegic.value.DoubleValue
-52.878

@<SCITEGIC>MOL_PROPERTY
Grad RMS
SciTegic.value.DoubleValue
0.000000

@<SCITEGIC>MOL_PROPERTY
U
SciTegic.value.DoubleValue
10.067

@<SCITEGIC>MOL_PROPERTY
W
SciTegic.value.DoubleValue
-62.945

@<SCITEGIC>MOL_PROPERTY
W(PB)
SciTegic.value.DoubleValue
-64.982

@<SCITEGIC>MOL_PROPERTY
W(SA)
SciTegic.value.DoubleValue
2.037

@<SCITEGIC>MOL_PROPERTY
Valence
SciTegic.value.DoubleValue
2.779

@<SCITEGIC>MOL_PROPERTY
Coulomb
SciTegic.value.DoubleValue
6.474

@<SCITEGIC>MOL_PROPERTY
VdW
SciTegic.value.DoubleValue
0.815

@<SCITEGIC>MOL_PROPERTY
VdW6
SciTegic.value.DoubleValue
-5.088

@<SCITEGIC>MOL_PROPERTY
VdW12
SciTegic.value.DoubleValue
5.902

@<SCITEGIC>MOL_PROPERTY
Bond
SciTegic.value.DoubleValue
0.078

@<SCITEGIC>MOL_PROPERTY
Angle
SciTegic.value.DoubleValue
2.651

@<SCITEGIC>MOL_PROPERTY
Pdih
SciTegic.value.DoubleValue
0.050

@<SCITEGIC>MOL_PROPERTY
Idih
SciTegic.value.DoubleValue
0.000

@<SCITEGIC>MOL_PROPERTY
Tether
SciTegic.value.DoubleValue
0.000

@<TRIPOS>MOLECULE
guest-s19_confgen4.mol2 : confsearch ligand conformer 640
          17          16           1
SMALL
USER_CHARGES
 
@<TRIPOS>ATOM
       1    C1      17.999454   19.921631   19.947796 C.2        1 MOL1         0.6173
       2    O1      17.999328   20.900827   19.227409 O.co2      1 MOL1        -0.6755
       3    O2      16.996941   19.272283   20.179662 O.co2      1 MOL1        -0.6755
       4    C2      19.294873   19.517669   20.558350 C.2        1 MOL1        -0.1504
       5    H1      20.150700   20.140952   20.309785 H          1 MOL1         0.0814
       6    C3      19.441289   18.453130   21.379875 C.2        1 MOL1        -0.1394
       7    H2      18.588344   17.825531   21.637019 H          1 MOL1         0.0817
       8    C4      20.760912   18.046015   22.002120 C.3        1 MOL1        -0.1849
       9    H3      21.599826   18.516607   21.471548 H          1 MOL1         0.0736
      10    H4      20.893966   16.962411   21.883342 H          1 MOL1         0.0736
      11    C5      20.834022   18.397886   23.504122 C.3        1 MOL1        -0.1866
      12    H5      19.993662   17.929687   24.035200 H          1 MOL1         0.0738
      13    H6      21.751896   17.968362   23.928639 H          1 MOL1         0.0738
      14    C6      20.826900   19.920407   23.758498 C.3        1 MOL1        -0.2879
      15    H7      19.893414   20.376836   23.404479 H          1 MOL1         0.0750
      16    H8      20.919370   20.133000   24.831400 H          1 MOL1         0.0750
      17    H9      21.663983   20.408487   23.242586 H          1 MOL1         0.0750
@<TRIPOS>BOND
    1     1     2    1
    2     1     3    2
    3     1     4    1
    4     4     5    1
    5     4     6    2
    6     6     7    1
    7     6     8    1
    8     8     9    1
    9     8    10    1
   10     8    11    1
   11    11    12    1
   12    11    13    1
   13    11    14    1
   14    14    15    1
   15    14    16    1
   16    14    17    1
@<TRIPOS>SUBSTRUCTURE
       1 MOL1            1 RESIDUE      1      MOL     
@<SCITEGIC>MOL_PROPERTY
VConf Rank
SciTegic.value.IntegerValue
640

@<SCITEGIC>MOL_PROPERTY
Conf_Id
SciTegic.value.IntegerValue
45

@<SCITEGIC>MOL_PROPERTY
Delta U+W
SciTegic.value.DoubleValue
0.562

@<SCITEGIC>MOL_PROPERTY
U+W
SciTegic.value.DoubleValue
-52.846

@<SCITEGIC>MOL_PROPERTY
Grad RMS
SciTegic.value.DoubleValue
0.000000

@<SCITEGIC>MOL_PROPERTY
U
SciTegic.value.DoubleValue
10.243

@<SCITEGIC>MOL_PROPERTY
W
SciTegic.value.DoubleValue
-63.089

@<SCITEGIC>MOL_PROPERTY
W(PB)
SciTegic.value.DoubleValue
-65.116

@<SCITEGIC>MOL_PROPERTY
W(SA)
SciTegic.value.DoubleValue
2.026

@<SCITEGIC>MOL_PROPERTY
Valence
SciTegic.value.DoubleValue
2.822

@<SCITEGIC>MOL_PROPERTY
Coulomb
SciTegic.value.DoubleValue
6.637

@<SCITEGIC>MOL_PROPERTY
VdW
SciTegic.value.DoubleValue
0.785

@<SCITEGIC>MOL_PROPERTY
VdW6
SciTegic.value.DoubleValue
-5.216

@<SCITEGIC>MOL_PROPERTY
VdW12
SciTegic.value.DoubleValue
6.001

@<SCITEGIC>MOL_PROPERTY
Bond
SciTegic.value.DoubleValue
0.080

@<SCITEGIC>MOL_PROPERTY
Angle
SciTegic.value.DoubleValue
2.678

@<SCITEGIC>MOL_PROPERTY
Pdih
SciTegic.value.DoubleValue
0.064

@<SCITEGIC>MOL_PROPERTY
Idih
SciTegic.value.DoubleValue
0.000

@<SCITEGIC>MOL_PROPERTY
Tether
SciTegic.value.DoubleValue
0.000

@<TRIPOS>MOLECULE
guest-s19_confgen4.mol2 : confsearch ligand conformer 641
          17          16           1
SMALL
USER_CHARGES
 
@<TRIPOS>ATOM
       1    C1      19.972790   18.346201   25.197155 C.2        1 MOL1         0.6173
       2    O1      19.068836   18.441459   26.004309 O.co2      1 MOL1        -0.6755
       3    O2      21.129483   18.151670   25.520595 O.co2      1 MOL1        -0.6755
       4    C2      19.624370   18.475240   23.756282 C.2        1 MOL1        -0.1504
       5    H1      18.573462   18.648077   23.535764 H          1 MOL1         0.0814
       6    C3      20.526624   18.391858   22.752255 C.2        1 MOL1        -0.1394
       7    H2      21.582398   18.221280   22.962053 H          1 MOL1         0.0817
       8    C4      20.164269   18.526397   21.289437 C.3        1 MOL1        -0.1849
       9    H3      19.201189   18.035242   21.094363 H          1 MOL1         0.0736
      10    H4      20.911076   18.004491   20.676020 H          1 MOL1         0.0736
      11    C5      20.089435   20.006774   20.862943 C.3        1 MOL1        -0.1866
      12    H5      19.339602   20.529471   21.472942 H          1 MOL1         0.0738
      13    H6      21.054417   20.495317   21.057114 H          1 MOL1         0.0738
      14    C6      19.729776   20.152347   19.370637 C.3        1 MOL1        -0.2879
      15    H7      20.481528   19.665135   18.735873 H          1 MOL1         0.0750
      16    H8      18.753364   19.698585   19.155799 H          1 MOL1         0.0750
      17    H9      19.681133   21.211494   19.086079 H          1 MOL1         0.0750
@<TRIPOS>BOND
    1     1     2    1
    2     1     3    2
    3     1     4    1
    4     4     5    1
    5     4     6    2
    6     6     7    1
    7     6     8    1
    8     8     9    1
    9     8    10    1
   10     8    11    1
   11    11    12    1
   12    11    13    1
   13    11    14    1
   14    14    15    1
   15    14    16    1
   16    14    17    1
@<TRIPOS>SUBSTRUCTURE
       1 MOL1            1 RESIDUE      1      MOL     
@<SCITEGIC>MOL_PROPERTY
VConf Rank
SciTegic.value.IntegerValue
641

@<SCITEGIC>MOL_PROPERTY
Conf_Id
SciTegic.value.IntegerValue
36

@<SCITEGIC>MOL_PROPERTY
Delta U+W
SciTegic.value.DoubleValue
0.000

@<SCITEGIC>MOL_PROPERTY
U+W
SciTegic.value.DoubleValue
-53.409

@<SCITEGIC>MOL_PROPERTY
Grad RMS
SciTegic.value.DoubleValue
0.000000

@<SCITEGIC>MOL_PROPERTY
U
SciTegic.value.DoubleValue
9.048

@<SCITEGIC>MOL_PROPERTY
W
SciTegic.value.DoubleValue
-62.457

@<SCITEGIC>MOL_PROPERTY
W(PB)
SciTegic.value.DoubleValue
-64.540

@<SCITEGIC>MOL_PROPERTY
W(SA)
SciTegic.value.DoubleValue
2.084

@<SCITEGIC>MOL_PROPERTY
Valence
SciTegic.value.DoubleValue
2.652

@<SCITEGIC>MOL_PROPERTY
Coulomb
SciTegic.value.DoubleValue
5.578

@<SCITEGIC>MOL_PROPERTY
VdW
SciTegic.value.DoubleValue
0.818

@<SCITEGIC>MOL_PROPERTY
VdW6
SciTegic.value.DoubleValue
-4.534

@<SCITEGIC>MOL_PROPERTY
VdW12
SciTegic.value.DoubleValue
5.352

@<SCITEGIC>MOL_PROPERTY
Bond
SciTegic.value.DoubleValue
0.063

@<SCITEGIC>MOL_PROPERTY
Angle
SciTegic.value.DoubleValue
2.579

@<SCITEGIC>MOL_PROPERTY
Pdih
SciTegic.value.DoubleValue
0.010

@<SCITEGIC>MOL_PROPERTY
Idih
SciTegic.value.DoubleValue
0.000

@<SCITEGIC>MOL_PROPERTY
Tether
SciTegic.value.DoubleValue
0.000

@<TRIPOS>MOLECULE
guest-s19_confgen4.mol2 : confsearch ligand conformer 642
          17          16           1
SMALL
USER_CHARGES
 
@<TRIPOS>ATOM
       1    C1      22.413172   17.339002   23.508761 C.2        1 MOL1         0.6173
       2    O1      23.202824   18.148767   23.957230 O.co2      1 MOL1        -0.6755
       3    O2      22.632220   16.143421   23.491154 O.co2      1 MOL1        -0.6755
       4    C2      21.115020   17.808383   22.953200 C.2        1 MOL1        -0.1504
       5    H1      20.455409   17.033730   22.568838 H          1 MOL1         0.0814
       6    C3      20.740155   19.107027   22.907535 C.2        1 MOL1        -0.1394
       7    H2      21.394210   19.891470   23.287842 H          1 MOL1         0.0817
       8    C4      19.418781   19.576166   22.339099 C.3        1 MOL1        -0.1849
       9    H3      19.146257   20.540250   22.789278 H          1 MOL1         0.0736
      10    H4      18.622058   18.869302   22.608137 H          1 MOL1         0.0736
      11    C5      19.487574   19.723824   20.805318 C.3        1 MOL1        -0.1866
      12    H5      20.283667   20.432899   20.538832 H          1 MOL1         0.0738
      13    H6      19.756149   18.759022   20.353008 H          1 MOL1         0.0738
      14    C6      18.147112   20.210636   20.219060 C.3        1 MOL1        -0.2879
      15    H7      17.870286   21.189786   20.631448 H          1 MOL1         0.0750
      16    H8      18.215425   20.309627   19.127885 H          1 MOL1         0.0750
      17    H9      17.339173   19.502421   20.445120 H          1 MOL1         0.0750
@<TRIPOS>BOND
    1     1     2    1
    2     1     3    2
    3     1     4    1
    4     4     5    1
    5     4     6    2
    6     6     7    1
    7     6     8    1
    8     8     9    1
    9     8    10    1
   10     8    11    1
   11    11    12    1
   12    11    13    1
   13    11    14    1
   14    14    15    1
   15    14    16    1
   16    14    17    1
@<TRIPOS>SUBSTRUCTURE
       1 MOL1            1 RESIDUE      1      MOL     
@<SCITEGIC>MOL_PROPERTY
VConf Rank
SciTegic.value.IntegerValue
642

@<SCITEGIC>MOL_PROPERTY
Conf_Id
SciTegic.value.IntegerValue
1

@<SCITEGIC>MOL_PROPERTY
Delta U+W
SciTegic.value.DoubleValue
0.030

@<SCITEGIC>MOL_PROPERTY
U+W
SciTegic.value.DoubleValue
-53.378

@<SCITEGIC>MOL_PROPERTY
Grad RMS
SciTegic.value.DoubleValue
0.000000

@<SCITEGIC>MOL_PROPERTY
U
SciTegic.value.DoubleValue
9.048

@<SCITEGIC>MOL_PROPERTY
W
SciTegic.value.DoubleValue
-62.426

@<SCITEGIC>MOL_PROPERTY
W(PB)
SciTegic.value.DoubleValue
-64.506

@<SCITEGIC>MOL_PROPERTY
W(SA)
SciTegic.value.DoubleValue
2.080

@<SCITEGIC>MOL_PROPERTY
Valence
SciTegic.value.DoubleValue
2.652

@<SCITEGIC>MOL_PROPERTY
Coulomb
SciTegic.value.DoubleValue
5.578

@<SCITEGIC>MOL_PROPERTY
VdW
SciTegic.value.DoubleValue
0.818

@<SCITEGIC>MOL_PROPERTY
VdW6
SciTegic.value.DoubleValue
-4.535

@<SCITEGIC>MOL_PROPERTY
VdW12
SciTegic.value.DoubleValue
5.352

@<SCITEGIC>MOL_PROPERTY
Bond
SciTegic.value.DoubleValue
0.063

@<SCITEGIC>MOL_PROPERTY
Angle
SciTegic.value.DoubleValue
2.579

@<SCITEGIC>MOL_PROPERTY
Pdih
SciTegic.value.DoubleValue
0.010

@<SCITEGIC>MOL_PROPERTY
Idih
SciTegic.value.DoubleValue
0.000

@<SCITEGIC>MOL_PROPERTY
Tether
SciTegic.value.DoubleValue
0.000

@<TRIPOS>MOLECULE
guest-s19_confgen4.mol2 : confsearch ligand conformer 643
          17          16           1
SMALL
USER_CHARGES
 
@<TRIPOS>ATOM
       1    C1      22.317606   20.616501   20.683360 C.2        1 MOL1         0.6173
       2    O1      21.718777   21.593317   20.273875 O.co2      1 MOL1        -0.6755
       3    O2      23.530149   20.568223   20.755597 O.co2      1 MOL1        -0.6755
       4    C2      21.554849   19.414829   21.117269 C.2        1 MOL1        -0.1504
       5    H1      22.150610   18.576715   21.471378 H          1 MOL1         0.0814
       6    C3      20.205383   19.329282   21.092568 C.2        1 MOL1        -0.1394
       7    H2      19.598631   20.164248   20.742883 H          1 MOL1         0.0817
       8    C4      19.435724   18.104172   21.539498 C.3        1 MOL1        -0.1849
       9    H3      19.951168   17.198463   21.192316 H          1 MOL1         0.0736
      10    H4      18.444807   18.093045   21.065945 H          1 MOL1         0.0736
      11    C5      19.275316   18.038500   23.074268 C.3        1 MOL1        -0.1866
      12    H5      18.805734   17.083022   23.345758 H          1 MOL1         0.0738
      13    H6      20.265332   18.048224   23.550924 H          1 MOL1         0.0738
      14    C6      18.419563   19.196953   23.629594 C.3        1 MOL1        -0.2879
      15    H7      17.419922   19.199264   23.175879 H          1 MOL1         0.0750
      16    H8      18.298325   19.100614   24.716299 H          1 MOL1         0.0750
      17    H9      18.889660   20.168426   23.428422 H          1 MOL1         0.0750
@<TRIPOS>BOND
    1     1     2    1
    2     1     3    2
    3     1     4    1
    4     4     5    1
    5     4     6    2
    6     6     7    1
    7     6     8    1
    8     8     9    1
    9     8    10    1
   10     8    11    1
   11    11    12    1
   12    11    13    1
   13    11    14    1
   14    14    15    1
   15    14    16    1
   16    14    17    1
@<TRIPOS>SUBSTRUCTURE
       1 MOL1            1 RESIDUE      1      MOL     
@<SCITEGIC>MOL_PROPERTY
VConf Rank
SciTegic.value.IntegerValue
643

@<SCITEGIC>MOL_PROPERTY
Conf_Id
SciTegic.value.IntegerValue
3

@<SCITEGIC>MOL_PROPERTY
Delta U+W
SciTegic.value.DoubleValue
0.531

@<SCITEGIC>MOL_PROPERTY
U+W
SciTegic.value.DoubleValue
-52.878

@<SCITEGIC>MOL_PROPERTY
Grad RMS
SciTegic.value.DoubleValue
0.000000

@<SCITEGIC>MOL_PROPERTY
U
SciTegic.value.DoubleValue
10.067

@<SCITEGIC>MOL_PROPERTY
W
SciTegic.value.DoubleValue
-62.945

@<SCITEGIC>MOL_PROPERTY
W(PB)
SciTegic.value.DoubleValue
-64.982

@<SCITEGIC>MOL_PROPERTY
W(SA)
SciTegic.value.DoubleValue
2.037

@<SCITEGIC>MOL_PROPERTY
Valence
SciTegic.value.DoubleValue
2.779

@<SCITEGIC>MOL_PROPERTY
Coulomb
SciTegic.value.DoubleValue
6.474

@<SCITEGIC>MOL_PROPERTY
VdW
SciTegic.value.DoubleValue
0.815

@<SCITEGIC>MOL_PROPERTY
VdW6
SciTegic.value.DoubleValue
-5.088

@<SCITEGIC>MOL_PROPERTY
VdW12
SciTegic.value.DoubleValue
5.902

@<SCITEGIC>MOL_PROPERTY
Bond
SciTegic.value.DoubleValue
0.078

@<SCITEGIC>MOL_PROPERTY
Angle
SciTegic.value.DoubleValue
2.651

@<SCITEGIC>MOL_PROPERTY
Pdih
SciTegic.value.DoubleValue
0.050

@<SCITEGIC>MOL_PROPERTY
Idih
SciTegic.value.DoubleValue
0.000

@<SCITEGIC>MOL_PROPERTY
Tether
SciTegic.value.DoubleValue
0.000

@<TRIPOS>MOLECULE
guest-s19_confgen4.mol2 : confsearch ligand conformer 644
          17          16           1
SMALL
USER_CHARGES
 
@<TRIPOS>ATOM
       1    C1      17.875340   21.267727   22.089119 C.2        1 MOL1         0.6173
       2    O1      16.675372   21.182265   22.263912 O.co2      1 MOL1        -0.6755
       3    O2      18.395534   22.215668   21.531216 O.co2      1 MOL1        -0.6755
       4    C2      18.724136   20.153444   22.591106 C.2        1 MOL1        -0.1504
       5    H1      18.195619   19.338135   23.079620 H          1 MOL1         0.0814
       6    C3      20.070210   20.115167   22.463803 C.2        1 MOL1        -0.1394
       7    H2      20.607298   20.926111   21.972455 H          1 MOL1         0.0817
       8    C4      20.931342   18.978048   22.973458 C.3        1 MOL1        -0.1849
       9    H3      20.378493   18.372162   23.704210 H          1 MOL1         0.0736
      10    H4      21.793059   19.394593   23.511924 H          1 MOL1         0.0736
      11    C5      21.443979   18.073605   21.831376 C.3        1 MOL1        -0.1866
      12    H5      21.994888   18.679353   21.098553 H          1 MOL1         0.0738
      13    H6      22.160836   17.349266   22.242043 H          1 MOL1         0.0738
      14    C6      20.305642   17.308347   21.123280 C.3        1 MOL1        -0.2879
      15    H7      19.601407   18.000543   20.643727 H          1 MOL1         0.0750
      16    H8      20.710038   16.647707   20.345537 H          1 MOL1         0.0750
      17    H9      19.745686   16.689580   21.836491 H          1 MOL1         0.0750
@<TRIPOS>BOND
    1     1     2    1
    2     1     3    2
    3     1     4    1
    4     4     5    1
    5     4     6    2
    6     6     7    1
    7     6     8    1
    8     8     9    1
    9     8    10    1
   10     8    11    1
   11    11    12    1
   12    11    13    1
   13    11    14    1
   14    14    15    1
   15    14    16    1
   16    14    17    1
@<TRIPOS>SUBSTRUCTURE
       1 MOL1            1 RESIDUE      1      MOL     
@<SCITEGIC>MOL_PROPERTY
VConf Rank
SciTegic.value.IntegerValue
644

@<SCITEGIC>MOL_PROPERTY
Conf_Id
SciTegic.value.IntegerValue
45

@<SCITEGIC>MOL_PROPERTY
Delta U+W
SciTegic.value.DoubleValue
0.562

@<SCITEGIC>MOL_PROPERTY
U+W
SciTegic.value.DoubleValue
-52.846

@<SCITEGIC>MOL_PROPERTY
Grad RMS
SciTegic.value.DoubleValue
0.000000

@<SCITEGIC>MOL_PROPERTY
U
SciTegic.value.DoubleValue
10.243

@<SCITEGIC>MOL_PROPERTY
W
SciTegic.value.DoubleValue
-63.089

@<SCITEGIC>MOL_PROPERTY
W(PB)
SciTegic.value.DoubleValue
-65.116

@<SCITEGIC>MOL_PROPERTY
W(SA)
SciTegic.value.DoubleValue
2.026

@<SCITEGIC>MOL_PROPERTY
Valence
SciTegic.value.DoubleValue
2.822

@<SCITEGIC>MOL_PROPERTY
Coulomb
SciTegic.value.DoubleValue
6.637

@<SCITEGIC>MOL_PROPERTY
VdW
SciTegic.value.DoubleValue
0.785

@<SCITEGIC>MOL_PROPERTY
VdW6
SciTegic.value.DoubleValue
-5.216

@<SCITEGIC>MOL_PROPERTY
VdW12
SciTegic.value.DoubleValue
6.001

@<SCITEGIC>MOL_PROPERTY
Bond
SciTegic.value.DoubleValue
0.080

@<SCITEGIC>MOL_PROPERTY
Angle
SciTegic.value.DoubleValue
2.678

@<SCITEGIC>MOL_PROPERTY
Pdih
SciTegic.value.DoubleValue
0.064

@<SCITEGIC>MOL_PROPERTY
Idih
SciTegic.value.DoubleValue
0.000

@<SCITEGIC>MOL_PROPERTY
Tether
SciTegic.value.DoubleValue
0.000

@<TRIPOS>MOLECULE
guest-s19_confgen4.mol2 : confsearch ligand conformer 645
          17          16           1
SMALL
USER_CHARGES
 
@<TRIPOS>ATOM
       1    C1      22.701732   20.920260   22.803695 C.2        1 MOL1         0.6173
       2    O1      23.464185   20.754083   23.735764 O.co2      1 MOL1        -0.6755
       3    O2      22.676118   21.943216   22.145440 O.co2      1 MOL1        -0.6755
       4    C2      21.769433   19.809105   22.471559 C.2        1 MOL1        -0.1504
       5    H1      21.844062   18.923528   23.098530 H          1 MOL1         0.0814
       6    C3      20.868725   19.856697   21.463817 C.2        1 MOL1        -0.1394
       7    H2      20.783887   20.739948   20.831011 H          1 MOL1         0.0817
       8    C4      19.922616   18.722963   21.134026 C.3        1 MOL1        -0.1849
       9    H3      20.433996   17.758724   21.258696 H          1 MOL1         0.0736
      10    H4      19.627283   18.785763   20.077986 H          1 MOL1         0.0736
      11    C5      18.664349   18.763896   22.025151 C.3        1 MOL1        -0.1866
      12    H5      18.957849   18.696918   23.082001 H          1 MOL1         0.0738
      13    H6      18.153520   19.728388   21.897182 H          1 MOL1         0.0738
      14    C6      17.690337   17.616862   21.688791 C.3        1 MOL1        -0.2879
      15    H7      17.355821   17.678744   20.644903 H          1 MOL1         0.0750
      16    H8      18.167639   16.639537   21.838641 H          1 MOL1         0.0750
      17    H9      16.802199   17.662404   22.332427 H          1 MOL1         0.0750
@<TRIPOS>BOND
    1     1     2    1
    2     1     3    2
    3     1     4    1
    4     4     5    1
    5     4     6    2
    6     6     7    1
    7     6     8    1
    8     8     9    1
    9     8    10    1
   10     8    11    1
   11    11    12    1
   12    11    13    1
   13    11    14    1
   14    14    15    1
   15    14    16    1
   16    14    17    1
@<TRIPOS>SUBSTRUCTURE
       1 MOL1            1 RESIDUE      1      MOL     
@<SCITEGIC>MOL_PROPERTY
VConf Rank
SciTegic.value.IntegerValue
645

@<SCITEGIC>MOL_PROPERTY
Conf_Id
SciTegic.value.IntegerValue
36

@<SCITEGIC>MOL_PROPERTY
Delta U+W
SciTegic.value.DoubleValue
0.000

@<SCITEGIC>MOL_PROPERTY
U+W
SciTegic.value.DoubleValue
-53.409

@<SCITEGIC>MOL_PROPERTY
Grad RMS
SciTegic.value.DoubleValue
0.000000

@<SCITEGIC>MOL_PROPERTY
U
SciTegic.value.DoubleValue
9.048

@<SCITEGIC>MOL_PROPERTY
W
SciTegic.value.DoubleValue
-62.457

@<SCITEGIC>MOL_PROPERTY
W(PB)
SciTegic.value.DoubleValue
-64.540

@<SCITEGIC>MOL_PROPERTY
W(SA)
SciTegic.value.DoubleValue
2.084

@<SCITEGIC>MOL_PROPERTY
Valence
SciTegic.value.DoubleValue
2.652

@<SCITEGIC>MOL_PROPERTY
Coulomb
SciTegic.value.DoubleValue
5.578

@<SCITEGIC>MOL_PROPERTY
VdW
SciTegic.value.DoubleValue
0.818

@<SCITEGIC>MOL_PROPERTY
VdW6
SciTegic.value.DoubleValue
-4.534

@<SCITEGIC>MOL_PROPERTY
VdW12
SciTegic.value.DoubleValue
5.352

@<SCITEGIC>MOL_PROPERTY
Bond
SciTegic.value.DoubleValue
0.063

@<SCITEGIC>MOL_PROPERTY
Angle
SciTegic.value.DoubleValue
2.579

@<SCITEGIC>MOL_PROPERTY
Pdih
SciTegic.value.DoubleValue
0.010

@<SCITEGIC>MOL_PROPERTY
Idih
SciTegic.value.DoubleValue
0.000

@<SCITEGIC>MOL_PROPERTY
Tether
SciTegic.value.DoubleValue
0.000

@<TRIPOS>MOLECULE
guest-s19_confgen4.mol2 : confsearch ligand conformer 646
          17          16           1
SMALL
USER_CHARGES
 
@<TRIPOS>ATOM
       1    C1      20.798048   20.143287   18.805511 C.2        1 MOL1         0.6173
       2    O1      21.841220   20.763052   18.895375 O.co2      1 MOL1        -0.6755
       3    O2      20.119296   20.136211   17.797071 O.co2      1 MOL1        -0.6755
       4    C2      20.311783   19.350599   19.967129 C.2        1 MOL1        -0.1504
       5    H1      19.373489   18.820480   19.820545 H          1 MOL1         0.0814
       6    C3      20.963079   19.268999   21.149601 C.2        1 MOL1        -0.1394
       7    H2      21.902766   19.797839   21.308000 H          1 MOL1         0.0817
       8    C4      20.460681   18.461999   22.326710 C.3        1 MOL1        -0.1849
       9    H3      21.306639   18.183095   22.969326 H          1 MOL1         0.0736
      10    H4      20.012913   17.522751   21.974398 H          1 MOL1         0.0736
      11    C5      19.425876   19.254952   23.150980 C.3        1 MOL1        -0.1866
      12    H5      19.876714   20.192855   23.504039 H          1 MOL1         0.0738
      13    H6      18.576806   19.531278   22.510445 H          1 MOL1         0.0738
      14    C6      18.915671   18.442604   24.358170 C.3        1 MOL1        -0.2879
      15    H7      19.741420   18.179987   25.032410 H          1 MOL1         0.0750
      16    H8      18.181132   19.022552   24.931968 H          1 MOL1         0.0750
      17    H9      18.431959   17.513192   24.030065 H          1 MOL1         0.0750
@<TRIPOS>BOND
    1     1     2    1
    2     1     3    2
    3     1     4    1
    4     4     5    1
    5     4     6    2
    6     6     7    1
    7     6     8    1
    8     8     9    1
    9     8    10    1
   10     8    11    1
   11    11    12    1
   12    11    13    1
   13    11    14    1
   14    14    15    1
   15    14    16    1
   16    14    17    1
@<TRIPOS>SUBSTRUCTURE
       1 MOL1            1 RESIDUE      1      MOL     
@<SCITEGIC>MOL_PROPERTY
VConf Rank
SciTegic.value.IntegerValue
646

@<SCITEGIC>MOL_PROPERTY
Conf_Id
SciTegic.value.IntegerValue
1

@<SCITEGIC>MOL_PROPERTY
Delta U+W
SciTegic.value.DoubleValue
0.030

@<SCITEGIC>MOL_PROPERTY
U+W
SciTegic.value.DoubleValue
-53.378

@<SCITEGIC>MOL_PROPERTY
Grad RMS
SciTegic.value.DoubleValue
0.000000

@<SCITEGIC>MOL_PROPERTY
U
SciTegic.value.DoubleValue
9.048

@<SCITEGIC>MOL_PROPERTY
W
SciTegic.value.DoubleValue
-62.426

@<SCITEGIC>MOL_PROPERTY
W(PB)
SciTegic.value.DoubleValue
-64.506

@<SCITEGIC>MOL_PROPERTY
W(SA)
SciTegic.value.DoubleValue
2.080

@<SCITEGIC>MOL_PROPERTY
Valence
SciTegic.value.DoubleValue
2.652

@<SCITEGIC>MOL_PROPERTY
Coulomb
SciTegic.value.DoubleValue
5.578

@<SCITEGIC>MOL_PROPERTY
VdW
SciTegic.value.DoubleValue
0.818

@<SCITEGIC>MOL_PROPERTY
VdW6
SciTegic.value.DoubleValue
-4.535

@<SCITEGIC>MOL_PROPERTY
VdW12
SciTegic.value.DoubleValue
5.352

@<SCITEGIC>MOL_PROPERTY
Bond
SciTegic.value.DoubleValue
0.063

@<SCITEGIC>MOL_PROPERTY
Angle
SciTegic.value.DoubleValue
2.579

@<SCITEGIC>MOL_PROPERTY
Pdih
SciTegic.value.DoubleValue
0.010

@<SCITEGIC>MOL_PROPERTY
Idih
SciTegic.value.DoubleValue
0.000

@<SCITEGIC>MOL_PROPERTY
Tether
SciTegic.value.DoubleValue
0.000

@<TRIPOS>MOLECULE
guest-s19_confgen4.mol2 : confsearch ligand conformer 647
          17          16           1
SMALL
USER_CHARGES
 
@<TRIPOS>ATOM
       1    C1      21.623737   17.874492   24.383766 C.2        1 MOL1         0.6173
       2    O1      22.454148   17.233217   23.767629 O.co2      1 MOL1        -0.6755
       3    O2      21.737643   18.139249   25.564757 O.co2      1 MOL1        -0.6755
       4    C2      20.405239   18.364137   23.684049 C.2        1 MOL1        -0.1504
       5    H1      19.703365   18.929690   24.292558 H          1 MOL1         0.0814
       6    C3      20.149026   18.145132   22.374325 C.2        1 MOL1        -0.1394
       7    H2      20.847025   17.582685   21.754608 H          1 MOL1         0.0817
       8    C4      18.908372   18.650006   21.668000 C.3        1 MOL1        -0.1849
       9    H3      18.035933   18.528933   22.324292 H          1 MOL1         0.0736
      10    H4      18.709959   18.036731   20.778719 H          1 MOL1         0.0736
      11    C5      19.029616   20.133511   21.255598 C.3        1 MOL1        -0.1866
      12    H5      18.068023   20.472168   20.845961 H          1 MOL1         0.0738
      13    H6      19.226952   20.749891   22.143608 H          1 MOL1         0.0738
      14    C6      20.135860   20.366701   20.204618 C.3        1 MOL1        -0.2879
      15    H7      19.952229   19.769392   19.302040 H          1 MOL1         0.0750
      16    H8      20.171756   21.423542   19.910162 H          1 MOL1         0.0750
      17    H9      21.122674   20.094320   20.601141 H          1 MOL1         0.0750
@<TRIPOS>BOND
    1     1     2    1
    2     1     3    2
    3     1     4    1
    4     4     5    1
    5     4     6    2
    6     6     7    1
    7     6     8    1
    8     8     9    1
    9     8    10    1
   10     8    11    1
   11    11    12    1
   12    11    13    1
   13    11    14    1
   14    14    15    1
   15    14    16    1
   16    14    17    1
@<TRIPOS>SUBSTRUCTURE
       1 MOL1            1 RESIDUE      1      MOL     
@<SCITEGIC>MOL_PROPERTY
VConf Rank
SciTegic.value.IntegerValue
647

@<SCITEGIC>MOL_PROPERTY
Conf_Id
SciTegic.value.IntegerValue
3

@<SCITEGIC>MOL_PROPERTY
Delta U+W
SciTegic.value.DoubleValue
0.531

@<SCITEGIC>MOL_PROPERTY
U+W
SciTegic.value.DoubleValue
-52.878

@<SCITEGIC>MOL_PROPERTY
Grad RMS
SciTegic.value.DoubleValue
0.000000

@<SCITEGIC>MOL_PROPERTY
U
SciTegic.value.DoubleValue
10.067

@<SCITEGIC>MOL_PROPERTY
W
SciTegic.value.DoubleValue
-62.945

@<SCITEGIC>MOL_PROPERTY
W(PB)
SciTegic.value.DoubleValue
-64.982

@<SCITEGIC>MOL_PROPERTY
W(SA)
SciTegic.value.DoubleValue
2.037

@<SCITEGIC>MOL_PROPERTY
Valence
SciTegic.value.DoubleValue
2.779

@<SCITEGIC>MOL_PROPERTY
Coulomb
SciTegic.value.DoubleValue
6.474

@<SCITEGIC>MOL_PROPERTY
VdW
SciTegic.value.DoubleValue
0.815

@<SCITEGIC>MOL_PROPERTY
VdW6
SciTegic.value.DoubleValue
-5.088

@<SCITEGIC>MOL_PROPERTY
VdW12
SciTegic.value.DoubleValue
5.902

@<SCITEGIC>MOL_PROPERTY
Bond
SciTegic.value.DoubleValue
0.078

@<SCITEGIC>MOL_PROPERTY
Angle
SciTegic.value.DoubleValue
2.651

@<SCITEGIC>MOL_PROPERTY
Pdih
SciTegic.value.DoubleValue
0.050

@<SCITEGIC>MOL_PROPERTY
Idih
SciTegic.value.DoubleValue
0.000

@<SCITEGIC>MOL_PROPERTY
Tether
SciTegic.value.DoubleValue
0.000

@<TRIPOS>MOLECULE
guest-s19_confgen4.mol2 : confsearch ligand conformer 648
          17          16           1
SMALL
USER_CHARGES
 
@<TRIPOS>ATOM
       1    C1      22.689978   19.123488   20.750912 C.2        1 MOL1         0.6173
       2    O1      22.976800   19.244786   19.575837 O.co2      1 MOL1        -0.6755
       3    O2      23.445432   18.630771   21.567593 O.co2      1 MOL1        -0.6755
       4    C2      21.352352   19.609146   21.185611 C.2        1 MOL1        -0.1504
       5    H1      20.727565   20.038245   20.405725 H          1 MOL1         0.0814
       6    C3      20.901109   19.535671   22.458626 C.2        1 MOL1        -0.1394
       7    H2      21.519168   19.103899   23.245451 H          1 MOL1         0.0817
       8    C4      19.537723   20.028460   22.897571 C.3        1 MOL1        -0.1849
       9    H3      19.112139   20.707794   22.146489 H          1 MOL1         0.0736
      10    H4      19.649127   20.620129   23.816008 H          1 MOL1         0.0736
      11    C5      18.553530   18.868767   23.165234 C.3        1 MOL1        -0.1866
      12    H5      18.979648   18.187280   23.914540 H          1 MOL1         0.0738
      13    H6      17.630109   19.275448   23.600093 H          1 MOL1         0.0738
      14    C6      18.202038   18.080684   21.885309 C.3        1 MOL1        -0.2879
      15    H7      19.093075   17.604314   21.456150 H          1 MOL1         0.0750
      16    H8      17.472129   17.291202   22.106257 H          1 MOL1         0.0750
      17    H9      17.766958   18.741635   21.124427 H          1 MOL1         0.0750
@<TRIPOS>BOND
    1     1     2    1
    2     1     3    2
    3     1     4    1
    4     4     5    1
    5     4     6    2
    6     6     7    1
    7     6     8    1
    8     8     9    1
    9     8    10    1
   10     8    11    1
   11    11    12    1
   12    11    13    1
   13    11    14    1
   14    14    15    1
   15    14    16    1
   16    14    17    1
@<TRIPOS>SUBSTRUCTURE
       1 MOL1            1 RESIDUE      1      MOL     
@<SCITEGIC>MOL_PROPERTY
VConf Rank
SciTegic.value.IntegerValue
648

@<SCITEGIC>MOL_PROPERTY
Conf_Id
SciTegic.value.IntegerValue
45

@<SCITEGIC>MOL_PROPERTY
Delta U+W
SciTegic.value.DoubleValue
0.562

@<SCITEGIC>MOL_PROPERTY
U+W
SciTegic.value.DoubleValue
-52.846

@<SCITEGIC>MOL_PROPERTY
Grad RMS
SciTegic.value.DoubleValue
0.000000

@<SCITEGIC>MOL_PROPERTY
U
SciTegic.value.DoubleValue
10.243

@<SCITEGIC>MOL_PROPERTY
W
SciTegic.value.DoubleValue
-63.089

@<SCITEGIC>MOL_PROPERTY
W(PB)
SciTegic.value.DoubleValue
-65.116

@<SCITEGIC>MOL_PROPERTY
W(SA)
SciTegic.value.DoubleValue
2.026

@<SCITEGIC>MOL_PROPERTY
Valence
SciTegic.value.DoubleValue
2.822

@<SCITEGIC>MOL_PROPERTY
Coulomb
SciTegic.value.DoubleValue
6.637

@<SCITEGIC>MOL_PROPERTY
VdW
SciTegic.value.DoubleValue
0.785

@<SCITEGIC>MOL_PROPERTY
VdW6
SciTegic.value.DoubleValue
-5.216

@<SCITEGIC>MOL_PROPERTY
VdW12
SciTegic.value.DoubleValue
6.001

@<SCITEGIC>MOL_PROPERTY
Bond
SciTegic.value.DoubleValue
0.080

@<SCITEGIC>MOL_PROPERTY
Angle
SciTegic.value.DoubleValue
2.678

@<SCITEGIC>MOL_PROPERTY
Pdih
SciTegic.value.DoubleValue
0.064

@<SCITEGIC>MOL_PROPERTY
Idih
SciTegic.value.DoubleValue
0.000

@<SCITEGIC>MOL_PROPERTY
Tether
SciTegic.value.DoubleValue
0.000

@<TRIPOS>MOLECULE
guest-s19_confgen4.mol2 : confsearch ligand conformer 649
          17          16           1
SMALL
USER_CHARGES
 
@<TRIPOS>ATOM
       1    C1      22.336778   18.019747   24.076821 C.2        1 MOL1         0.6173
       2    O1      23.542481   18.171814   24.047510 O.co2      1 MOL1        -0.6755
       3    O2      21.789287   17.221881   24.814424 O.co2      1 MOL1        -0.6755
       4    C2      21.515584   18.858544   23.162369 C.2        1 MOL1        -0.1504
       5    H1      22.066831   19.550804   22.530062 H          1 MOL1         0.0814
       6    C3      20.166699   18.794381   23.088361 C.2        1 MOL1        -0.1394
       7    H2      19.604607   18.102713   23.715594 H          1 MOL1         0.0817
       8    C4      19.339148   19.649535   22.153958 C.3        1 MOL1        -0.1849
       9    H3      19.762781   20.661500   22.096759 H          1 MOL1         0.0736
      10    H4      18.323445   19.758366   22.557554 H          1 MOL1         0.0736
      11    C5      19.270051   19.033565   20.741577 C.3        1 MOL1        -0.1866
      12    H5      20.285317   18.927881   20.334607 H          1 MOL1         0.0738
      13    H6      18.844148   18.022315   20.801140 H          1 MOL1         0.0738
      14    C6      18.420347   19.894525   19.785397 C.3        1 MOL1        -0.2879
      15    H7      17.390205   19.989938   20.153004 H          1 MOL1         0.0750
      16    H8      18.843103   20.902710   19.684023 H          1 MOL1         0.0750
      17    H9      18.382938   19.440816   18.786458 H          1 MOL1         0.0750
@<TRIPOS>BOND
    1     1     2    1
    2     1     3    2
    3     1     4    1
    4     4     5    1
    5     4     6    2
    6     6     7    1
    7     6     8    1
    8     8     9    1
    9     8    10    1
   10     8    11    1
   11    11    12    1
   12    11    13    1
   13    11    14    1
   14    14    15    1
   15    14    16    1
   16    14    17    1
@<TRIPOS>SUBSTRUCTURE
       1 MOL1            1 RESIDUE      1      MOL     
@<SCITEGIC>MOL_PROPERTY
VConf Rank
SciTegic.value.IntegerValue
649

@<SCITEGIC>MOL_PROPERTY
Conf_Id
SciTegic.value.IntegerValue
36

@<SCITEGIC>MOL_PROPERTY
Delta U+W
SciTegic.value.DoubleValue
0.000

@<SCITEGIC>MOL_PROPERTY
U+W
SciTegic.value.DoubleValue
-53.409

@<SCITEGIC>MOL_PROPERTY
Grad RMS
SciTegic.value.DoubleValue
0.000000

@<SCITEGIC>MOL_PROPERTY
U
SciTegic.value.DoubleValue
9.048

@<SCITEGIC>MOL_PROPERTY
W
SciTegic.value.DoubleValue
-62.457

@<SCITEGIC>MOL_PROPERTY
W(PB)
SciTegic.value.DoubleValue
-64.540

@<SCITEGIC>MOL_PROPERTY
W(SA)
SciTegic.value.DoubleValue
2.084

@<SCITEGIC>MOL_PROPERTY
Valence
SciTegic.value.DoubleValue
2.652

@<SCITEGIC>MOL_PROPERTY
Coulomb
SciTegic.value.DoubleValue
5.578

@<SCITEGIC>MOL_PROPERTY
VdW
SciTegic.value.DoubleValue
0.818

@<SCITEGIC>MOL_PROPERTY
VdW6
SciTegic.value.DoubleValue
-4.534

@<SCITEGIC>MOL_PROPERTY
VdW12
SciTegic.value.DoubleValue
5.352

@<SCITEGIC>MOL_PROPERTY
Bond
SciTegic.value.DoubleValue
0.063

@<SCITEGIC>MOL_PROPERTY
Angle
SciTegic.value.DoubleValue
2.579

@<SCITEGIC>MOL_PROPERTY
Pdih
SciTegic.value.DoubleValue
0.010

@<SCITEGIC>MOL_PROPERTY
Idih
SciTegic.value.DoubleValue
0.000

@<SCITEGIC>MOL_PROPERTY
Tether
SciTegic.value.DoubleValue
0.000

@<TRIPOS>MOLECULE
guest-s19_confgen4.mol2 : confsearch ligand conformer 650
          17          16           1
SMALL
USER_CHARGES
 
@<TRIPOS>ATOM
       1    C1      18.774366   22.119822   22.738646 C.2        1 MOL1         0.6173
       2    O1      19.313775   22.932098   22.010883 O.co2      1 MOL1        -0.6755
       3    O2      18.098220   22.438936   23.697134 O.co2      1 MOL1        -0.6755
       4    C2      18.933472   20.666278   22.462863 C.2        1 MOL1        -0.1504
       5    H1      18.425721   19.994288   23.150998 H          1 MOL1         0.0814
       6    C3      19.656707   20.169069   21.433883 C.2        1 MOL1        -0.1394
       7    H2      20.171271   20.833270   20.739740 H          1 MOL1         0.0817
       8    C4      19.814994   18.689204   21.161516 C.3        1 MOL1        -0.1849
       9    H3      20.037352   18.532803   20.097334 H          1 MOL1         0.0736
      10    H4      18.869801   18.166999   21.363302 H          1 MOL1         0.0736
      11    C5      20.941243   18.077234   22.019465 C.3        1 MOL1        -0.1866
      12    H5      21.885950   18.599725   21.814291 H          1 MOL1         0.0738
      13    H6      20.718269   18.229258   23.084702 H          1 MOL1         0.0738
      14    C6      21.115154   16.570683   21.740925 C.3        1 MOL1        -0.2879
      15    H7      21.370308   16.392580   20.688021 H          1 MOL1         0.0750
      16    H8      21.920064   16.153344   22.359857 H          1 MOL1         0.0750
      17    H9      20.192824   16.020142   21.968185 H          1 MOL1         0.0750
@<TRIPOS>BOND
    1     1     2    1
    2     1     3    2
    3     1     4    1
    4     4     5    1
    5     4     6    2
    6     6     7    1
    7     6     8    1
    8     8     9    1
    9     8    10    1
   10     8    11    1
   11    11    12    1
   12    11    13    1
   13    11    14    1
   14    14    15    1
   15    14    16    1
   16    14    17    1
@<TRIPOS>SUBSTRUCTURE
       1 MOL1            1 RESIDUE      1      MOL     
@<SCITEGIC>MOL_PROPERTY
VConf Rank
SciTegic.value.IntegerValue
650

@<SCITEGIC>MOL_PROPERTY
Conf_Id
SciTegic.value.IntegerValue
1

@<SCITEGIC>MOL_PROPERTY
Delta U+W
SciTegic.value.DoubleValue
0.030

@<SCITEGIC>MOL_PROPERTY
U+W
SciTegic.value.DoubleValue
-53.378

@<SCITEGIC>MOL_PROPERTY
Grad RMS
SciTegic.value.DoubleValue
0.000000

@<SCITEGIC>MOL_PROPERTY
U
SciTegic.value.DoubleValue
9.048

@<SCITEGIC>MOL_PROPERTY
W
SciTegic.value.DoubleValue
-62.426

@<SCITEGIC>MOL_PROPERTY
W(PB)
SciTegic.value.DoubleValue
-64.506

@<SCITEGIC>MOL_PROPERTY
W(SA)
SciTegic.value.DoubleValue
2.080

@<SCITEGIC>MOL_PROPERTY
Valence
SciTegic.value.DoubleValue
2.652

@<SCITEGIC>MOL_PROPERTY
Coulomb
SciTegic.value.DoubleValue
5.578

@<SCITEGIC>MOL_PROPERTY
VdW
SciTegic.value.DoubleValue
0.818

@<SCITEGIC>MOL_PROPERTY
VdW6
SciTegic.value.DoubleValue
-4.535

@<SCITEGIC>MOL_PROPERTY
VdW12
SciTegic.value.DoubleValue
5.352

@<SCITEGIC>MOL_PROPERTY
Bond
SciTegic.value.DoubleValue
0.063

@<SCITEGIC>MOL_PROPERTY
Angle
SciTegic.value.DoubleValue
2.579

@<SCITEGIC>MOL_PROPERTY
Pdih
SciTegic.value.DoubleValue
0.010

@<SCITEGIC>MOL_PROPERTY
Idih
SciTegic.value.DoubleValue
0.000

@<SCITEGIC>MOL_PROPERTY
Tether
SciTegic.value.DoubleValue
0.000

@<TRIPOS>MOLECULE
guest-s19_confgen4.mol2 : confsearch ligand conformer 651
          17          16           1
SMALL
USER_CHARGES
 
@<TRIPOS>ATOM
       1    C1      20.974056   20.437911   19.450198 C.2        1 MOL1         0.6173
       2    O1      21.746616   19.593717   19.036763 O.co2      1 MOL1        -0.6755
       3    O2      20.548507   21.339899   18.755118 O.co2      1 MOL1        -0.6755
       4    C2      20.518314   20.387442   20.865770 C.2        1 MOL1        -0.1504
       5    H1      19.829389   21.171674   21.170930 H          1 MOL1         0.0814
       6    C3      20.908733   19.441489   21.749926 C.2        1 MOL1        -0.1394
       7    H2      21.595979   18.649243   21.453890 H          1 MOL1         0.0817
       8    C4      20.437572   19.394304   23.188256 C.3        1 MOL1        -0.1849
       9    H3      20.409588   20.412155   23.600230 H          1 MOL1         0.0736
      10    H4      21.160017   18.836515   23.799189 H          1 MOL1         0.0736
      11    C5      19.039407   18.753055   23.327884 C.3        1 MOL1        -0.1866
      12    H5      18.706282   18.841451   24.371133 H          1 MOL1         0.0738
      13    H6      18.314015   19.309831   22.718595 H          1 MOL1         0.0738
      14    C6      19.027874   17.264627   22.919030 C.3        1 MOL1        -0.2879
      15    H7      19.737364   16.685588   23.524408 H          1 MOL1         0.0750
      16    H8      18.028882   16.832866   23.062225 H          1 MOL1         0.0750
      17    H9      19.298959   17.142031   21.862288 H          1 MOL1         0.0750
@<TRIPOS>BOND
    1     1     2    1
    2     1     3    2
    3     1     4    1
    4     4     5    1
    5     4     6    2
    6     6     7    1
    7     6     8    1
    8     8     9    1
    9     8    10    1
   10     8    11    1
   11    11    12    1
   12    11    13    1
   13    11    14    1
   14    14    15    1
   15    14    16    1
   16    14    17    1
@<TRIPOS>SUBSTRUCTURE
       1 MOL1            1 RESIDUE      1      MOL     
@<SCITEGIC>MOL_PROPERTY
VConf Rank
SciTegic.value.IntegerValue
651

@<SCITEGIC>MOL_PROPERTY
Conf_Id
SciTegic.value.IntegerValue
3

@<SCITEGIC>MOL_PROPERTY
Delta U+W
SciTegic.value.DoubleValue
0.531

@<SCITEGIC>MOL_PROPERTY
U+W
SciTegic.value.DoubleValue
-52.878

@<SCITEGIC>MOL_PROPERTY
Grad RMS
SciTegic.value.DoubleValue
0.000000

@<SCITEGIC>MOL_PROPERTY
U
SciTegic.value.DoubleValue
10.067

@<SCITEGIC>MOL_PROPERTY
W
SciTegic.value.DoubleValue
-62.945

@<SCITEGIC>MOL_PROPERTY
W(PB)
SciTegic.value.DoubleValue
-64.982

@<SCITEGIC>MOL_PROPERTY
W(SA)
SciTegic.value.DoubleValue
2.037

@<SCITEGIC>MOL_PROPERTY
Valence
SciTegic.value.DoubleValue
2.779

@<SCITEGIC>MOL_PROPERTY
Coulomb
SciTegic.value.DoubleValue
6.474

@<SCITEGIC>MOL_PROPERTY
VdW
SciTegic.value.DoubleValue
0.815

@<SCITEGIC>MOL_PROPERTY
VdW6
SciTegic.value.DoubleValue
-5.088

@<SCITEGIC>MOL_PROPERTY
VdW12
SciTegic.value.DoubleValue
5.902

@<SCITEGIC>MOL_PROPERTY
Bond
SciTegic.value.DoubleValue
0.078

@<SCITEGIC>MOL_PROPERTY
Angle
SciTegic.value.DoubleValue
2.651

@<SCITEGIC>MOL_PROPERTY
Pdih
SciTegic.value.DoubleValue
0.050

@<SCITEGIC>MOL_PROPERTY
Idih
SciTegic.value.DoubleValue
0.000

@<SCITEGIC>MOL_PROPERTY
Tether
SciTegic.value.DoubleValue
0.000

@<TRIPOS>MOLECULE
guest-s19_confgen4.mol2 : confsearch ligand conformer 652
          17          16           1
SMALL
USER_CHARGES
 
@<TRIPOS>ATOM
       1    C1      17.191104   19.311910   23.221989 C.2        1 MOL1         0.6173
       2    O1      16.118401   19.335061   22.650542 O.co2      1 MOL1        -0.6755
       3    O2      17.345563   19.730997   24.353783 O.co2      1 MOL1        -0.6755
       4    C2      18.349918   18.738321   22.485635 C.2        1 MOL1        -0.1504
       5    H1      18.142607   18.382242   21.479187 H          1 MOL1         0.0814
       6    C3      19.599246   18.651352   22.996711 C.2        1 MOL1        -0.1394
       7    H2      19.816445   19.009082   24.002879 H          1 MOL1         0.0817
       8    C4      20.777560   18.069397   22.243558 C.3        1 MOL1        -0.1849
       9    H3      20.432623   17.467739   21.391639 H          1 MOL1         0.0736
      10    H4      21.320112   17.380107   22.904259 H          1 MOL1         0.0736
      11    C5      21.752658   19.159639   21.747853 C.3        1 MOL1        -0.1866
      12    H5      22.096155   19.763655   22.599107 H          1 MOL1         0.0738
      13    H6      22.644746   18.677315   21.325077 H          1 MOL1         0.0738
      14    C6      21.123088   20.077930   20.678641 C.3        1 MOL1        -0.2879
      15    H7      20.264133   20.627791   21.084723 H          1 MOL1         0.0750
      16    H8      21.855357   20.813832   20.322135 H          1 MOL1         0.0750
      17    H9      20.779163   19.495353   19.814112 H          1 MOL1         0.0750
@<TRIPOS>BOND
    1     1     2    1
    2     1     3    2
    3     1     4    1
    4     4     5    1
    5     4     6    2
    6     6     7    1
    7     6     8    1
    8     8     9    1
    9     8    10    1
   10     8    11    1
   11    11    12    1
   12    11    13    1
   13    11    14    1
   14    14    15    1
   15    14    16    1
   16    14    17    1
@<TRIPOS>SUBSTRUCTURE
       1 MOL1            1 RESIDUE      1      MOL     
@<SCITEGIC>MOL_PROPERTY
VConf Rank
SciTegic.value.IntegerValue
652

@<SCITEGIC>MOL_PROPERTY
Conf_Id
SciTegic.value.IntegerValue
45

@<SCITEGIC>MOL_PROPERTY
Delta U+W
SciTegic.value.DoubleValue
0.562

@<SCITEGIC>MOL_PROPERTY
U+W
SciTegic.value.DoubleValue
-52.846

@<SCITEGIC>MOL_PROPERTY
Grad RMS
SciTegic.value.DoubleValue
0.000000

@<SCITEGIC>MOL_PROPERTY
U
SciTegic.value.DoubleValue
10.243

@<SCITEGIC>MOL_PROPERTY
W
SciTegic.value.DoubleValue
-63.089

@<SCITEGIC>MOL_PROPERTY
W(PB)
SciTegic.value.DoubleValue
-65.116

@<SCITEGIC>MOL_PROPERTY
W(SA)
SciTegic.value.DoubleValue
2.026

@<SCITEGIC>MOL_PROPERTY
Valence
SciTegic.value.DoubleValue
2.822

@<SCITEGIC>MOL_PROPERTY
Coulomb
SciTegic.value.DoubleValue
6.637

@<SCITEGIC>MOL_PROPERTY
VdW
SciTegic.value.DoubleValue
0.785

@<SCITEGIC>MOL_PROPERTY
VdW6
SciTegic.value.DoubleValue
-5.216

@<SCITEGIC>MOL_PROPERTY
VdW12
SciTegic.value.DoubleValue
6.001

@<SCITEGIC>MOL_PROPERTY
Bond
SciTegic.value.DoubleValue
0.080

@<SCITEGIC>MOL_PROPERTY
Angle
SciTegic.value.DoubleValue
2.678

@<SCITEGIC>MOL_PROPERTY
Pdih
SciTegic.value.DoubleValue
0.064

@<SCITEGIC>MOL_PROPERTY
Idih
SciTegic.value.DoubleValue
0.000

@<SCITEGIC>MOL_PROPERTY
Tether
SciTegic.value.DoubleValue
0.000

@<TRIPOS>MOLECULE
guest-s19_confgen4.mol2 : confsearch ligand conformer 653
          17          16           1
SMALL
USER_CHARGES
 
@<TRIPOS>ATOM
       1    C1      17.495865   18.650492   24.132335 C.2        1 MOL1         0.6173
       2    O1      16.319696   18.419733   23.929649 O.co2      1 MOL1        -0.6755
       3    O2      17.926392   18.979270   25.221805 O.co2      1 MOL1        -0.6755
       4    C2      18.430805   18.516905   22.982464 C.2        1 MOL1        -0.1504
       5    H1      17.981542   18.220029   22.037511 H          1 MOL1         0.0814
       6    C3      19.761727   18.743301   23.062939 C.2        1 MOL1        -0.1394
       7    H2      20.221900   19.043464   24.004170 H          1 MOL1         0.0817
       8    C4      20.705355   18.607292   21.888075 C.3        1 MOL1        -0.1849
       9    H3      20.414100   17.747039   21.270057 H          1 MOL1         0.0736
      10    H4      21.720216   18.400157   22.253506 H          1 MOL1         0.0736
      11    C5      20.718091   19.886614   21.026573 C.3        1 MOL1        -0.1866
      12    H5      19.704114   20.092956   20.656663 H          1 MOL1         0.0738
      13    H6      21.011650   20.745225   21.646393 H          1 MOL1         0.0738
      14    C6      21.684766   19.759567   19.832033 C.3        1 MOL1        -0.2879
      15    H7      22.712814   19.584371   20.175332 H          1 MOL1         0.0750
      16    H8      21.394596   18.926208   19.178771 H          1 MOL1         0.0750
      17    H9      21.680122   20.678413   19.231340 H          1 MOL1         0.0750
@<TRIPOS>BOND
    1     1     2    1
    2     1     3    2
    3     1     4    1
    4     4     5    1
    5     4     6    2
    6     6     7    1
    7     6     8    1
    8     8     9    1
    9     8    10    1
   10     8    11    1
   11    11    12    1
   12    11    13    1
   13    11    14    1
   14    14    15    1
   15    14    16    1
   16    14    17    1
@<TRIPOS>SUBSTRUCTURE
       1 MOL1            1 RESIDUE      1      MOL     
@<SCITEGIC>MOL_PROPERTY
VConf Rank
SciTegic.value.IntegerValue
653

@<SCITEGIC>MOL_PROPERTY
Conf_Id
SciTegic.value.IntegerValue
36

@<SCITEGIC>MOL_PROPERTY
Delta U+W
SciTegic.value.DoubleValue
0.000

@<SCITEGIC>MOL_PROPERTY
U+W
SciTegic.value.DoubleValue
-53.409

@<SCITEGIC>MOL_PROPERTY
Grad RMS
SciTegic.value.DoubleValue
0.000000

@<SCITEGIC>MOL_PROPERTY
U
SciTegic.value.DoubleValue
9.048

@<SCITEGIC>MOL_PROPERTY
W
SciTegic.value.DoubleValue
-62.457

@<SCITEGIC>MOL_PROPERTY
W(PB)
SciTegic.value.DoubleValue
-64.540

@<SCITEGIC>MOL_PROPERTY
W(SA)
SciTegic.value.DoubleValue
2.084

@<SCITEGIC>MOL_PROPERTY
Valence
SciTegic.value.DoubleValue
2.652

@<SCITEGIC>MOL_PROPERTY
Coulomb
SciTegic.value.DoubleValue
5.578

@<SCITEGIC>MOL_PROPERTY
VdW
SciTegic.value.DoubleValue
0.818

@<SCITEGIC>MOL_PROPERTY
VdW6
SciTegic.value.DoubleValue
-4.534

@<SCITEGIC>MOL_PROPERTY
VdW12
SciTegic.value.DoubleValue
5.352

@<SCITEGIC>MOL_PROPERTY
Bond
SciTegic.value.DoubleValue
0.063

@<SCITEGIC>MOL_PROPERTY
Angle
SciTegic.value.DoubleValue
2.579

@<SCITEGIC>MOL_PROPERTY
Pdih
SciTegic.value.DoubleValue
0.010

@<SCITEGIC>MOL_PROPERTY
Idih
SciTegic.value.DoubleValue
0.000

@<SCITEGIC>MOL_PROPERTY
Tether
SciTegic.value.DoubleValue
0.000

@<TRIPOS>MOLECULE
guest-s19_confgen4.mol2 : confsearch ligand conformer 654
          17          16           1
SMALL
USER_CHARGES
 
@<TRIPOS>ATOM
       1    C1      23.150314   17.957265   21.412547 C.2        1 MOL1         0.6173
       2    O1      23.656278   17.822769   22.510866 O.co2      1 MOL1        -0.6755
       3    O2      23.786968   17.886464   20.379414 O.co2      1 MOL1        -0.6755
       4    C2      21.689622   18.219244   21.303418 C.2        1 MOL1        -0.1504
       5    H1      21.301326   18.329201   20.293445 H          1 MOL1         0.0814
       6    C3      20.861069   18.323802   22.367211 C.2        1 MOL1        -0.1394
       7    H2      21.239920   18.217508   23.383551 H          1 MOL1         0.0817
       8    C4      19.376866   18.592255   22.247574 C.3        1 MOL1        -0.1849
       9    H3      18.860463   18.206513   23.136909 H          1 MOL1         0.0736
      10    H4      18.965039   18.048315   21.386567 H          1 MOL1         0.0736
      11    C5      19.088875   20.100030   22.096926 C.3        1 MOL1        -0.1866
      12    H5      19.499806   20.641626   22.960278 H          1 MOL1         0.0738
      13    H6      19.601541   20.486736   21.205190 H          1 MOL1         0.0738
      14    C6      17.577358   20.382892   21.983665 C.3        1 MOL1        -0.2879
      15    H7      17.044191   20.034154   22.877838 H          1 MOL1         0.0750
      16    H8      17.392320   21.459731   21.877319 H          1 MOL1         0.0750
      17    H9      17.147535   19.877228   21.109027 H          1 MOL1         0.0750
@<TRIPOS>BOND
    1     1     2    1
    2     1     3    2
    3     1     4    1
    4     4     5    1
    5     4     6    2
    6     6     7    1
    7     6     8    1
    8     8     9    1
    9     8    10    1
   10     8    11    1
   11    11    12    1
   12    11    13    1
   13    11    14    1
   14    14    15    1
   15    14    16    1
   16    14    17    1
@<TRIPOS>SUBSTRUCTURE
       1 MOL1            1 RESIDUE      1      MOL     
@<SCITEGIC>MOL_PROPERTY
VConf Rank
SciTegic.value.IntegerValue
654

@<SCITEGIC>MOL_PROPERTY
Conf_Id
SciTegic.value.IntegerValue
1

@<SCITEGIC>MOL_PROPERTY
Delta U+W
SciTegic.value.DoubleValue
0.030

@<SCITEGIC>MOL_PROPERTY
U+W
SciTegic.value.DoubleValue
-53.378

@<SCITEGIC>MOL_PROPERTY
Grad RMS
SciTegic.value.DoubleValue
0.000000

@<SCITEGIC>MOL_PROPERTY
U
SciTegic.value.DoubleValue
9.048

@<SCITEGIC>MOL_PROPERTY
W
SciTegic.value.DoubleValue
-62.426

@<SCITEGIC>MOL_PROPERTY
W(PB)
SciTegic.value.DoubleValue
-64.506

@<SCITEGIC>MOL_PROPERTY
W(SA)
SciTegic.value.DoubleValue
2.080

@<SCITEGIC>MOL_PROPERTY
Valence
SciTegic.value.DoubleValue
2.652

@<SCITEGIC>MOL_PROPERTY
Coulomb
SciTegic.value.DoubleValue
5.578

@<SCITEGIC>MOL_PROPERTY
VdW
SciTegic.value.DoubleValue
0.818

@<SCITEGIC>MOL_PROPERTY
VdW6
SciTegic.value.DoubleValue
-4.535

@<SCITEGIC>MOL_PROPERTY
VdW12
SciTegic.value.DoubleValue
5.352

@<SCITEGIC>MOL_PROPERTY
Bond
SciTegic.value.DoubleValue
0.063

@<SCITEGIC>MOL_PROPERTY
Angle
SciTegic.value.DoubleValue
2.579

@<SCITEGIC>MOL_PROPERTY
Pdih
SciTegic.value.DoubleValue
0.010

@<SCITEGIC>MOL_PROPERTY
Idih
SciTegic.value.DoubleValue
0.000

@<SCITEGIC>MOL_PROPERTY
Tether
SciTegic.value.DoubleValue
0.000

@<TRIPOS>MOLECULE
guest-s19_confgen4.mol2 : confsearch ligand conformer 655
          17          16           1
SMALL
USER_CHARGES
 
@<TRIPOS>ATOM
       1    C1      19.141936   16.366378   23.203021 C.2        1 MOL1         0.6173
       2    O1      19.909295   16.269558   24.142291 O.co2      1 MOL1        -0.6755
       3    O2      18.148070   15.675692   23.089033 O.co2      1 MOL1        -0.6755
       4    C2      19.412074   17.364013   22.132581 C.2        1 MOL1        -0.1504
       5    H1      18.687961   17.398258   21.321873 H          1 MOL1         0.0814
       6    C3      20.477093   18.197509   22.130554 C.2        1 MOL1        -0.1394
       7    H2      21.206886   18.173989   22.939533 H          1 MOL1         0.0817
       8    C4      20.743433   19.213140   21.039421 C.3        1 MOL1        -0.1849
       9    H3      20.515998   18.770094   20.060385 H          1 MOL1         0.0736
      10    H4      21.811669   19.467642   21.019568 H          1 MOL1         0.0736
      11    C5      19.909155   20.500557   21.218583 C.3        1 MOL1        -0.1866
      12    H5      20.062887   21.152299   20.347519 H          1 MOL1         0.0738
      13    H6      18.839624   20.249219   21.237581 H          1 MOL1         0.0738
      14    C6      20.284104   21.274717   22.500302 C.3        1 MOL1        -0.2879
      15    H7      21.347402   21.547727   22.497281 H          1 MOL1         0.0750
      16    H8      19.697090   22.198951   22.578492 H          1 MOL1         0.0750
      17    H9      20.086878   20.674056   23.397815 H          1 MOL1         0.0750
@<TRIPOS>BOND
    1     1     2    1
    2     1     3    2
    3     1     4    1
    4     4     5    1
    5     4     6    2
    6     6     7    1
    7     6     8    1
    8     8     9    1
    9     8    10    1
   10     8    11    1
   11    11    12    1
   12    11    13    1
   13    11    14    1
   14    14    15    1
   15    14    16    1
   16    14    17    1
@<TRIPOS>SUBSTRUCTURE
       1 MOL1            1 RESIDUE      1      MOL     
@<SCITEGIC>MOL_PROPERTY
VConf Rank
SciTegic.value.IntegerValue
655

@<SCITEGIC>MOL_PROPERTY
Conf_Id
SciTegic.value.IntegerValue
3

@<SCITEGIC>MOL_PROPERTY
Delta U+W
SciTegic.value.DoubleValue
0.531

@<SCITEGIC>MOL_PROPERTY
U+W
SciTegic.value.DoubleValue
-52.878

@<SCITEGIC>MOL_PROPERTY
Grad RMS
SciTegic.value.DoubleValue
0.000000

@<SCITEGIC>MOL_PROPERTY
U
SciTegic.value.DoubleValue
10.067

@<SCITEGIC>MOL_PROPERTY
W
SciTegic.value.DoubleValue
-62.945

@<SCITEGIC>MOL_PROPERTY
W(PB)
SciTegic.value.DoubleValue
-64.982

@<SCITEGIC>MOL_PROPERTY
W(SA)
SciTegic.value.DoubleValue
2.037

@<SCITEGIC>MOL_PROPERTY
Valence
SciTegic.value.DoubleValue
2.779

@<SCITEGIC>MOL_PROPERTY
Coulomb
SciTegic.value.DoubleValue
6.474

@<SCITEGIC>MOL_PROPERTY
VdW
SciTegic.value.DoubleValue
0.815

@<SCITEGIC>MOL_PROPERTY
VdW6
SciTegic.value.DoubleValue
-5.088

@<SCITEGIC>MOL_PROPERTY
VdW12
SciTegic.value.DoubleValue
5.902

@<SCITEGIC>MOL_PROPERTY
Bond
SciTegic.value.DoubleValue
0.078

@<SCITEGIC>MOL_PROPERTY
Angle
SciTegic.value.DoubleValue
2.651

@<SCITEGIC>MOL_PROPERTY
Pdih
SciTegic.value.DoubleValue
0.050

@<SCITEGIC>MOL_PROPERTY
Idih
SciTegic.value.DoubleValue
0.000

@<SCITEGIC>MOL_PROPERTY
Tether
SciTegic.value.DoubleValue
0.000

@<TRIPOS>MOLECULE
guest-s19_confgen4.mol2 : confsearch ligand conformer 656
          17          16           1
SMALL
USER_CHARGES
 
@<TRIPOS>ATOM
       1    C1      22.819176   19.034364   21.058733 C.2        1 MOL1         0.6173
       2    O1      23.308442   19.585333   20.091867 O.co2      1 MOL1        -0.6755
       3    O2      23.323511   18.063304   21.590840 O.co2      1 MOL1        -0.6755
       4    C2      21.549810   19.592368   21.598561 C.2        1 MOL1        -0.1504
       5    H1      21.153637   20.460082   21.076234 H          1 MOL1         0.0814
       6    C3      20.895077   19.080155   22.665588 C.2        1 MOL1        -0.1394
       7    H2      21.283109   18.208739   23.192450 H          1 MOL1         0.0817
       8    C4      19.601493   19.648802   23.211132 C.3        1 MOL1        -0.1849
       9    H3      19.442228   20.670794   22.841124 H          1 MOL1         0.0736
      10    H4      19.677568   19.728174   24.303799 H          1 MOL1         0.0736
      11    C5      18.380319   18.772369   22.856495 C.3        1 MOL1        -0.1866
      12    H5      18.539965   17.749167   23.223960 H          1 MOL1         0.0738
      13    H6      17.496363   19.159956   23.381468 H          1 MOL1         0.0738
      14    C6      18.091505   18.741635   21.340424 C.3        1 MOL1        -0.2879
      15    H7      18.929634   18.299350   20.786369 H          1 MOL1         0.0750
      16    H8      17.196003   18.142722   21.130079 H          1 MOL1         0.0750
      17    H9      17.921039   19.754408   20.952706 H          1 MOL1         0.0750
@<TRIPOS>BOND
    1     1     2    1
    2     1     3    2
    3     1     4    1
    4     4     5    1
    5     4     6    2
    6     6     7    1
    7     6     8    1
    8     8     9    1
    9     8    10    1
   10     8    11    1
   11    11    12    1
   12    11    13    1
   13    11    14    1
   14    14    15    1
   15    14    16    1
   16    14    17    1
@<TRIPOS>SUBSTRUCTURE
       1 MOL1            1 RESIDUE      1      MOL     
@<SCITEGIC>MOL_PROPERTY
VConf Rank
SciTegic.value.IntegerValue
656

@<SCITEGIC>MOL_PROPERTY
Conf_Id
SciTegic.value.IntegerValue
45

@<SCITEGIC>MOL_PROPERTY
Delta U+W
SciTegic.value.DoubleValue
0.562

@<SCITEGIC>MOL_PROPERTY
U+W
SciTegic.value.DoubleValue
-52.846

@<SCITEGIC>MOL_PROPERTY
Grad RMS
SciTegic.value.DoubleValue
0.000000

@<SCITEGIC>MOL_PROPERTY
U
SciTegic.value.DoubleValue
10.243

@<SCITEGIC>MOL_PROPERTY
W
SciTegic.value.DoubleValue
-63.089

@<SCITEGIC>MOL_PROPERTY
W(PB)
SciTegic.value.DoubleValue
-65.116

@<SCITEGIC>MOL_PROPERTY
W(SA)
SciTegic.value.DoubleValue
2.026

@<SCITEGIC>MOL_PROPERTY
Valence
SciTegic.value.DoubleValue
2.822

@<SCITEGIC>MOL_PROPERTY
Coulomb
SciTegic.value.DoubleValue
6.637

@<SCITEGIC>MOL_PROPERTY
VdW
SciTegic.value.DoubleValue
0.785

@<SCITEGIC>MOL_PROPERTY
VdW6
SciTegic.value.DoubleValue
-5.216

@<SCITEGIC>MOL_PROPERTY
VdW12
SciTegic.value.DoubleValue
6.001

@<SCITEGIC>MOL_PROPERTY
Bond
SciTegic.value.DoubleValue
0.080

@<SCITEGIC>MOL_PROPERTY
Angle
SciTegic.value.DoubleValue
2.678

@<SCITEGIC>MOL_PROPERTY
Pdih
SciTegic.value.DoubleValue
0.064

@<SCITEGIC>MOL_PROPERTY
Idih
SciTegic.value.DoubleValue
0.000

@<SCITEGIC>MOL_PROPERTY
Tether
SciTegic.value.DoubleValue
0.000

@<TRIPOS>MOLECULE
guest-s19_confgen4.mol2 : confsearch ligand conformer 657
          17          16           1
SMALL
USER_CHARGES
 
@<TRIPOS>ATOM
       1    C1      17.031837   19.755381   23.397390 C.2        1 MOL1         0.6173
       2    O1      16.649487   20.769747   23.947457 O.co2      1 MOL1        -0.6755
       3    O2      16.451071   18.690855   23.496835 O.co2      1 MOL1        -0.6755
       4    C2      18.265727   19.844930   22.570554 C.2        1 MOL1        -0.1504
       5    H1      18.735532   20.824722   22.523662 H          1 MOL1         0.0814
       6    C3      18.804551   18.798229   21.904843 C.2        1 MOL1        -0.1394
       7    H2      18.343361   17.811664   21.946875 H          1 MOL1         0.0817
       8    C4      20.061054   18.897302   21.067811 C.3        1 MOL1        -0.1849
       9    H3      20.077917   19.853600   20.527423 H          1 MOL1         0.0736
      10    H4      20.057938   18.107261   20.304783 H          1 MOL1         0.0736
      11    C5      21.327763   18.768986   21.938440 C.3        1 MOL1        -0.1866
      12    H5      21.334519   19.561357   22.699796 H          1 MOL1         0.0738
      13    H6      21.309588   17.810898   22.476311 H          1 MOL1         0.0738
      14    C6      22.612977   18.859503   21.091351 C.3        1 MOL1        -0.2879
      15    H7      22.646880   18.057977   20.341793 H          1 MOL1         0.0750
      16    H8      22.670745   19.822291   20.566814 H          1 MOL1         0.0750
      17    H9      23.502803   18.766335   21.727480 H          1 MOL1         0.0750
@<TRIPOS>BOND
    1     1     2    1
    2     1     3    2
    3     1     4    1
    4     4     5    1
    5     4     6    2
    6     6     7    1
    7     6     8    1
    8     8     9    1
    9     8    10    1
   10     8    11    1
   11    11    12    1
   12    11    13    1
   13    11    14    1
   14    14    15    1
   15    14    16    1
   16    14    17    1
@<TRIPOS>SUBSTRUCTURE
       1 MOL1            1 RESIDUE      1      MOL     
@<SCITEGIC>MOL_PROPERTY
VConf Rank
SciTegic.value.IntegerValue
657

@<SCITEGIC>MOL_PROPERTY
Conf_Id
SciTegic.value.IntegerValue
36

@<SCITEGIC>MOL_PROPERTY
Delta U+W
SciTegic.value.DoubleValue
0.000

@<SCITEGIC>MOL_PROPERTY
U+W
SciTegic.value.DoubleValue
-53.409

@<SCITEGIC>MOL_PROPERTY
Grad RMS
SciTegic.value.DoubleValue
0.000000

@<SCITEGIC>MOL_PROPERTY
U
SciTegic.value.DoubleValue
9.048

@<SCITEGIC>MOL_PROPERTY
W
SciTegic.value.DoubleValue
-62.457

@<SCITEGIC>MOL_PROPERTY
W(PB)
SciTegic.value.DoubleValue
-64.540

@<SCITEGIC>MOL_PROPERTY
W(SA)
SciTegic.value.DoubleValue
2.084

@<SCITEGIC>MOL_PROPERTY
Valence
SciTegic.value.DoubleValue
2.652

@<SCITEGIC>MOL_PROPERTY
Coulomb
SciTegic.value.DoubleValue
5.578

@<SCITEGIC>MOL_PROPERTY
VdW
SciTegic.value.DoubleValue
0.818

@<SCITEGIC>MOL_PROPERTY
VdW6
SciTegic.value.DoubleValue
-4.534

@<SCITEGIC>MOL_PROPERTY
VdW12
SciTegic.value.DoubleValue
5.352

@<SCITEGIC>MOL_PROPERTY
Bond
SciTegic.value.DoubleValue
0.063

@<SCITEGIC>MOL_PROPERTY
Angle
SciTegic.value.DoubleValue
2.579

@<SCITEGIC>MOL_PROPERTY
Pdih
SciTegic.value.DoubleValue
0.010

@<SCITEGIC>MOL_PROPERTY
Idih
SciTegic.value.DoubleValue
0.000

@<SCITEGIC>MOL_PROPERTY
Tether
SciTegic.value.DoubleValue
0.000

@<TRIPOS>MOLECULE
guest-s19_confgen4.mol2 : confsearch ligand conformer 658
          17          16           1
SMALL
USER_CHARGES
 
@<TRIPOS>ATOM
       1    C1      23.091813   20.383197   21.422471 C.2        1 MOL1         0.6173
       2    O1      22.943112   21.432121   20.824106 O.co2      1 MOL1        -0.6755
       3    O2      24.178591   19.862218   21.581219 O.co2      1 MOL1        -0.6755
       4    C2      21.906576   19.689534   21.995363 C.2        1 MOL1        -0.1504
       5    H1      22.108840   18.757242   22.517694 H          1 MOL1         0.0814
       6    C3      20.640072   20.152978   21.893996 C.2        1 MOL1        -0.1394
       7    H2      20.425871   21.084825   21.370974 H          1 MOL1         0.0817
       8    C4      19.439916   19.440342   22.477960 C.3        1 MOL1        -0.1849
       9    H3      18.637330   20.165960   22.666960 H          1 MOL1         0.0736
      10    H4      19.700270   19.001852   23.450970 H          1 MOL1         0.0736
      11    C5      18.925673   18.337064   21.530675 C.3        1 MOL1        -0.1866
      12    H5      18.663897   18.778406   20.558946 H          1 MOL1         0.0738
      13    H6      19.726295   17.607931   21.343784 H          1 MOL1         0.0738
      14    C6      17.696546   17.611977   22.114644 C.3        1 MOL1        -0.2879
      15    H7      16.868915   18.313786   22.281743 H          1 MOL1         0.0750
      16    H8      17.345298   16.831395   21.427296 H          1 MOL1         0.0750
      17    H9      17.940476   17.134906   23.072943 H          1 MOL1         0.0750
@<TRIPOS>BOND
    1     1     2    1
    2     1     3    2
    3     1     4    1
    4     4     5    1
    5     4     6    2
    6     6     7    1
    7     6     8    1
    8     8     9    1
    9     8    10    1
   10     8    11    1
   11    11    12    1
   12    11    13    1
   13    11    14    1
   14    14    15    1
   15    14    16    1
   16    14    17    1
@<TRIPOS>SUBSTRUCTURE
       1 MOL1            1 RESIDUE      1      MOL     
@<SCITEGIC>MOL_PROPERTY
VConf Rank
SciTegic.value.IntegerValue
658

@<SCITEGIC>MOL_PROPERTY
Conf_Id
SciTegic.value.IntegerValue
1

@<SCITEGIC>MOL_PROPERTY
Delta U+W
SciTegic.value.DoubleValue
0.030

@<SCITEGIC>MOL_PROPERTY
U+W
SciTegic.value.DoubleValue
-53.378

@<SCITEGIC>MOL_PROPERTY
Grad RMS
SciTegic.value.DoubleValue
0.000000

@<SCITEGIC>MOL_PROPERTY
U
SciTegic.value.DoubleValue
9.048

@<SCITEGIC>MOL_PROPERTY
W
SciTegic.value.DoubleValue
-62.426

@<SCITEGIC>MOL_PROPERTY
W(PB)
SciTegic.value.DoubleValue
-64.506

@<SCITEGIC>MOL_PROPERTY
W(SA)
SciTegic.value.DoubleValue
2.080

@<SCITEGIC>MOL_PROPERTY
Valence
SciTegic.value.DoubleValue
2.652

@<SCITEGIC>MOL_PROPERTY
Coulomb
SciTegic.value.DoubleValue
5.578

@<SCITEGIC>MOL_PROPERTY
VdW
SciTegic.value.DoubleValue
0.818

@<SCITEGIC>MOL_PROPERTY
VdW6
SciTegic.value.DoubleValue
-4.535

@<SCITEGIC>MOL_PROPERTY
VdW12
SciTegic.value.DoubleValue
5.352

@<SCITEGIC>MOL_PROPERTY
Bond
SciTegic.value.DoubleValue
0.063

@<SCITEGIC>MOL_PROPERTY
Angle
SciTegic.value.DoubleValue
2.579

@<SCITEGIC>MOL_PROPERTY
Pdih
SciTegic.value.DoubleValue
0.010

@<SCITEGIC>MOL_PROPERTY
Idih
SciTegic.value.DoubleValue
0.000

@<SCITEGIC>MOL_PROPERTY
Tether
SciTegic.value.DoubleValue
0.000

@<TRIPOS>MOLECULE
guest-s19_confgen4.mol2 : confsearch ligand conformer 659
          17          16           1
SMALL
USER_CHARGES
 
@<TRIPOS>ATOM
       1    C1      22.312071   20.417063   20.480615 C.2        1 MOL1         0.6173
       2    O1      21.959781   21.580980   20.520984 O.co2      1 MOL1        -0.6755
       3    O2      23.439015   20.078990   20.174816 O.co2      1 MOL1        -0.6755
       4    C2      21.338217   19.342070   20.812415 C.2        1 MOL1        -0.1504
       5    H1      21.717177   18.324248   20.755959 H          1 MOL1         0.0814
       6    C3      20.054395   19.572276   21.169896 C.2        1 MOL1        -0.1394
       7    H2      19.665257   20.588246   21.232929 H          1 MOL1         0.0817
       8    C4      19.069951   18.473089   21.510002 C.3        1 MOL1        -0.1849
       9    H3      19.200321   17.633532   20.813816 H          1 MOL1         0.0736
      10    H4      18.042929   18.834348   21.365047 H          1 MOL1         0.0736
      11    C5      19.237756   17.961133   22.957518 C.3        1 MOL1        -0.1866
      12    H5      18.574394   17.099162   23.112799 H          1 MOL1         0.0738
      13    H6      20.264199   17.597796   23.105260 H          1 MOL1         0.0738
      14    C6      18.913009   19.043505   24.009052 C.3        1 MOL1        -0.2879
      15    H7      17.886273   19.412798   23.888296 H          1 MOL1         0.0750
      16    H8      19.009745   18.636786   25.024005 H          1 MOL1         0.0750
      17    H9      19.597066   19.897777   23.922423 H          1 MOL1         0.0750
@<TRIPOS>BOND
    1     1     2    1
    2     1     3    2
    3     1     4    1
    4     4     5    1
    5     4     6    2
    6     6     7    1
    7     6     8    1
    8     8     9    1
    9     8    10    1
   10     8    11    1
   11    11    12    1
   12    11    13    1
   13    11    14    1
   14    14    15    1
   15    14    16    1
   16    14    17    1
@<TRIPOS>SUBSTRUCTURE
       1 MOL1            1 RESIDUE      1      MOL     
@<SCITEGIC>MOL_PROPERTY
VConf Rank
SciTegic.value.IntegerValue
659

@<SCITEGIC>MOL_PROPERTY
Conf_Id
SciTegic.value.IntegerValue
3

@<SCITEGIC>MOL_PROPERTY
Delta U+W
SciTegic.value.DoubleValue
0.531

@<SCITEGIC>MOL_PROPERTY
U+W
SciTegic.value.DoubleValue
-52.878

@<SCITEGIC>MOL_PROPERTY
Grad RMS
SciTegic.value.DoubleValue
0.000000

@<SCITEGIC>MOL_PROPERTY
U
SciTegic.value.DoubleValue
10.067

@<SCITEGIC>MOL_PROPERTY
W
SciTegic.value.DoubleValue
-62.945

@<SCITEGIC>MOL_PROPERTY
W(PB)
SciTegic.value.DoubleValue
-64.982

@<SCITEGIC>MOL_PROPERTY
W(SA)
SciTegic.value.DoubleValue
2.037

@<SCITEGIC>MOL_PROPERTY
Valence
SciTegic.value.DoubleValue
2.779

@<SCITEGIC>MOL_PROPERTY
Coulomb
SciTegic.value.DoubleValue
6.474

@<SCITEGIC>MOL_PROPERTY
VdW
SciTegic.value.DoubleValue
0.815

@<SCITEGIC>MOL_PROPERTY
VdW6
SciTegic.value.DoubleValue
-5.088

@<SCITEGIC>MOL_PROPERTY
VdW12
SciTegic.value.DoubleValue
5.902

@<SCITEGIC>MOL_PROPERTY
Bond
SciTegic.value.DoubleValue
0.078

@<SCITEGIC>MOL_PROPERTY
Angle
SciTegic.value.DoubleValue
2.651

@<SCITEGIC>MOL_PROPERTY
Pdih
SciTegic.value.DoubleValue
0.050

@<SCITEGIC>MOL_PROPERTY
Idih
SciTegic.value.DoubleValue
0.000

@<SCITEGIC>MOL_PROPERTY
Tether
SciTegic.value.DoubleValue
0.000

@<TRIPOS>MOLECULE
guest-s19_confgen4.mol2 : confsearch ligand conformer 660
          17          16           1
SMALL
USER_CHARGES
 
@<TRIPOS>ATOM
       1    C1      17.765900   17.194664   22.851738 C.2        1 MOL1         0.6173
       2    O1      16.662751   17.048237   22.362449 O.co2      1 MOL1        -0.6755
       3    O2      18.040774   16.833624   23.980694 O.co2      1 MOL1        -0.6755
       4    C2      18.809441   17.843376   22.012531 C.2        1 MOL1        -0.1504
       5    H1      18.497151   18.141365   21.014341 H          1 MOL1         0.0814
       6    C3      20.076282   18.071507   22.428047 C.2        1 MOL1        -0.1394
       7    H2      20.396484   17.779451   23.427893 H          1 MOL1         0.0817
       8    C4      21.135670   18.734656   21.572320 C.3        1 MOL1        -0.1849
       9    H3      20.843410   18.717914   20.513526 H          1 MOL1         0.0736
      10    H4      22.066239   18.155609   21.641285 H          1 MOL1         0.0736
      11    C5      21.417051   20.188760   22.010007 C.3        1 MOL1        -0.1866
      12    H5      21.706925   20.206698   23.069776 H          1 MOL1         0.0738
      13    H6      22.275910   20.573878   21.443223 H          1 MOL1         0.0738
      14    C6      20.207506   21.121202   21.785548 C.3        1 MOL1        -0.2879
      15    H7      19.346029   20.804488   22.387713 H          1 MOL1         0.0750
      16    H8      20.456299   22.151634   22.070468 H          1 MOL1         0.0750
      17    H9      19.905055   21.124657   20.730274 H          1 MOL1         0.0750
@<TRIPOS>BOND
    1     1     2    1
    2     1     3    2
    3     1     4    1
    4     4     5    1
    5     4     6    2
    6     6     7    1
    7     6     8    1
    8     8     9    1
    9     8    10    1
   10     8    11    1
   11    11    12    1
   12    11    13    1
   13    11    14    1
   14    14    15    1
   15    14    16    1
   16    14    17    1
@<TRIPOS>SUBSTRUCTURE
       1 MOL1            1 RESIDUE      1      MOL     
@<SCITEGIC>MOL_PROPERTY
VConf Rank
SciTegic.value.IntegerValue
660

@<SCITEGIC>MOL_PROPERTY
Conf_Id
SciTegic.value.IntegerValue
45

@<SCITEGIC>MOL_PROPERTY
Delta U+W
SciTegic.value.DoubleValue
0.562

@<SCITEGIC>MOL_PROPERTY
U+W
SciTegic.value.DoubleValue
-52.846

@<SCITEGIC>MOL_PROPERTY
Grad RMS
SciTegic.value.DoubleValue
0.000000

@<SCITEGIC>MOL_PROPERTY
U
SciTegic.value.DoubleValue
10.243

@<SCITEGIC>MOL_PROPERTY
W
SciTegic.value.DoubleValue
-63.089

@<SCITEGIC>MOL_PROPERTY
W(PB)
SciTegic.value.DoubleValue
-65.116

@<SCITEGIC>MOL_PROPERTY
W(SA)
SciTegic.value.DoubleValue
2.026

@<SCITEGIC>MOL_PROPERTY
Valence
SciTegic.value.DoubleValue
2.822

@<SCITEGIC>MOL_PROPERTY
Coulomb
SciTegic.value.DoubleValue
6.637

@<SCITEGIC>MOL_PROPERTY
VdW
SciTegic.value.DoubleValue
0.785

@<SCITEGIC>MOL_PROPERTY
VdW6
SciTegic.value.DoubleValue
-5.216

@<SCITEGIC>MOL_PROPERTY
VdW12
SciTegic.value.DoubleValue
6.001

@<SCITEGIC>MOL_PROPERTY
Bond
SciTegic.value.DoubleValue
0.080

@<SCITEGIC>MOL_PROPERTY
Angle
SciTegic.value.DoubleValue
2.678

@<SCITEGIC>MOL_PROPERTY
Pdih
SciTegic.value.DoubleValue
0.064

@<SCITEGIC>MOL_PROPERTY
Idih
SciTegic.value.DoubleValue
0.000

@<SCITEGIC>MOL_PROPERTY
Tether
SciTegic.value.DoubleValue
0.000

@<TRIPOS>MOLECULE
guest-s19_confgen4.mol2 : confsearch ligand conformer 661
          17          16           1
SMALL
USER_CHARGES
 
@<TRIPOS>ATOM
       1    C1      22.592485   17.190885   22.866845 C.2        1 MOL1         0.6173
       2    O1      23.155767   16.302427   22.257699 O.co2      1 MOL1        -0.6755
       3    O2      22.752755   17.379629   24.058098 O.co2      1 MOL1        -0.6755
       4    C2      21.672672   18.074137   22.100052 C.2        1 MOL1        -0.1504
       5    H1      21.574684   17.851369   21.040014 H          1 MOL1         0.0814
       6    C3      20.980740   19.098941   22.647860 C.2        1 MOL1        -0.1394
       7    H2      21.069666   19.329423   23.709342 H          1 MOL1         0.0817
       8    C4      20.045570   19.991162   21.861326 C.3        1 MOL1        -0.1849
       9    H3      20.464875   20.189729   20.865553 H          1 MOL1         0.0736
      10    H4      19.957156   20.964323   22.362849 H          1 MOL1         0.0736
      11    C5      18.647832   19.354463   21.720048 C.3        1 MOL1        -0.1866
      12    H5      18.734043   18.382515   21.214633 H          1 MOL1         0.0738
      13    H6      18.229699   19.158696   22.717248 H          1 MOL1         0.0738
      14    C6      17.685720   20.262069   20.927510 C.3        1 MOL1        -0.2879
      15    H7      17.556562   21.230385   21.428623 H          1 MOL1         0.0750
      16    H8      18.066109   20.448139   19.914535 H          1 MOL1         0.0750
      17    H9      16.697417   19.792745   20.837384 H          1 MOL1         0.0750
@<TRIPOS>BOND
    1     1     2    1
    2     1     3    2
    3     1     4    1
    4     4     5    1
    5     4     6    2
    6     6     7    1
    7     6     8    1
    8     8     9    1
    9     8    10    1
   10     8    11    1
   11    11    12    1
   12    11    13    1
   13    11    14    1
   14    14    15    1
   15    14    16    1
   16    14    17    1
@<TRIPOS>SUBSTRUCTURE
       1 MOL1            1 RESIDUE      1      MOL     
@<SCITEGIC>MOL_PROPERTY
VConf Rank
SciTegic.value.IntegerValue
661

@<SCITEGIC>MOL_PROPERTY
Conf_Id
SciTegic.value.IntegerValue
36

@<SCITEGIC>MOL_PROPERTY
Delta U+W
SciTegic.value.DoubleValue
0.000

@<SCITEGIC>MOL_PROPERTY
U+W
SciTegic.value.DoubleValue
-53.409

@<SCITEGIC>MOL_PROPERTY
Grad RMS
SciTegic.value.DoubleValue
0.000000

@<SCITEGIC>MOL_PROPERTY
U
SciTegic.value.DoubleValue
9.048

@<SCITEGIC>MOL_PROPERTY
W
SciTegic.value.DoubleValue
-62.457

@<SCITEGIC>MOL_PROPERTY
W(PB)
SciTegic.value.DoubleValue
-64.540

@<SCITEGIC>MOL_PROPERTY
W(SA)
SciTegic.value.DoubleValue
2.084

@<SCITEGIC>MOL_PROPERTY
Valence
SciTegic.value.DoubleValue
2.652

@<SCITEGIC>MOL_PROPERTY
Coulomb
SciTegic.value.DoubleValue
5.578

@<SCITEGIC>MOL_PROPERTY
VdW
SciTegic.value.DoubleValue
0.818

@<SCITEGIC>MOL_PROPERTY
VdW6
SciTegic.value.DoubleValue
-4.534

@<SCITEGIC>MOL_PROPERTY
VdW12
SciTegic.value.DoubleValue
5.352

@<SCITEGIC>MOL_PROPERTY
Bond
SciTegic.value.DoubleValue
0.063

@<SCITEGIC>MOL_PROPERTY
Angle
SciTegic.value.DoubleValue
2.579

@<SCITEGIC>MOL_PROPERTY
Pdih
SciTegic.value.DoubleValue
0.010

@<SCITEGIC>MOL_PROPERTY
Idih
SciTegic.value.DoubleValue
0.000

@<SCITEGIC>MOL_PROPERTY
Tether
SciTegic.value.DoubleValue
0.000

@<TRIPOS>MOLECULE
guest-s19_confgen4.mol2 : confsearch ligand conformer 662
          17          16           1
SMALL
USER_CHARGES
 
@<TRIPOS>ATOM
       1    C1      19.720854   21.564761   24.190321 C.2        1 MOL1         0.6173
       2    O1      19.281629   21.058436   25.205758 O.co2      1 MOL1        -0.6755
       3    O2      19.803545   22.767565   24.034985 O.co2      1 MOL1        -0.6755
       4    C2      20.184706   20.694158   23.076295 C.2        1 MOL1        -0.1504
       5    H1      20.565798   21.210022   22.197908 H          1 MOL1         0.0814
       6    C3      20.150126   19.342618   23.111350 C.2        1 MOL1        -0.1394
       7    H2      19.768268   18.815580   23.985529 H          1 MOL1         0.0817
       8    C4      20.622142   18.464537   21.973188 C.3        1 MOL1        -0.1849
       9    H3      20.913746   17.480494   22.364357 H          1 MOL1         0.0736
      10    H4      21.521192   18.896912   21.513222 H          1 MOL1         0.0736
      11    C5      19.523331   18.290321   20.904880 C.3        1 MOL1        -0.1866
      12    H5      18.625963   17.855742   21.366873 H          1 MOL1         0.0738
      13    H6      19.233298   19.273738   20.509492 H          1 MOL1         0.0738
      14    C6      19.993493   17.388863   19.745637 C.3        1 MOL1        -0.2879
      15    H7      20.259921   16.387806   20.109412 H          1 MOL1         0.0750
      16    H8      19.199141   17.276712   18.996265 H          1 MOL1         0.0750
      17    H9      20.872338   17.817468   19.246272 H          1 MOL1         0.0750
@<TRIPOS>BOND
    1     1     2    1
    2     1     3    2
    3     1     4    1
    4     4     5    1
    5     4     6    2
    6     6     7    1
    7     6     8    1
    8     8     9    1
    9     8    10    1
   10     8    11    1
   11    11    12    1
   12    11    13    1
   13    11    14    1
   14    14    15    1
   15    14    16    1
   16    14    17    1
@<TRIPOS>SUBSTRUCTURE
       1 MOL1            1 RESIDUE      1      MOL     
@<SCITEGIC>MOL_PROPERTY
VConf Rank
SciTegic.value.IntegerValue
662

@<SCITEGIC>MOL_PROPERTY
Conf_Id
SciTegic.value.IntegerValue
1

@<SCITEGIC>MOL_PROPERTY
Delta U+W
SciTegic.value.DoubleValue
0.030

@<SCITEGIC>MOL_PROPERTY
U+W
SciTegic.value.DoubleValue
-53.378

@<SCITEGIC>MOL_PROPERTY
Grad RMS
SciTegic.value.DoubleValue
0.000000

@<SCITEGIC>MOL_PROPERTY
U
SciTegic.value.DoubleValue
9.048

@<SCITEGIC>MOL_PROPERTY
W
SciTegic.value.DoubleValue
-62.426

@<SCITEGIC>MOL_PROPERTY
W(PB)
SciTegic.value.DoubleValue
-64.506

@<SCITEGIC>MOL_PROPERTY
W(SA)
SciTegic.value.DoubleValue
2.080

@<SCITEGIC>MOL_PROPERTY
Valence
SciTegic.value.DoubleValue
2.652

@<SCITEGIC>MOL_PROPERTY
Coulomb
SciTegic.value.DoubleValue
5.578

@<SCITEGIC>MOL_PROPERTY
VdW
SciTegic.value.DoubleValue
0.818

@<SCITEGIC>MOL_PROPERTY
VdW6
SciTegic.value.DoubleValue
-4.535

@<SCITEGIC>MOL_PROPERTY
VdW12
SciTegic.value.DoubleValue
5.352

@<SCITEGIC>MOL_PROPERTY
Bond
SciTegic.value.DoubleValue
0.063

@<SCITEGIC>MOL_PROPERTY
Angle
SciTegic.value.DoubleValue
2.579

@<SCITEGIC>MOL_PROPERTY
Pdih
SciTegic.value.DoubleValue
0.010

@<SCITEGIC>MOL_PROPERTY
Idih
SciTegic.value.DoubleValue
0.000

@<SCITEGIC>MOL_PROPERTY
Tether
SciTegic.value.DoubleValue
0.000

@<TRIPOS>MOLECULE
guest-s19_confgen4.mol2 : confsearch ligand conformer 663
          17          16           1
SMALL
USER_CHARGES
 
@<TRIPOS>ATOM
       1    C1      21.360966   18.068321   19.470953 C.2        1 MOL1         0.6173
       2    O1      21.445549   19.106937   18.842810 O.co2      1 MOL1        -0.6755
       3    O2      21.983734   17.066635   19.176679 O.co2      1 MOL1        -0.6755
       4    C2      20.459953   17.995035   20.652856 C.2        1 MOL1        -0.1504
       5    H1      20.430335   17.038007   21.168589 H          1 MOL1         0.0814
       6    C3      19.710164   19.030390   21.094266 C.2        1 MOL1        -0.1394
       7    H2      19.734793   19.994635   20.587096 H          1 MOL1         0.0817
       8    C4      18.798246   18.949478   22.300448 C.3        1 MOL1        -0.1849
       9    H3      18.277826   17.982176   22.304481 H          1 MOL1         0.0736
      10    H4      18.016360   19.717487   22.228966 H          1 MOL1         0.0736
      11    C5      19.566236   19.116676   23.630033 C.3        1 MOL1        -0.1866
      12    H5      18.876206   18.944441   24.467498 H          1 MOL1         0.0738
      13    H6      20.348573   18.348721   23.705010 H          1 MOL1         0.0738
      14    C6      20.197351   20.517746   23.776353 C.3        1 MOL1        -0.2879
      15    H7      19.431169   21.301708   23.717082 H          1 MOL1         0.0750
      16    H8      20.705411   20.612879   24.744719 H          1 MOL1         0.0750
      17    H9      20.938682   20.702526   22.987996 H          1 MOL1         0.0750
@<TRIPOS>BOND
    1     1     2    1
    2     1     3    2
    3     1     4    1
    4     4     5    1
    5     4     6    2
    6     6     7    1
    7     6     8    1
    8     8     9    1
    9     8    10    1
   10     8    11    1
   11    11    12    1
   12    11    13    1
   13    11    14    1
   14    14    15    1
   15    14    16    1
   16    14    17    1
@<TRIPOS>SUBSTRUCTURE
       1 MOL1            1 RESIDUE      1      MOL     
@<SCITEGIC>MOL_PROPERTY
VConf Rank
SciTegic.value.IntegerValue
663

@<SCITEGIC>MOL_PROPERTY
Conf_Id
SciTegic.value.IntegerValue
3

@<SCITEGIC>MOL_PROPERTY
Delta U+W
SciTegic.value.DoubleValue
0.531

@<SCITEGIC>MOL_PROPERTY
U+W
SciTegic.value.DoubleValue
-52.878

@<SCITEGIC>MOL_PROPERTY
Grad RMS
SciTegic.value.DoubleValue
0.000000

@<SCITEGIC>MOL_PROPERTY
U
SciTegic.value.DoubleValue
10.067

@<SCITEGIC>MOL_PROPERTY
W
SciTegic.value.DoubleValue
-62.945

@<SCITEGIC>MOL_PROPERTY
W(PB)
SciTegic.value.DoubleValue
-64.982

@<SCITEGIC>MOL_PROPERTY
W(SA)
SciTegic.value.DoubleValue
2.037

@<SCITEGIC>MOL_PROPERTY
Valence
SciTegic.value.DoubleValue
2.779

@<SCITEGIC>MOL_PROPERTY
Coulomb
SciTegic.value.DoubleValue
6.474

@<SCITEGIC>MOL_PROPERTY
VdW
SciTegic.value.DoubleValue
0.815

@<SCITEGIC>MOL_PROPERTY
VdW6
SciTegic.value.DoubleValue
-5.088

@<SCITEGIC>MOL_PROPERTY
VdW12
SciTegic.value.DoubleValue
5.902

@<SCITEGIC>MOL_PROPERTY
Bond
SciTegic.value.DoubleValue
0.078

@<SCITEGIC>MOL_PROPERTY
Angle
SciTegic.value.DoubleValue
2.651

@<SCITEGIC>MOL_PROPERTY
Pdih
SciTegic.value.DoubleValue
0.050

@<SCITEGIC>MOL_PROPERTY
Idih
SciTegic.value.DoubleValue
0.000

@<SCITEGIC>MOL_PROPERTY
Tether
SciTegic.value.DoubleValue
0.000

@<TRIPOS>MOLECULE
guest-s19_confgen4.mol2 : confsearch ligand conformer 664
          17          16           1
SMALL
USER_CHARGES
 
@<TRIPOS>ATOM
       1    C1      17.003526   18.724700   22.445715 C.2        1 MOL1         0.6173
       2    O1      16.284166   19.087945   23.355856 O.co2      1 MOL1        -0.6755
       3    O2      16.700925   17.826149   21.683162 O.co2      1 MOL1        -0.6755
       4    C2      18.304169   19.427103   22.275334 C.2        1 MOL1        -0.1504
       5    H1      18.511927   20.219704   22.990406 H          1 MOL1         0.0814
       6    C3      19.201962   19.126678   21.309262 C.2        1 MOL1        -0.1394
       7    H2      19.003377   18.331575   20.591004 H          1 MOL1         0.0817
       8    C4      20.526493   19.841746   21.140059 C.3        1 MOL1        -0.1849
       9    H3      20.520894   20.798420   21.679950 H          1 MOL1         0.0736
      10    H4      20.666542   20.090531   20.079633 H          1 MOL1         0.0736
      11    C5      21.720174   18.984736   21.615270 C.3        1 MOL1        -0.1866
      12    H5      21.724989   18.026444   21.077579 H          1 MOL1         0.0738
      13    H6      22.656137   19.496697   21.352461 H          1 MOL1         0.0738
      14    C6      21.697972   18.727361   23.137143 C.3        1 MOL1        -0.2879
      15    H7      20.805453   18.159222   23.429858 H          1 MOL1         0.0750
      16    H8      22.579675   18.150008   23.443947 H          1 MOL1         0.0750
      17    H9      21.700498   19.672701   23.695191 H          1 MOL1         0.0750
@<TRIPOS>BOND
    1     1     2    1
    2     1     3    2
    3     1     4    1
    4     4     5    1
    5     4     6    2
    6     6     7    1
    7     6     8    1
    8     8     9    1
    9     8    10    1
   10     8    11    1
   11    11    12    1
   12    11    13    1
   13    11    14    1
   14    14    15    1
   15    14    16    1
   16    14    17    1
@<TRIPOS>SUBSTRUCTURE
       1 MOL1            1 RESIDUE      1      MOL     
@<SCITEGIC>MOL_PROPERTY
VConf Rank
SciTegic.value.IntegerValue
664

@<SCITEGIC>MOL_PROPERTY
Conf_Id
SciTegic.value.IntegerValue
45

@<SCITEGIC>MOL_PROPERTY
Delta U+W
SciTegic.value.DoubleValue
0.562

@<SCITEGIC>MOL_PROPERTY
U+W
SciTegic.value.DoubleValue
-52.846

@<SCITEGIC>MOL_PROPERTY
Grad RMS
SciTegic.value.DoubleValue
0.000000

@<SCITEGIC>MOL_PROPERTY
U
SciTegic.value.DoubleValue
10.243

@<SCITEGIC>MOL_PROPERTY
W
SciTegic.value.DoubleValue
-63.089

@<SCITEGIC>MOL_PROPERTY
W(PB)
SciTegic.value.DoubleValue
-65.116

@<SCITEGIC>MOL_PROPERTY
W(SA)
SciTegic.value.DoubleValue
2.026

@<SCITEGIC>MOL_PROPERTY
Valence
SciTegic.value.DoubleValue
2.822

@<SCITEGIC>MOL_PROPERTY
Coulomb
SciTegic.value.DoubleValue
6.637

@<SCITEGIC>MOL_PROPERTY
VdW
SciTegic.value.DoubleValue
0.785

@<SCITEGIC>MOL_PROPERTY
VdW6
SciTegic.value.DoubleValue
-5.216

@<SCITEGIC>MOL_PROPERTY
VdW12
SciTegic.value.DoubleValue
6.001

@<SCITEGIC>MOL_PROPERTY
Bond
SciTegic.value.DoubleValue
0.080

@<SCITEGIC>MOL_PROPERTY
Angle
SciTegic.value.DoubleValue
2.678

@<SCITEGIC>MOL_PROPERTY
Pdih
SciTegic.value.DoubleValue
0.064

@<SCITEGIC>MOL_PROPERTY
Idih
SciTegic.value.DoubleValue
0.000

@<SCITEGIC>MOL_PROPERTY
Tether
SciTegic.value.DoubleValue
0.000

@<TRIPOS>MOLECULE
guest-s19_confgen4.mol2 : confsearch ligand conformer 665
          17          16           1
SMALL
USER_CHARGES
 
@<TRIPOS>ATOM
       1    C1      22.461971   17.292727   20.516222 C.2        1 MOL1         0.6173
       2    O1      22.829561   17.254552   19.358153 O.co2      1 MOL1        -0.6755
       3    O2      22.806966   16.472671   21.346210 O.co2      1 MOL1        -0.6755
       4    C2      21.551655   18.401111   20.912418 C.2        1 MOL1        -0.1504
       5    H1      21.282283   19.099171   20.123077 H          1 MOL1         0.0814
       6    C3      21.064598   18.565837   22.163308 C.2        1 MOL1        -0.1394
       7    H2      21.326140   17.870978   22.961143 H          1 MOL1         0.0817
       8    C4      20.137457   19.694684   22.557455 C.3        1 MOL1        -0.1849
       9    H3      20.434092   20.620390   22.045708 H          1 MOL1         0.0736
      10    H4      20.231688   19.889038   23.634364 H          1 MOL1         0.0736
      11    C5      18.670042   19.360507   22.219765 C.3        1 MOL1        -0.1866
      12    H5      18.573242   19.169881   21.141872 H          1 MOL1         0.0738
      13    H6      18.375079   18.435431   22.734351 H          1 MOL1         0.0738
      14    C6      17.717326   20.502402   22.627113 C.3        1 MOL1        -0.2879
      15    H7      17.770867   20.692462   23.707133 H          1 MOL1         0.0750
      16    H8      17.971859   21.432490   22.102150 H          1 MOL1         0.0750
      17    H9      16.678925   20.246705   22.379178 H          1 MOL1         0.0750
@<TRIPOS>BOND
    1     1     2    1
    2     1     3    2
    3     1     4    1
    4     4     5    1
    5     4     6    2
    6     6     7    1
    7     6     8    1
    8     8     9    1
    9     8    10    1
   10     8    11    1
   11    11    12    1
   12    11    13    1
   13    11    14    1
   14    14    15    1
   15    14    16    1
   16    14    17    1
@<TRIPOS>SUBSTRUCTURE
       1 MOL1            1 RESIDUE      1      MOL     
@<SCITEGIC>MOL_PROPERTY
VConf Rank
SciTegic.value.IntegerValue
665

@<SCITEGIC>MOL_PROPERTY
Conf_Id
SciTegic.value.IntegerValue
36

@<SCITEGIC>MOL_PROPERTY
Delta U+W
SciTegic.value.DoubleValue
0.000

@<SCITEGIC>MOL_PROPERTY
U+W
SciTegic.value.DoubleValue
-53.409

@<SCITEGIC>MOL_PROPERTY
Grad RMS
SciTegic.value.DoubleValue
0.000000

@<SCITEGIC>MOL_PROPERTY
U
SciTegic.value.DoubleValue
9.048

@<SCITEGIC>MOL_PROPERTY
W
SciTegic.value.DoubleValue
-62.457

@<SCITEGIC>MOL_PROPERTY
W(PB)
SciTegic.value.DoubleValue
-64.540

@<SCITEGIC>MOL_PROPERTY
W(SA)
SciTegic.value.DoubleValue
2.084

@<SCITEGIC>MOL_PROPERTY
Valence
SciTegic.value.DoubleValue
2.652

@<SCITEGIC>MOL_PROPERTY
Coulomb
SciTegic.value.DoubleValue
5.578

@<SCITEGIC>MOL_PROPERTY
VdW
SciTegic.value.DoubleValue
0.818

@<SCITEGIC>MOL_PROPERTY
VdW6
SciTegic.value.DoubleValue
-4.534

@<SCITEGIC>MOL_PROPERTY
VdW12
SciTegic.value.DoubleValue
5.352

@<SCITEGIC>MOL_PROPERTY
Bond
SciTegic.value.DoubleValue
0.063

@<SCITEGIC>MOL_PROPERTY
Angle
SciTegic.value.DoubleValue
2.579

@<SCITEGIC>MOL_PROPERTY
Pdih
SciTegic.value.DoubleValue
0.010

@<SCITEGIC>MOL_PROPERTY
Idih
SciTegic.value.DoubleValue
0.000

@<SCITEGIC>MOL_PROPERTY
Tether
SciTegic.value.DoubleValue
0.000

@<TRIPOS>MOLECULE
guest-s19_confgen4.mol2 : confsearch ligand conformer 666
          17          16           1
SMALL
USER_CHARGES
 
@<TRIPOS>ATOM
       1    C1      19.913402   19.758046   18.608262 C.2        1 MOL1         0.6173
       2    O1      20.973703   19.386297   18.141403 O.co2      1 MOL1        -0.6755
       3    O2      19.115299   20.428047   17.982293 O.co2      1 MOL1        -0.6755
       4    C2      19.554882   19.387723   20.004144 C.2        1 MOL1        -0.1504
       5    H1      18.593629   19.751674   20.359730 H          1 MOL1         0.0814
       6    C3      20.346040   18.648801   20.814791 C.2        1 MOL1        -0.1394
       7    H2      21.312047   18.280906   20.469453 H          1 MOL1         0.0817
       8    C4      19.974721   18.278141   22.233936 C.3        1 MOL1        -0.1849
       9    H3      20.505740   17.362031   22.525738 H          1 MOL1         0.0736
      10    H4      18.901799   18.050031   22.294023 H          1 MOL1         0.0736
      11    C5      20.321799   19.412208   23.220062 C.3        1 MOL1        -0.1866
      12    H5      21.395748   19.637054   23.159688 H          1 MOL1         0.0738
      13    H6      19.788066   20.328533   22.931899 H          1 MOL1         0.0738
      14    C6      19.954817   19.038443   24.670286 C.3        1 MOL1        -0.2879
      15    H7      20.499651   18.142270   24.995034 H          1 MOL1         0.0750
      16    H8      20.208855   19.856672   25.356650 H          1 MOL1         0.0750
      17    H9      18.879293   18.838853   24.764352 H          1 MOL1         0.0750
@<TRIPOS>BOND
    1     1     2    1
    2     1     3    2
    3     1     4    1
    4     4     5    1
    5     4     6    2
    6     6     7    1
    7     6     8    1
    8     8     9    1
    9     8    10    1
   10     8    11    1
   11    11    12    1
   12    11    13    1
   13    11    14    1
   14    14    15    1
   15    14    16    1
   16    14    17    1
@<TRIPOS>SUBSTRUCTURE
       1 MOL1            1 RESIDUE      1      MOL     
@<SCITEGIC>MOL_PROPERTY
VConf Rank
SciTegic.value.IntegerValue
666

@<SCITEGIC>MOL_PROPERTY
Conf_Id
SciTegic.value.IntegerValue
1

@<SCITEGIC>MOL_PROPERTY
Delta U+W
SciTegic.value.DoubleValue
0.030

@<SCITEGIC>MOL_PROPERTY
U+W
SciTegic.value.DoubleValue
-53.378

@<SCITEGIC>MOL_PROPERTY
Grad RMS
SciTegic.value.DoubleValue
0.000000

@<SCITEGIC>MOL_PROPERTY
U
SciTegic.value.DoubleValue
9.048

@<SCITEGIC>MOL_PROPERTY
W
SciTegic.value.DoubleValue
-62.426

@<SCITEGIC>MOL_PROPERTY
W(PB)
SciTegic.value.DoubleValue
-64.506

@<SCITEGIC>MOL_PROPERTY
W(SA)
SciTegic.value.DoubleValue
2.080

@<SCITEGIC>MOL_PROPERTY
Valence
SciTegic.value.DoubleValue
2.652

@<SCITEGIC>MOL_PROPERTY
Coulomb
SciTegic.value.DoubleValue
5.578

@<SCITEGIC>MOL_PROPERTY
VdW
SciTegic.value.DoubleValue
0.818

@<SCITEGIC>MOL_PROPERTY
VdW6
SciTegic.value.DoubleValue
-4.535

@<SCITEGIC>MOL_PROPERTY
VdW12
SciTegic.value.DoubleValue
5.352

@<SCITEGIC>MOL_PROPERTY
Bond
SciTegic.value.DoubleValue
0.063

@<SCITEGIC>MOL_PROPERTY
Angle
SciTegic.value.DoubleValue
2.579

@<SCITEGIC>MOL_PROPERTY
Pdih
SciTegic.value.DoubleValue
0.010

@<SCITEGIC>MOL_PROPERTY
Idih
SciTegic.value.DoubleValue
0.000

@<SCITEGIC>MOL_PROPERTY
Tether
SciTegic.value.DoubleValue
0.000

@<TRIPOS>MOLECULE
guest-s19_confgen4.mol2 : confsearch ligand conformer 667
          17          16           1
SMALL
USER_CHARGES
 
@<TRIPOS>ATOM
       1    C1      18.511231   21.401196   20.678241 C.2        1 MOL1         0.6173
       2    O1      19.425950   21.930672   20.075427 O.co2      1 MOL1        -0.6755
       3    O2      17.341948   21.627076   20.434181 O.co2      1 MOL1        -0.6755
       4    C2      18.811392   20.433947   21.768390 C.2        1 MOL1        -0.1504
       5    H1      17.948808   19.997879   22.266943 H          1 MOL1         0.0814
       6    C3      20.063251   20.087902   22.145336 C.2        1 MOL1        -0.1394
       7    H2      20.934572   20.516150   21.650360 H          1 MOL1         0.0817
       8    C4      20.361008   19.099637   23.253346 C.3        1 MOL1        -0.1849
       9    H3      19.667751   19.263781   24.089396 H          1 MOL1         0.0736
      10    H4      21.368795   19.278506   23.651673 H          1 MOL1         0.0736
      11    C5      20.245436   17.633918   22.780194 C.3        1 MOL1        -0.1866
      12    H5      20.366851   16.966793   23.644692 H          1 MOL1         0.0738
      13    H6      19.237590   17.451539   22.382184 H          1 MOL1         0.0738
      14    C6      21.299488   17.272387   21.712027 C.3        1 MOL1        -0.2879
      15    H7      22.316205   17.435108   22.092753 H          1 MOL1         0.0750
      16    H8      21.210399   16.216998   21.423711 H          1 MOL1         0.0750
      17    H9      21.170883   17.880311   20.806979 H          1 MOL1         0.0750
@<TRIPOS>BOND
    1     1     2    1
    2     1     3    2
    3     1     4    1
    4     4     5    1
    5     4     6    2
    6     6     7    1
    7     6     8    1
    8     8     9    1
    9     8    10    1
   10     8    11    1
   11    11    12    1
   12    11    13    1
   13    11    14    1
   14    14    15    1
   15    14    16    1
   16    14    17    1
@<TRIPOS>SUBSTRUCTURE
       1 MOL1            1 RESIDUE      1      MOL     
@<SCITEGIC>MOL_PROPERTY
VConf Rank
SciTegic.value.IntegerValue
667

@<SCITEGIC>MOL_PROPERTY
Conf_Id
SciTegic.value.IntegerValue
3

@<SCITEGIC>MOL_PROPERTY
Delta U+W
SciTegic.value.DoubleValue
0.531

@<SCITEGIC>MOL_PROPERTY
U+W
SciTegic.value.DoubleValue
-52.878

@<SCITEGIC>MOL_PROPERTY
Grad RMS
SciTegic.value.DoubleValue
0.000000

@<SCITEGIC>MOL_PROPERTY
U
SciTegic.value.DoubleValue
10.067

@<SCITEGIC>MOL_PROPERTY
W
SciTegic.value.DoubleValue
-62.945

@<SCITEGIC>MOL_PROPERTY
W(PB)
SciTegic.value.DoubleValue
-64.982

@<SCITEGIC>MOL_PROPERTY
W(SA)
SciTegic.value.DoubleValue
2.037

@<SCITEGIC>MOL_PROPERTY
Valence
SciTegic.value.DoubleValue
2.779

@<SCITEGIC>MOL_PROPERTY
Coulomb
SciTegic.value.DoubleValue
6.474

@<SCITEGIC>MOL_PROPERTY
VdW
SciTegic.value.DoubleValue
0.815

@<SCITEGIC>MOL_PROPERTY
VdW6
SciTegic.value.DoubleValue
-5.088

@<SCITEGIC>MOL_PROPERTY
VdW12
SciTegic.value.DoubleValue
5.902

@<SCITEGIC>MOL_PROPERTY
Bond
SciTegic.value.DoubleValue
0.078

@<SCITEGIC>MOL_PROPERTY
Angle
SciTegic.value.DoubleValue
2.651

@<SCITEGIC>MOL_PROPERTY
Pdih
SciTegic.value.DoubleValue
0.050

@<SCITEGIC>MOL_PROPERTY
Idih
SciTegic.value.DoubleValue
0.000

@<SCITEGIC>MOL_PROPERTY
Tether
SciTegic.value.DoubleValue
0.000

@<TRIPOS>MOLECULE
guest-s19_confgen4.mol2 : confsearch ligand conformer 668
          17          16           1
SMALL
USER_CHARGES
 
@<TRIPOS>ATOM
       1    C1      20.911980   17.733203   19.551257 C.2        1 MOL1         0.6173
       2    O1      21.066637   16.549254   19.322943 O.co2      1 MOL1        -0.6755
       3    O2      21.452813   18.607403   18.900317 O.co2      1 MOL1        -0.6755
       4    C2      20.014995   18.104295   20.678989 C.2        1 MOL1        -0.1504
       5    H1      19.564223   17.274693   21.218685 H          1 MOL1         0.0814
       6    C3      19.754095   19.379746   21.046058 C.2        1 MOL1        -0.1394
       7    H2      20.204433   20.216788   20.513071 H          1 MOL1         0.0817
       8    C4      18.842614   19.754312   22.196379 C.3        1 MOL1        -0.1849
       9    H3      18.204413   18.905063   22.476050 H          1 MOL1         0.0736
      10    H4      18.162734   20.552452   21.869661 H          1 MOL1         0.0736
      11    C5      19.629280   20.241523   23.432885 C.3        1 MOL1        -0.1866
      12    H5      20.269957   21.089389   23.153394 H          1 MOL1         0.0738
      13    H6      18.920427   20.617861   24.183282 H          1 MOL1         0.0738
      14    C6      20.488517   19.127000   24.067219 C.3        1 MOL1        -0.2879
      15    H7      21.253652   18.769153   23.366099 H          1 MOL1         0.0750
      16    H8      21.001369   19.498065   24.963969 H          1 MOL1         0.0750
      17    H9      19.866741   18.271522   24.361572 H          1 MOL1         0.0750
@<TRIPOS>BOND
    1     1     2    1
    2     1     3    2
    3     1     4    1
    4     4     5    1
    5     4     6    2
    6     6     7    1
    7     6     8    1
    8     8     9    1
    9     8    10    1
   10     8    11    1
   11    11    12    1
   12    11    13    1
   13    11    14    1
   14    14    15    1
   15    14    16    1
   16    14    17    1
@<TRIPOS>SUBSTRUCTURE
       1 MOL1            1 RESIDUE      1      MOL     
@<SCITEGIC>MOL_PROPERTY
VConf Rank
SciTegic.value.IntegerValue
668

@<SCITEGIC>MOL_PROPERTY
Conf_Id
SciTegic.value.IntegerValue
45

@<SCITEGIC>MOL_PROPERTY
Delta U+W
SciTegic.value.DoubleValue
0.562

@<SCITEGIC>MOL_PROPERTY
U+W
SciTegic.value.DoubleValue
-52.846

@<SCITEGIC>MOL_PROPERTY
Grad RMS
SciTegic.value.DoubleValue
0.000000

@<SCITEGIC>MOL_PROPERTY
U
SciTegic.value.DoubleValue
10.243

@<SCITEGIC>MOL_PROPERTY
W
SciTegic.value.DoubleValue
-63.089

@<SCITEGIC>MOL_PROPERTY
W(PB)
SciTegic.value.DoubleValue
-65.116

@<SCITEGIC>MOL_PROPERTY
W(SA)
SciTegic.value.DoubleValue
2.026

@<SCITEGIC>MOL_PROPERTY
Valence
SciTegic.value.DoubleValue
2.822

@<SCITEGIC>MOL_PROPERTY
Coulomb
SciTegic.value.DoubleValue
6.637

@<SCITEGIC>MOL_PROPERTY
VdW
SciTegic.value.DoubleValue
0.785

@<SCITEGIC>MOL_PROPERTY
VdW6
SciTegic.value.DoubleValue
-5.216

@<SCITEGIC>MOL_PROPERTY
VdW12
SciTegic.value.DoubleValue
6.001

@<SCITEGIC>MOL_PROPERTY
Bond
SciTegic.value.DoubleValue
0.080

@<SCITEGIC>MOL_PROPERTY
Angle
SciTegic.value.DoubleValue
2.678

@<SCITEGIC>MOL_PROPERTY
Pdih
SciTegic.value.DoubleValue
0.064

@<SCITEGIC>MOL_PROPERTY
Idih
SciTegic.value.DoubleValue
0.000

@<SCITEGIC>MOL_PROPERTY
Tether
SciTegic.value.DoubleValue
0.000

@<TRIPOS>MOLECULE
guest-s19_confgen4.mol2 : confsearch ligand conformer 669
          17          16           1
SMALL
USER_CHARGES
 
@<TRIPOS>ATOM
       1    C1      21.866820   18.902385   24.710116 C.2        1 MOL1         0.6173
       2    O1      21.514560   18.732115   25.861040 O.co2      1 MOL1        -0.6755
       3    O2      22.991462   19.255670   24.408844 O.co2      1 MOL1        -0.6755
       4    C2      20.861187   18.660484   23.640374 C.2        1 MOL1        -0.1504
       5    H1      19.875829   18.346853   23.977443 H          1 MOL1         0.0814
       6    C3      21.113745   18.811587   22.320349 C.2        1 MOL1        -0.1394
       7    H2      22.096780   19.127680   21.971780 H          1 MOL1         0.0817
       8    C4      20.084648   18.565593   21.238830 C.3        1 MOL1        -0.1849
       9    H3      19.466020   17.696114   21.499816 H          1 MOL1         0.0736
      10    H4      20.592748   18.316297   20.297515 H          1 MOL1         0.0736
      11    C5      19.184665   19.800380   21.028249 C.3        1 MOL1        -0.1866
      12    H5      18.672282   20.048625   21.968141 H          1 MOL1         0.0738
      13    H6      19.805455   20.668172   20.765331 H          1 MOL1         0.0738
      14    C6      18.138893   19.561049   19.920726 C.3        1 MOL1        -0.2879
      15    H7      18.625662   19.341792   18.961344 H          1 MOL1         0.0750
      16    H8      17.484496   18.716680   20.174185 H          1 MOL1         0.0750
      17    H9      17.508498   20.449563   19.785536 H          1 MOL1         0.0750
@<TRIPOS>BOND
    1     1     2    1
    2     1     3    2
    3     1     4    1
    4     4     5    1
    5     4     6    2
    6     6     7    1
    7     6     8    1
    8     8     9    1
    9     8    10    1
   10     8    11    1
   11    11    12    1
   12    11    13    1
   13    11    14    1
   14    14    15    1
   15    14    16    1
   16    14    17    1
@<TRIPOS>SUBSTRUCTURE
       1 MOL1            1 RESIDUE      1      MOL     
@<SCITEGIC>MOL_PROPERTY
VConf Rank
SciTegic.value.IntegerValue
669

@<SCITEGIC>MOL_PROPERTY
Conf_Id
SciTegic.value.IntegerValue
36

@<SCITEGIC>MOL_PROPERTY
Delta U+W
SciTegic.value.DoubleValue
0.000

@<SCITEGIC>MOL_PROPERTY
U+W
SciTegic.value.DoubleValue
-53.409

@<SCITEGIC>MOL_PROPERTY
Grad RMS
SciTegic.value.DoubleValue
0.000000

@<SCITEGIC>MOL_PROPERTY
U
SciTegic.value.DoubleValue
9.048

@<SCITEGIC>MOL_PROPERTY
W
SciTegic.value.DoubleValue
-62.457

@<SCITEGIC>MOL_PROPERTY
W(PB)
SciTegic.value.DoubleValue
-64.540

@<SCITEGIC>MOL_PROPERTY
W(SA)
SciTegic.value.DoubleValue
2.084

@<SCITEGIC>MOL_PROPERTY
Valence
SciTegic.value.DoubleValue
2.652

@<SCITEGIC>MOL_PROPERTY
Coulomb
SciTegic.value.DoubleValue
5.578

@<SCITEGIC>MOL_PROPERTY
VdW
SciTegic.value.DoubleValue
0.818

@<SCITEGIC>MOL_PROPERTY
VdW6
SciTegic.value.DoubleValue
-4.534

@<SCITEGIC>MOL_PROPERTY
VdW12
SciTegic.value.DoubleValue
5.352

@<SCITEGIC>MOL_PROPERTY
Bond
SciTegic.value.DoubleValue
0.063

@<SCITEGIC>MOL_PROPERTY
Angle
SciTegic.value.DoubleValue
2.579

@<SCITEGIC>MOL_PROPERTY
Pdih
SciTegic.value.DoubleValue
0.010

@<SCITEGIC>MOL_PROPERTY
Idih
SciTegic.value.DoubleValue
0.000

@<SCITEGIC>MOL_PROPERTY
Tether
SciTegic.value.DoubleValue
0.000

@<TRIPOS>MOLECULE
guest-s19_confgen4.mol2 : confsearch ligand conformer 670
          17          16           1
SMALL
USER_CHARGES
 
@<TRIPOS>ATOM
       1    C1      22.427482   18.276372   24.123998 C.2        1 MOL1         0.6173
       2    O1      22.568426   17.069436   24.062085 O.co2      1 MOL1        -0.6755
       3    O2      22.936852   18.956642   24.993182 O.co2      1 MOL1        -0.6755
       4    C2      21.601038   18.973161   23.101433 C.2        1 MOL1        -0.1504
       5    H1      21.515905   20.051535   23.214435 H          1 MOL1         0.0814
       6    C3      20.975862   18.343445   22.080796 C.2        1 MOL1        -0.1394
       7    H2      21.052668   17.263100   21.959432 H          1 MOL1         0.0817
       8    C4      20.135626   19.059386   21.046065 C.3        1 MOL1        -0.1849
       9    H3      20.108509   18.467871   20.120991 H          1 MOL1         0.0736
      10    H4      20.597518   20.022115   20.787967 H          1 MOL1         0.0736
      11    C5      18.697385   19.291282   21.552727 C.3        1 MOL1        -0.1866
      12    H5      18.236799   18.326823   21.808161 H          1 MOL1         0.0738
      13    H6      18.722494   19.886507   22.476110 H          1 MOL1         0.0738
      14    C6      17.831756   20.012433   20.500040 C.3        1 MOL1        -0.2879
      15    H7      17.763797   19.422825   19.576366 H          1 MOL1         0.0750
      16    H8      16.813009   20.168415   20.878134 H          1 MOL1         0.0750
      17    H9      18.254365   20.994384   20.249822 H          1 MOL1         0.0750
@<TRIPOS>BOND
    1     1     2    1
    2     1     3    2
    3     1     4    1
    4     4     5    1
    5     4     6    2
    6     6     7    1
    7     6     8    1
    8     8     9    1
    9     8    10    1
   10     8    11    1
   11    11    12    1
   12    11    13    1
   13    11    14    1
   14    14    15    1
   15    14    16    1
   16    14    17    1
@<TRIPOS>SUBSTRUCTURE
       1 MOL1            1 RESIDUE      1      MOL     
@<SCITEGIC>MOL_PROPERTY
VConf Rank
SciTegic.value.IntegerValue
670

@<SCITEGIC>MOL_PROPERTY
Conf_Id
SciTegic.value.IntegerValue
1

@<SCITEGIC>MOL_PROPERTY
Delta U+W
SciTegic.value.DoubleValue
0.030

@<SCITEGIC>MOL_PROPERTY
U+W
SciTegic.value.DoubleValue
-53.378

@<SCITEGIC>MOL_PROPERTY
Grad RMS
SciTegic.value.DoubleValue
0.000000

@<SCITEGIC>MOL_PROPERTY
U
SciTegic.value.DoubleValue
9.048

@<SCITEGIC>MOL_PROPERTY
W
SciTegic.value.DoubleValue
-62.426

@<SCITEGIC>MOL_PROPERTY
W(PB)
SciTegic.value.DoubleValue
-64.506

@<SCITEGIC>MOL_PROPERTY
W(SA)
SciTegic.value.DoubleValue
2.080

@<SCITEGIC>MOL_PROPERTY
Valence
SciTegic.value.DoubleValue
2.652

@<SCITEGIC>MOL_PROPERTY
Coulomb
SciTegic.value.DoubleValue
5.578

@<SCITEGIC>MOL_PROPERTY
VdW
SciTegic.value.DoubleValue
0.818

@<SCITEGIC>MOL_PROPERTY
VdW6
SciTegic.value.DoubleValue
-4.535

@<SCITEGIC>MOL_PROPERTY
VdW12
SciTegic.value.DoubleValue
5.352

@<SCITEGIC>MOL_PROPERTY
Bond
SciTegic.value.DoubleValue
0.063

@<SCITEGIC>MOL_PROPERTY
Angle
SciTegic.value.DoubleValue
2.579

@<SCITEGIC>MOL_PROPERTY
Pdih
SciTegic.value.DoubleValue
0.010

@<SCITEGIC>MOL_PROPERTY
Idih
SciTegic.value.DoubleValue
0.000

@<SCITEGIC>MOL_PROPERTY
Tether
SciTegic.value.DoubleValue
0.000

@<TRIPOS>MOLECULE
guest-s19_confgen4.mol2 : confsearch ligand conformer 671
          17          16           1
SMALL
USER_CHARGES
 
@<TRIPOS>ATOM
       1    C1      18.050277   18.053569   19.913967 C.2        1 MOL1         0.6173
       2    O1      18.823277   17.500644   19.154239 O.co2      1 MOL1        -0.6755
       3    O2      16.849306   17.867590   19.884123 O.co2      1 MOL1        -0.6755
       4    C2      18.573222   19.006023   20.930555 C.2        1 MOL1        -0.1504
       5    H1      17.829425   19.466056   21.577005 H          1 MOL1         0.0814
       6    C3      19.883510   19.306730   21.077891 C.2        1 MOL1        -0.1394
       7    H2      20.637486   18.849054   20.437851 H          1 MOL1         0.0817
       8    C4      20.408781   20.274313   22.117548 C.3        1 MOL1        -0.1849
       9    H3      19.736972   21.140537   22.187234 H          1 MOL1         0.0736
      10    H4      21.384172   20.668008   21.801462 H          1 MOL1         0.0736
      11    C5      20.541916   19.623474   23.511910 C.3        1 MOL1        -0.1866
      12    H5      20.823790   20.394101   24.242549 H          1 MOL1         0.0738
      13    H6      19.567126   19.229652   23.831466 H          1 MOL1         0.0738
      14    C6      21.593357   18.493680   23.539300 C.3        1 MOL1        -0.2879
      15    H7      22.579655   18.867678   23.235184 H          1 MOL1         0.0750
      16    H8      21.685900   18.077129   24.550650 H          1 MOL1         0.0750
      17    H9      21.313384   17.675561   22.862899 H          1 MOL1         0.0750
@<TRIPOS>BOND
    1     1     2    1
    2     1     3    2
    3     1     4    1
    4     4     5    1
    5     4     6    2
    6     6     7    1
    7     6     8    1
    8     8     9    1
    9     8    10    1
   10     8    11    1
   11    11    12    1
   12    11    13    1
   13    11    14    1
   14    14    15    1
   15    14    16    1
   16    14    17    1
@<TRIPOS>SUBSTRUCTURE
       1 MOL1            1 RESIDUE      1      MOL     
@<SCITEGIC>MOL_PROPERTY
VConf Rank
SciTegic.value.IntegerValue
671

@<SCITEGIC>MOL_PROPERTY
Conf_Id
SciTegic.value.IntegerValue
3

@<SCITEGIC>MOL_PROPERTY
Delta U+W
SciTegic.value.DoubleValue
0.531

@<SCITEGIC>MOL_PROPERTY
U+W
SciTegic.value.DoubleValue
-52.878

@<SCITEGIC>MOL_PROPERTY
Grad RMS
SciTegic.value.DoubleValue
0.000000

@<SCITEGIC>MOL_PROPERTY
U
SciTegic.value.DoubleValue
10.067

@<SCITEGIC>MOL_PROPERTY
W
SciTegic.value.DoubleValue
-62.945

@<SCITEGIC>MOL_PROPERTY
W(PB)
SciTegic.value.DoubleValue
-64.982

@<SCITEGIC>MOL_PROPERTY
W(SA)
SciTegic.value.DoubleValue
2.037

@<SCITEGIC>MOL_PROPERTY
Valence
SciTegic.value.DoubleValue
2.779

@<SCITEGIC>MOL_PROPERTY
Coulomb
SciTegic.value.DoubleValue
6.474

@<SCITEGIC>MOL_PROPERTY
VdW
SciTegic.value.DoubleValue
0.815

@<SCITEGIC>MOL_PROPERTY
VdW6
SciTegic.value.DoubleValue
-5.088

@<SCITEGIC>MOL_PROPERTY
VdW12
SciTegic.value.DoubleValue
5.902

@<SCITEGIC>MOL_PROPERTY
Bond
SciTegic.value.DoubleValue
0.078

@<SCITEGIC>MOL_PROPERTY
Angle
SciTegic.value.DoubleValue
2.651

@<SCITEGIC>MOL_PROPERTY
Pdih
SciTegic.value.DoubleValue
0.050

@<SCITEGIC>MOL_PROPERTY
Idih
SciTegic.value.DoubleValue
0.000

@<SCITEGIC>MOL_PROPERTY
Tether
SciTegic.value.DoubleValue
0.000

@<TRIPOS>MOLECULE
guest-s19_confgen4.mol2 : confsearch ligand conformer 672
          17          16           1
SMALL
USER_CHARGES
 
@<TRIPOS>ATOM
       1    C1      20.254400   21.443988   20.193831 C.2        1 MOL1         0.6173
       2    O1      19.406086   22.211006   19.781730 O.co2      1 MOL1        -0.6755
       3    O2      21.319903   21.273738   19.631544 O.co2      1 MOL1        -0.6755
       4    C2      19.954543   20.694609   21.443867 C.2        1 MOL1        -0.1504
       5    H1      18.985208   20.893857   21.894862 H          1 MOL1         0.0814
       6    C3      20.803418   19.808901   22.013530 C.2        1 MOL1        -0.1394
       7    H2      21.775057   19.600629   21.566251 H          1 MOL1         0.0817
       8    C4      20.494158   19.045467   23.284696 C.3        1 MOL1        -0.1849
       9    H3      19.664725   19.518769   23.827618 H          1 MOL1         0.0736
      10    H4      21.364120   19.094917   23.953075 H          1 MOL1         0.0736
      11    C5      20.156533   17.563494   23.010961 C.3        1 MOL1        -0.1866
      12    H5      20.984625   17.089948   22.465546 H          1 MOL1         0.0738
      13    H6      20.067964   17.033137   23.969123 H          1 MOL1         0.0738
      14    C6      18.844078   17.390178   22.217076 C.3        1 MOL1        -0.2879
      15    H7      18.917379   17.853300   21.224504 H          1 MOL1         0.0750
      16    H8      18.616207   16.325802   22.075499 H          1 MOL1         0.0750
      17    H9      18.000474   17.849982   22.748118 H          1 MOL1         0.0750
@<TRIPOS>BOND
    1     1     2    1
    2     1     3    2
    3     1     4    1
    4     4     5    1
    5     4     6    2
    6     6     7    1
    7     6     8    1
    8     8     9    1
    9     8    10    1
   10     8    11    1
   11    11    12    1
   12    11    13    1
   13    11    14    1
   14    14    15    1
   15    14    16    1
   16    14    17    1
@<TRIPOS>SUBSTRUCTURE
       1 MOL1            1 RESIDUE      1      MOL     
@<SCITEGIC>MOL_PROPERTY
VConf Rank
SciTegic.value.IntegerValue
672

@<SCITEGIC>MOL_PROPERTY
Conf_Id
SciTegic.value.IntegerValue
45

@<SCITEGIC>MOL_PROPERTY
Delta U+W
SciTegic.value.DoubleValue
0.562

@<SCITEGIC>MOL_PROPERTY
U+W
SciTegic.value.DoubleValue
-52.846

@<SCITEGIC>MOL_PROPERTY
Grad RMS
SciTegic.value.DoubleValue
0.000000

@<SCITEGIC>MOL_PROPERTY
U
SciTegic.value.DoubleValue
10.243

@<SCITEGIC>MOL_PROPERTY
W
SciTegic.value.DoubleValue
-63.089

@<SCITEGIC>MOL_PROPERTY
W(PB)
SciTegic.value.DoubleValue
-65.116

@<SCITEGIC>MOL_PROPERTY
W(SA)
SciTegic.value.DoubleValue
2.026

@<SCITEGIC>MOL_PROPERTY
Valence
SciTegic.value.DoubleValue
2.822

@<SCITEGIC>MOL_PROPERTY
Coulomb
SciTegic.value.DoubleValue
6.637

@<SCITEGIC>MOL_PROPERTY
VdW
SciTegic.value.DoubleValue
0.785

@<SCITEGIC>MOL_PROPERTY
VdW6
SciTegic.value.DoubleValue
-5.216

@<SCITEGIC>MOL_PROPERTY
VdW12
SciTegic.value.DoubleValue
6.001

@<SCITEGIC>MOL_PROPERTY
Bond
SciTegic.value.DoubleValue
0.080

@<SCITEGIC>MOL_PROPERTY
Angle
SciTegic.value.DoubleValue
2.678

@<SCITEGIC>MOL_PROPERTY
Pdih
SciTegic.value.DoubleValue
0.064

@<SCITEGIC>MOL_PROPERTY
Idih
SciTegic.value.DoubleValue
0.000

@<SCITEGIC>MOL_PROPERTY
Tether
SciTegic.value.DoubleValue
0.000

@<TRIPOS>MOLECULE
guest-s19_confgen4.mol2 : confsearch ligand conformer 673
          17          16           1
SMALL
USER_CHARGES
 
@<TRIPOS>ATOM
       1    C1      20.050291   16.003156   20.619567 C.2        1 MOL1         0.6173
       2    O1      19.987527   14.931642   21.190201 O.co2      1 MOL1        -0.6755
       3    O2      20.378640   16.112173   19.453078 O.co2      1 MOL1        -0.6755
       4    C2      19.704333   17.220337   21.402475 C.2        1 MOL1        -0.1504
       5    H1      19.419447   17.053043   22.438699 H          1 MOL1         0.0814
       6    C3      19.731660   18.474542   20.897194 C.2        1 MOL1        -0.1394
       7    H2      20.017904   18.653747   19.860988 H          1 MOL1         0.0817
       8    C4      19.380416   19.707395   21.700898 C.3        1 MOL1        -0.1849
       9    H3      18.536621   19.491483   22.370376 H          1 MOL1         0.0736
      10    H4      19.045897   20.504890   21.023782 H          1 MOL1         0.0736
      11    C5      20.585902   20.202644   22.525850 C.3        1 MOL1        -0.1866
      12    H5      20.919221   19.407270   23.206907 H          1 MOL1         0.0738
      13    H6      21.427844   20.419865   21.853901 H          1 MOL1         0.0738
      14    C6      20.238769   21.464746   23.340788 C.3        1 MOL1        -0.2879
      15    H7      19.932361   22.286821   22.680684 H          1 MOL1         0.0750
      16    H8      19.419105   21.265462   24.043550 H          1 MOL1         0.0750
      17    H9      21.107812   21.801821   23.920681 H          1 MOL1         0.0750
@<TRIPOS>BOND
    1     1     2    1
    2     1     3    2
    3     1     4    1
    4     4     5    1
    5     4     6    2
    6     6     7    1
    7     6     8    1
    8     8     9    1
    9     8    10    1
   10     8    11    1
   11    11    12    1
   12    11    13    1
   13    11    14    1
   14    14    15    1
   15    14    16    1
   16    14    17    1
@<TRIPOS>SUBSTRUCTURE
       1 MOL1            1 RESIDUE      1      MOL     
@<SCITEGIC>MOL_PROPERTY
VConf Rank
SciTegic.value.IntegerValue
673

@<SCITEGIC>MOL_PROPERTY
Conf_Id
SciTegic.value.IntegerValue
36

@<SCITEGIC>MOL_PROPERTY
Delta U+W
SciTegic.value.DoubleValue
0.000

@<SCITEGIC>MOL_PROPERTY
U+W
SciTegic.value.DoubleValue
-53.409

@<SCITEGIC>MOL_PROPERTY
Grad RMS
SciTegic.value.DoubleValue
0.000000

@<SCITEGIC>MOL_PROPERTY
U
SciTegic.value.DoubleValue
9.048

@<SCITEGIC>MOL_PROPERTY
W
SciTegic.value.DoubleValue
-62.457

@<SCITEGIC>MOL_PROPERTY
W(PB)
SciTegic.value.DoubleValue
-64.540

@<SCITEGIC>MOL_PROPERTY
W(SA)
SciTegic.value.DoubleValue
2.084

@<SCITEGIC>MOL_PROPERTY
Valence
SciTegic.value.DoubleValue
2.652

@<SCITEGIC>MOL_PROPERTY
Coulomb
SciTegic.value.DoubleValue
5.578

@<SCITEGIC>MOL_PROPERTY
VdW
SciTegic.value.DoubleValue
0.818

@<SCITEGIC>MOL_PROPERTY
VdW6
SciTegic.value.DoubleValue
-4.534

@<SCITEGIC>MOL_PROPERTY
VdW12
SciTegic.value.DoubleValue
5.352

@<SCITEGIC>MOL_PROPERTY
Bond
SciTegic.value.DoubleValue
0.063

@<SCITEGIC>MOL_PROPERTY
Angle
SciTegic.value.DoubleValue
2.579

@<SCITEGIC>MOL_PROPERTY
Pdih
SciTegic.value.DoubleValue
0.010

@<SCITEGIC>MOL_PROPERTY
Idih
SciTegic.value.DoubleValue
0.000

@<SCITEGIC>MOL_PROPERTY
Tether
SciTegic.value.DoubleValue
0.000

@<TRIPOS>MOLECULE
guest-s19_confgen4.mol2 : confsearch ligand conformer 674
          17          16           1
SMALL
USER_CHARGES
 
@<TRIPOS>ATOM
       1    C1      22.654404   20.706752   20.570889 C.2        1 MOL1         0.6173
       2    O1      22.835952   20.228152   19.467088 O.co2      1 MOL1        -0.6755
       3    O2      23.446594   21.460522   21.101899 O.co2      1 MOL1        -0.6755
       4    C2      21.415143   20.370671   21.322849 C.2        1 MOL1        -0.1504
       5    H1      21.314795   20.831830   22.302733 H          1 MOL1         0.0814
       6    C3      20.450016   19.546553   20.855467 C.2        1 MOL1        -0.1394
       7    H2      20.541419   19.077458   19.875993 H          1 MOL1         0.0817
       8    C4      19.193456   19.208468   21.627473 C.3        1 MOL1        -0.1849
       9    H3      18.398483   18.918325   20.927313 H          1 MOL1         0.0736
      10    H4      18.830390   20.097057   22.161700 H          1 MOL1         0.0736
      11    C5      19.441179   18.063169   22.630440 C.3        1 MOL1        -0.1866
      12    H5      19.802154   17.174930   22.093510 H          1 MOL1         0.0738
      13    H6      20.233541   18.353478   23.334317 H          1 MOL1         0.0738
      14    C6      18.162617   17.706253   23.414924 C.3        1 MOL1        -0.2879
      15    H7      17.362904   17.381654   22.736304 H          1 MOL1         0.0750
      16    H8      18.358296   16.890279   24.122756 H          1 MOL1         0.0750
      17    H9      17.798150   18.570180   23.986090 H          1 MOL1         0.0750
@<TRIPOS>BOND
    1     1     2    1
    2     1     3    2
    3     1     4    1
    4     4     5    1
    5     4     6    2
    6     6     7    1
    7     6     8    1
    8     8     9    1
    9     8    10    1
   10     8    11    1
   11    11    12    1
   12    11    13    1
   13    11    14    1
   14    14    15    1
   15    14    16    1
   16    14    17    1
@<TRIPOS>SUBSTRUCTURE
       1 MOL1            1 RESIDUE      1      MOL     
@<SCITEGIC>MOL_PROPERTY
VConf Rank
SciTegic.value.IntegerValue
674

@<SCITEGIC>MOL_PROPERTY
Conf_Id
SciTegic.value.IntegerValue
1

@<SCITEGIC>MOL_PROPERTY
Delta U+W
SciTegic.value.DoubleValue
0.030

@<SCITEGIC>MOL_PROPERTY
U+W
SciTegic.value.DoubleValue
-53.378

@<SCITEGIC>MOL_PROPERTY
Grad RMS
SciTegic.value.DoubleValue
0.000000

@<SCITEGIC>MOL_PROPERTY
U
SciTegic.value.DoubleValue
9.048

@<SCITEGIC>MOL_PROPERTY
W
SciTegic.value.DoubleValue
-62.426

@<SCITEGIC>MOL_PROPERTY
W(PB)
SciTegic.value.DoubleValue
-64.506

@<SCITEGIC>MOL_PROPERTY
W(SA)
SciTegic.value.DoubleValue
2.080

@<SCITEGIC>MOL_PROPERTY
Valence
SciTegic.value.DoubleValue
2.652

@<SCITEGIC>MOL_PROPERTY
Coulomb
SciTegic.value.DoubleValue
5.578

@<SCITEGIC>MOL_PROPERTY
VdW
SciTegic.value.DoubleValue
0.818

@<SCITEGIC>MOL_PROPERTY
VdW6
SciTegic.value.DoubleValue
-4.535

@<SCITEGIC>MOL_PROPERTY
VdW12
SciTegic.value.DoubleValue
5.352

@<SCITEGIC>MOL_PROPERTY
Bond
SciTegic.value.DoubleValue
0.063

@<SCITEGIC>MOL_PROPERTY
Angle
SciTegic.value.DoubleValue
2.579

@<SCITEGIC>MOL_PROPERTY
Pdih
SciTegic.value.DoubleValue
0.010

@<SCITEGIC>MOL_PROPERTY
Idih
SciTegic.value.DoubleValue
0.000

@<SCITEGIC>MOL_PROPERTY
Tether
SciTegic.value.DoubleValue
0.000

@<TRIPOS>MOLECULE
guest-s19_confgen4.mol2 : confsearch ligand conformer 675
          17          16           1
SMALL
USER_CHARGES
 
@<TRIPOS>ATOM
       1    C1      18.242928   18.540369   19.589729 C.2        1 MOL1         0.6173
       2    O1      18.588403   17.405589   19.318874 O.co2      1 MOL1        -0.6755
       3    O2      17.233787   19.047878   19.140417 O.co2      1 MOL1        -0.6755
       4    C2      19.077223   19.364138   20.505943 C.2        1 MOL1        -0.1504
       5    H1      18.712451   20.369058   20.705540 H          1 MOL1         0.0814
       6    C3      20.222173   18.928548   21.078949 C.2        1 MOL1        -0.1394
       7    H2      20.594970   17.922386   20.888534 H          1 MOL1         0.0817
       8    C4      21.064108   19.771464   22.013644 C.3        1 MOL1        -0.1849
       9    H3      21.112254   20.802292   21.637344 H          1 MOL1         0.0736
      10    H4      22.097649   19.399954   22.021810 H          1 MOL1         0.0736
      11    C5      20.508541   19.784060   23.454737 C.3        1 MOL1        -0.1866
      12    H5      21.093854   20.490627   24.059158 H          1 MOL1         0.0738
      13    H6      19.474783   20.156550   23.449949 H          1 MOL1         0.0738
      14    C6      20.556320   18.391616   24.119214 C.3        1 MOL1        -0.2879
      15    H7      21.583240   18.004526   24.146450 H          1 MOL1         0.0750
      16    H8      20.186248   18.443689   25.151320 H          1 MOL1         0.0750
      17    H9      19.932624   17.671057   23.574221 H          1 MOL1         0.0750
@<TRIPOS>BOND
    1     1     2    1
    2     1     3    2
    3     1     4    1
    4     4     5    1
    5     4     6    2
    6     6     7    1
    7     6     8    1
    8     8     9    1
    9     8    10    1
   10     8    11    1
   11    11    12    1
   12    11    13    1
   13    11    14    1
   14    14    15    1
   15    14    16    1
   16    14    17    1
@<TRIPOS>SUBSTRUCTURE
       1 MOL1            1 RESIDUE      1      MOL     
@<SCITEGIC>MOL_PROPERTY
VConf Rank
SciTegic.value.IntegerValue
675

@<SCITEGIC>MOL_PROPERTY
Conf_Id
SciTegic.value.IntegerValue
3

@<SCITEGIC>MOL_PROPERTY
Delta U+W
SciTegic.value.DoubleValue
0.531

@<SCITEGIC>MOL_PROPERTY
U+W
SciTegic.value.DoubleValue
-52.878

@<SCITEGIC>MOL_PROPERTY
Grad RMS
SciTegic.value.DoubleValue
0.000000

@<SCITEGIC>MOL_PROPERTY
U
SciTegic.value.DoubleValue
10.067

@<SCITEGIC>MOL_PROPERTY
W
SciTegic.value.DoubleValue
-62.945

@<SCITEGIC>MOL_PROPERTY
W(PB)
SciTegic.value.DoubleValue
-64.982

@<SCITEGIC>MOL_PROPERTY
W(SA)
SciTegic.value.DoubleValue
2.037

@<SCITEGIC>MOL_PROPERTY
Valence
SciTegic.value.DoubleValue
2.779

@<SCITEGIC>MOL_PROPERTY
Coulomb
SciTegic.value.DoubleValue
6.474

@<SCITEGIC>MOL_PROPERTY
VdW
SciTegic.value.DoubleValue
0.815

@<SCITEGIC>MOL_PROPERTY
VdW6
SciTegic.value.DoubleValue
-5.088

@<SCITEGIC>MOL_PROPERTY
VdW12
SciTegic.value.DoubleValue
5.902

@<SCITEGIC>MOL_PROPERTY
Bond
SciTegic.value.DoubleValue
0.078

@<SCITEGIC>MOL_PROPERTY
Angle
SciTegic.value.DoubleValue
2.651

@<SCITEGIC>MOL_PROPERTY
Pdih
SciTegic.value.DoubleValue
0.050

@<SCITEGIC>MOL_PROPERTY
Idih
SciTegic.value.DoubleValue
0.000

@<SCITEGIC>MOL_PROPERTY
Tether
SciTegic.value.DoubleValue
0.000

@<TRIPOS>MOLECULE
guest-s19_confgen4.mol2 : confsearch ligand conformer 676
          17          16           1
SMALL
USER_CHARGES
 
@<TRIPOS>ATOM
       1    C1      22.353908   18.713315   23.898495 C.2        1 MOL1         0.6173
       2    O1      23.367397   19.376784   24.000618 O.co2      1 MOL1        -0.6755
       3    O2      22.280000   17.558441   24.274329 O.co2      1 MOL1        -0.6755
       4    C2      21.164367   19.365186   23.286834 C.2        1 MOL1        -0.1504
       5    H1      21.298785   20.397760   22.973098 H          1 MOL1         0.0814
       6    C3      19.974444   18.747081   23.109037 C.2        1 MOL1        -0.1394
       7    H2      19.832274   17.711528   23.417153 H          1 MOL1         0.0817
       8    C4      18.766054   19.412531   22.483491 C.3        1 MOL1        -0.1849
       9    H3      18.882542   20.504854   22.484775 H          1 MOL1         0.0736
      10    H4      17.881252   19.199212   23.098007 H          1 MOL1         0.0736
      11    C5      18.505874   18.920147   21.042994 C.3        1 MOL1        -0.1866
      12    H5      18.391852   17.827237   21.040427 H          1 MOL1         0.0738
      13    H6      17.552538   19.335919   20.688759 H          1 MOL1         0.0738
      14    C6      19.627320   19.328605   20.064041 C.3        1 MOL1        -0.2879
      15    H7      20.586456   18.877652   20.349965 H          1 MOL1         0.0750
      16    H8      19.390136   18.996564   19.045042 H          1 MOL1         0.0750
      17    H9      19.753679   20.418906   20.044767 H          1 MOL1         0.0750
@<TRIPOS>BOND
    1     1     2    1
    2     1     3    2
    3     1     4    1
    4     4     5    1
    5     4     6    2
    6     6     7    1
    7     6     8    1
    8     8     9    1
    9     8    10    1
   10     8    11    1
   11    11    12    1
   12    11    13    1
   13    11    14    1
   14    14    15    1
   15    14    16    1
   16    14    17    1
@<TRIPOS>SUBSTRUCTURE
       1 MOL1            1 RESIDUE      1      MOL     
@<SCITEGIC>MOL_PROPERTY
VConf Rank
SciTegic.value.IntegerValue
676

@<SCITEGIC>MOL_PROPERTY
Conf_Id
SciTegic.value.IntegerValue
45

@<SCITEGIC>MOL_PROPERTY
Delta U+W
SciTegic.value.DoubleValue
0.562

@<SCITEGIC>MOL_PROPERTY
U+W
SciTegic.value.DoubleValue
-52.846

@<SCITEGIC>MOL_PROPERTY
Grad RMS
SciTegic.value.DoubleValue
0.000000

@<SCITEGIC>MOL_PROPERTY
U
SciTegic.value.DoubleValue
10.243

@<SCITEGIC>MOL_PROPERTY
W
SciTegic.value.DoubleValue
-63.089

@<SCITEGIC>MOL_PROPERTY
W(PB)
SciTegic.value.DoubleValue
-65.116

@<SCITEGIC>MOL_PROPERTY
W(SA)
SciTegic.value.DoubleValue
2.026

@<SCITEGIC>MOL_PROPERTY
Valence
SciTegic.value.DoubleValue
2.822

@<SCITEGIC>MOL_PROPERTY
Coulomb
SciTegic.value.DoubleValue
6.637

@<SCITEGIC>MOL_PROPERTY
VdW
SciTegic.value.DoubleValue
0.785

@<SCITEGIC>MOL_PROPERTY
VdW6
SciTegic.value.DoubleValue
-5.216

@<SCITEGIC>MOL_PROPERTY
VdW12
SciTegic.value.DoubleValue
6.001

@<SCITEGIC>MOL_PROPERTY
Bond
SciTegic.value.DoubleValue
0.080

@<SCITEGIC>MOL_PROPERTY
Angle
SciTegic.value.DoubleValue
2.678

@<SCITEGIC>MOL_PROPERTY
Pdih
SciTegic.value.DoubleValue
0.064

@<SCITEGIC>MOL_PROPERTY
Idih
SciTegic.value.DoubleValue
0.000

@<SCITEGIC>MOL_PROPERTY
Tether
SciTegic.value.DoubleValue
0.000

@<TRIPOS>MOLECULE
guest-s19_confgen4.mol2 : confsearch ligand conformer 677
          17          16           1
SMALL
USER_CHARGES
 
@<TRIPOS>ATOM
       1    C1      21.383855   20.000536   24.857071 C.2        1 MOL1         0.6173
       2    O1      22.390956   19.576940   25.390005 O.co2      1 MOL1        -0.6755
       3    O2      20.567349   20.688766   25.440209 O.co2      1 MOL1        -0.6755
       4    C2      21.162680   19.649773   23.428012 C.2        1 MOL1        -0.1504
       5    H1      21.930038   19.032369   22.966619 H          1 MOL1         0.0814
       6    C3      20.087993   20.050221   22.711232 C.2        1 MOL1        -0.1394
       7    H2      19.312056   20.667025   23.164274 H          1 MOL1         0.0817
       8    C4      19.869525   19.687246   21.258731 C.3        1 MOL1        -0.1849
       9    H3      20.825817   19.708065   20.718470 H          1 MOL1         0.0736
      10    H4      19.226103   20.440368   20.784178 H          1 MOL1         0.0736
      11    C5      19.222878   18.293941   21.118861 C.3        1 MOL1        -0.1866
      12    H5      19.867486   17.538610   21.589517 H          1 MOL1         0.0738
      13    H6      18.265658   18.276236   21.658291 H          1 MOL1         0.0738
      14    C6      18.988170   17.920404   19.641395 C.3        1 MOL1        -0.2879
      15    H7      18.320099   18.643056   19.154685 H          1 MOL1         0.0750
      16    H8      19.935052   17.900615   19.086004 H          1 MOL1         0.0750
      17    H9      18.528037   16.926867   19.562065 H          1 MOL1         0.0750
@<TRIPOS>BOND
    1     1     2    1
    2     1     3    2
    3     1     4    1
    4     4     5    1
    5     4     6    2
    6     6     7    1
    7     6     8    1
    8     8     9    1
    9     8    10    1
   10     8    11    1
   11    11    12    1
   12    11    13    1
   13    11    14    1
   14    14    15    1
   15    14    16    1
   16    14    17    1
@<TRIPOS>SUBSTRUCTURE
       1 MOL1            1 RESIDUE      1      MOL     
@<SCITEGIC>MOL_PROPERTY
VConf Rank
SciTegic.value.IntegerValue
677

@<SCITEGIC>MOL_PROPERTY
Conf_Id
SciTegic.value.IntegerValue
36

@<SCITEGIC>MOL_PROPERTY
Delta U+W
SciTegic.value.DoubleValue
0.000

@<SCITEGIC>MOL_PROPERTY
U+W
SciTegic.value.DoubleValue
-53.409

@<SCITEGIC>MOL_PROPERTY
Grad RMS
SciTegic.value.DoubleValue
0.000000

@<SCITEGIC>MOL_PROPERTY
U
SciTegic.value.DoubleValue
9.048

@<SCITEGIC>MOL_PROPERTY
W
SciTegic.value.DoubleValue
-62.457

@<SCITEGIC>MOL_PROPERTY
W(PB)
SciTegic.value.DoubleValue
-64.540

@<SCITEGIC>MOL_PROPERTY
W(SA)
SciTegic.value.DoubleValue
2.084

@<SCITEGIC>MOL_PROPERTY
Valence
SciTegic.value.DoubleValue
2.652

@<SCITEGIC>MOL_PROPERTY
Coulomb
SciTegic.value.DoubleValue
5.578

@<SCITEGIC>MOL_PROPERTY
VdW
SciTegic.value.DoubleValue
0.818

@<SCITEGIC>MOL_PROPERTY
VdW6
SciTegic.value.DoubleValue
-4.534

@<SCITEGIC>MOL_PROPERTY
VdW12
SciTegic.value.DoubleValue
5.352

@<SCITEGIC>MOL_PROPERTY
Bond
SciTegic.value.DoubleValue
0.063

@<SCITEGIC>MOL_PROPERTY
Angle
SciTegic.value.DoubleValue
2.579

@<SCITEGIC>MOL_PROPERTY
Pdih
SciTegic.value.DoubleValue
0.010

@<SCITEGIC>MOL_PROPERTY
Idih
SciTegic.value.DoubleValue
0.000

@<SCITEGIC>MOL_PROPERTY
Tether
SciTegic.value.DoubleValue
0.000

@<TRIPOS>MOLECULE
guest-s19_confgen4.mol2 : confsearch ligand conformer 678
          17          16           1
SMALL
USER_CHARGES
 
@<TRIPOS>ATOM
       1    C1      20.039755   18.161503   25.155338 C.2        1 MOL1         0.6173
       2    O1      20.345215   16.984043   25.181339 O.co2      1 MOL1        -0.6755
       3    O2      19.625446   18.757583   26.130398 O.co2      1 MOL1        -0.6755
       4    C2      20.171765   18.927115   23.886254 C.2        1 MOL1        -0.1504
       5    H1      19.882156   19.974486   23.931519 H          1 MOL1         0.0814
       6    C3      20.617223   18.392753   22.726465 C.2        1 MOL1        -0.1394
       7    H2      20.907959   17.343951   22.669375 H          1 MOL1         0.0817
       8    C4      20.746724   19.177967   21.439644 C.3        1 MOL1        -0.1849
       9    H3      21.503412   18.708353   20.796779 H          1 MOL1         0.0736
      10    H4      21.105742   20.193809   21.654068 H          1 MOL1         0.0736
      11    C5      19.402288   19.249072   20.687014 C.3        1 MOL1        -0.1866
      12    H5      19.046351   18.231942   20.471787 H          1 MOL1         0.0738
      13    H6      18.645047   19.722441   21.327380 H          1 MOL1         0.0738
      14    C6      19.528023   20.040065   19.369423 C.3        1 MOL1        -0.2879
      15    H7      20.256899   19.569492   18.696570 H          1 MOL1         0.0750
      16    H8      18.562498   20.079797   18.848547 H          1 MOL1         0.0750
      17    H9      19.852988   21.071362   19.559843 H          1 MOL1         0.0750
@<TRIPOS>BOND
    1     1     2    1
    2     1     3    2
    3     1     4    1
    4     4     5    1
    5     4     6    2
    6     6     7    1
    7     6     8    1
    8     8     9    1
    9     8    10    1
   10     8    11    1
   11    11    12    1
   12    11    13    1
   13    11    14    1
   14    14    15    1
   15    14    16    1
   16    14    17    1
@<TRIPOS>SUBSTRUCTURE
       1 MOL1            1 RESIDUE      1      MOL     
@<SCITEGIC>MOL_PROPERTY
VConf Rank
SciTegic.value.IntegerValue
678

@<SCITEGIC>MOL_PROPERTY
Conf_Id
SciTegic.value.IntegerValue
1

@<SCITEGIC>MOL_PROPERTY
Delta U+W
SciTegic.value.DoubleValue
0.030

@<SCITEGIC>MOL_PROPERTY
U+W
SciTegic.value.DoubleValue
-53.378

@<SCITEGIC>MOL_PROPERTY
Grad RMS
SciTegic.value.DoubleValue
0.000000

@<SCITEGIC>MOL_PROPERTY
U
SciTegic.value.DoubleValue
9.048

@<SCITEGIC>MOL_PROPERTY
W
SciTegic.value.DoubleValue
-62.426

@<SCITEGIC>MOL_PROPERTY
W(PB)
SciTegic.value.DoubleValue
-64.506

@<SCITEGIC>MOL_PROPERTY
W(SA)
SciTegic.value.DoubleValue
2.080

@<SCITEGIC>MOL_PROPERTY
Valence
SciTegic.value.DoubleValue
2.652

@<SCITEGIC>MOL_PROPERTY
Coulomb
SciTegic.value.DoubleValue
5.578

@<SCITEGIC>MOL_PROPERTY
VdW
SciTegic.value.DoubleValue
0.818

@<SCITEGIC>MOL_PROPERTY
VdW6
SciTegic.value.DoubleValue
-4.535

@<SCITEGIC>MOL_PROPERTY
VdW12
SciTegic.value.DoubleValue
5.352

@<SCITEGIC>MOL_PROPERTY
Bond
SciTegic.value.DoubleValue
0.063

@<SCITEGIC>MOL_PROPERTY
Angle
SciTegic.value.DoubleValue
2.579

@<SCITEGIC>MOL_PROPERTY
Pdih
SciTegic.value.DoubleValue
0.010

@<SCITEGIC>MOL_PROPERTY
Idih
SciTegic.value.DoubleValue
0.000

@<SCITEGIC>MOL_PROPERTY
Tether
SciTegic.value.DoubleValue
0.000

@<TRIPOS>MOLECULE
guest-s19_confgen4.mol2 : confsearch ligand conformer 679
          17          16           1
SMALL
USER_CHARGES
 
@<TRIPOS>ATOM
       1    C1      19.588419   20.554935   19.373671 C.2        1 MOL1         0.6173
       2    O1      18.614836   19.959945   18.951104 O.co2      1 MOL1        -0.6755
       3    O2      19.958349   21.620665   18.920699 O.co2      1 MOL1        -0.6755
       4    C2      20.379177   19.971326   20.490897 C.2        1 MOL1        -0.1504
       5    H1      21.237022   20.553213   20.819941 H          1 MOL1         0.0814
       6    C3      20.082802   18.795824   21.090350 C.2        1 MOL1        -0.1394
       7    H2      19.223672   18.206389   20.770880 H          1 MOL1         0.0817
       8    C4      20.890113   18.209944   22.229651 C.3        1 MOL1        -0.1849
       9    H3      21.961096   18.360563   22.037726 H          1 MOL1         0.0736
      10    H4      20.737060   17.123288   22.274913 H          1 MOL1         0.0736
      11    C5      20.526522   18.839797   23.592240 C.3        1 MOL1        -0.1866
      12    H5      21.212162   18.455521   24.359952 H          1 MOL1         0.0738
      13    H6      20.679854   19.927073   23.550436 H          1 MOL1         0.0738
      14    C6      19.073613   18.535578   24.015580 C.3        1 MOL1        -0.2879
      15    H7      18.900737   17.453187   24.076305 H          1 MOL1         0.0750
      16    H8      18.860195   18.968728   25.001350 H          1 MOL1         0.0750
      17    H9      18.355927   18.957822   23.300138 H          1 MOL1         0.0750
@<TRIPOS>BOND
    1     1     2    1
    2     1     3    2
    3     1     4    1
    4     4     5    1
    5     4     6    2
    6     6     7    1
    7     6     8    1
    8     8     9    1
    9     8    10    1
   10     8    11    1
   11    11    12    1
   12    11    13    1
   13    11    14    1
   14    14    15    1
   15    14    16    1
   16    14    17    1
@<TRIPOS>SUBSTRUCTURE
       1 MOL1            1 RESIDUE      1      MOL     
@<SCITEGIC>MOL_PROPERTY
VConf Rank
SciTegic.value.IntegerValue
679

@<SCITEGIC>MOL_PROPERTY
Conf_Id
SciTegic.value.IntegerValue
3

@<SCITEGIC>MOL_PROPERTY
Delta U+W
SciTegic.value.DoubleValue
0.531

@<SCITEGIC>MOL_PROPERTY
U+W
SciTegic.value.DoubleValue
-52.878

@<SCITEGIC>MOL_PROPERTY
Grad RMS
SciTegic.value.DoubleValue
0.000000

@<SCITEGIC>MOL_PROPERTY
U
SciTegic.value.DoubleValue
10.067

@<SCITEGIC>MOL_PROPERTY
W
SciTegic.value.DoubleValue
-62.945

@<SCITEGIC>MOL_PROPERTY
W(PB)
SciTegic.value.DoubleValue
-64.982

@<SCITEGIC>MOL_PROPERTY
W(SA)
SciTegic.value.DoubleValue
2.037

@<SCITEGIC>MOL_PROPERTY
Valence
SciTegic.value.DoubleValue
2.779

@<SCITEGIC>MOL_PROPERTY
Coulomb
SciTegic.value.DoubleValue
6.474

@<SCITEGIC>MOL_PROPERTY
VdW
SciTegic.value.DoubleValue
0.815

@<SCITEGIC>MOL_PROPERTY
VdW6
SciTegic.value.DoubleValue
-5.088

@<SCITEGIC>MOL_PROPERTY
VdW12
SciTegic.value.DoubleValue
5.902

@<SCITEGIC>MOL_PROPERTY
Bond
SciTegic.value.DoubleValue
0.078

@<SCITEGIC>MOL_PROPERTY
Angle
SciTegic.value.DoubleValue
2.651

@<SCITEGIC>MOL_PROPERTY
Pdih
SciTegic.value.DoubleValue
0.050

@<SCITEGIC>MOL_PROPERTY
Idih
SciTegic.value.DoubleValue
0.000

@<SCITEGIC>MOL_PROPERTY
Tether
SciTegic.value.DoubleValue
0.000

@<TRIPOS>MOLECULE
guest-s19_confgen4.mol2 : confsearch ligand conformer 680
          17          16           1
SMALL
USER_CHARGES
 
@<TRIPOS>ATOM
       1    C1      18.231030   16.705271   21.495654 C.2        1 MOL1         0.6173
       2    O1      17.519830   16.479933   20.535864 O.co2      1 MOL1        -0.6755
       3    O2      18.086310   16.151397   22.569306 O.co2      1 MOL1        -0.6755
       4    C2      19.321037   17.703541   21.324152 C.2        1 MOL1        -0.1504
       5    H1      19.394505   18.160590   20.340071 H          1 MOL1         0.0814
       6    C3      20.183989   18.053086   22.305334 C.2        1 MOL1        -0.1394
       7    H2      20.115126   17.602751   23.295270 H          1 MOL1         0.0817
       8    C4      21.290944   19.071766   22.128476 C.3        1 MOL1        -0.1849
       9    H3      21.489982   19.244930   21.062109 H          1 MOL1         0.0736
      10    H4      22.220653   18.667686   22.550815 H          1 MOL1         0.0736
      11    C5      20.968329   20.414088   22.820760 C.3        1 MOL1        -0.1866
      12    H5      20.766495   20.241422   23.887020 H          1 MOL1         0.0738
      13    H6      21.852018   21.065028   22.770081 H          1 MOL1         0.0738
      14    C6      19.769798   21.142143   22.175554 C.3        1 MOL1        -0.2879
      15    H7      18.850922   20.548150   22.264400 H          1 MOL1         0.0750
      16    H8      19.594702   22.107920   22.666962 H          1 MOL1         0.0750
      17    H9      19.953212   21.332020   21.110003 H          1 MOL1         0.0750
@<TRIPOS>BOND
    1     1     2    1
    2     1     3    2
    3     1     4    1
    4     4     5    1
    5     4     6    2
    6     6     7    1
    7     6     8    1
    8     8     9    1
    9     8    10    1
   10     8    11    1
   11    11    12    1
   12    11    13    1
   13    11    14    1
   14    14    15    1
   15    14    16    1
   16    14    17    1
@<TRIPOS>SUBSTRUCTURE
       1 MOL1            1 RESIDUE      1      MOL     
@<SCITEGIC>MOL_PROPERTY
VConf Rank
SciTegic.value.IntegerValue
680

@<SCITEGIC>MOL_PROPERTY
Conf_Id
SciTegic.value.IntegerValue
45

@<SCITEGIC>MOL_PROPERTY
Delta U+W
SciTegic.value.DoubleValue
0.562

@<SCITEGIC>MOL_PROPERTY
U+W
SciTegic.value.DoubleValue
-52.846

@<SCITEGIC>MOL_PROPERTY
Grad RMS
SciTegic.value.DoubleValue
0.000000

@<SCITEGIC>MOL_PROPERTY
U
SciTegic.value.DoubleValue
10.243

@<SCITEGIC>MOL_PROPERTY
W
SciTegic.value.DoubleValue
-63.089

@<SCITEGIC>MOL_PROPERTY
W(PB)
SciTegic.value.DoubleValue
-65.116

@<SCITEGIC>MOL_PROPERTY
W(SA)
SciTegic.value.DoubleValue
2.026

@<SCITEGIC>MOL_PROPERTY
Valence
SciTegic.value.DoubleValue
2.822

@<SCITEGIC>MOL_PROPERTY
Coulomb
SciTegic.value.DoubleValue
6.637

@<SCITEGIC>MOL_PROPERTY
VdW
SciTegic.value.DoubleValue
0.785

@<SCITEGIC>MOL_PROPERTY
VdW6
SciTegic.value.DoubleValue
-5.216

@<SCITEGIC>MOL_PROPERTY
VdW12
SciTegic.value.DoubleValue
6.001

@<SCITEGIC>MOL_PROPERTY
Bond
SciTegic.value.DoubleValue
0.080

@<SCITEGIC>MOL_PROPERTY
Angle
SciTegic.value.DoubleValue
2.678

@<SCITEGIC>MOL_PROPERTY
Pdih
SciTegic.value.DoubleValue
0.064

@<SCITEGIC>MOL_PROPERTY
Idih
SciTegic.value.DoubleValue
0.000

@<SCITEGIC>MOL_PROPERTY
Tether
SciTegic.value.DoubleValue
0.000

@<TRIPOS>MOLECULE
guest-s19_confgen4.mol2 : confsearch ligand conformer 681
          17          16           1
SMALL
USER_CHARGES
 
@<TRIPOS>ATOM
       1    C1      16.981217   17.682950   22.411140 C.2        1 MOL1         0.6173
       2    O1      15.936133   17.861737   21.816550 O.co2      1 MOL1        -0.6755
       3    O2      17.045165   17.087665   23.470357 O.co2      1 MOL1        -0.6755
       4    C2      18.223444   18.223905   21.795998 C.2        1 MOL1        -0.1504
       5    H1      18.096484   18.744952   20.849795 H          1 MOL1         0.0814
       6    C3      19.452685   18.100062   22.346194 C.2        1 MOL1        -0.1394
       7    H2      19.590942   17.582033   23.295038 H          1 MOL1         0.0817
       8    C4      20.710804   18.655100   21.715078 C.3        1 MOL1        -0.1849
       9    H3      20.671767   18.527519   20.624662 H          1 MOL1         0.0736
      10    H4      21.580966   18.083804   22.065545 H          1 MOL1         0.0736
      11    C5      20.900543   20.146846   22.058159 C.3        1 MOL1        -0.1866
      12    H5      20.032610   20.720529   21.704405 H          1 MOL1         0.0738
      13    H6      20.941338   20.271635   23.149182 H          1 MOL1         0.0738
      14    C6      22.185929   20.717838   21.426276 C.3        1 MOL1        -0.2879
      15    H7      23.073270   20.182018   21.788152 H          1 MOL1         0.0750
      16    H8      22.156778   20.633315   20.331999 H          1 MOL1         0.0750
      17    H9      22.303675   21.779129   21.681088 H          1 MOL1         0.0750
@<TRIPOS>BOND
    1     1     2    1
    2     1     3    2
    3     1     4    1
    4     4     5    1
    5     4     6    2
    6     6     7    1
    7     6     8    1
    8     8     9    1
    9     8    10    1
   10     8    11    1
   11    11    12    1
   12    11    13    1
   13    11    14    1
   14    14    15    1
   15    14    16    1
   16    14    17    1
@<TRIPOS>SUBSTRUCTURE
       1 MOL1            1 RESIDUE      1      MOL     
@<SCITEGIC>MOL_PROPERTY
VConf Rank
SciTegic.value.IntegerValue
681

@<SCITEGIC>MOL_PROPERTY
Conf_Id
SciTegic.value.IntegerValue
36

@<SCITEGIC>MOL_PROPERTY
Delta U+W
SciTegic.value.DoubleValue
0.000

@<SCITEGIC>MOL_PROPERTY
U+W
SciTegic.value.DoubleValue
-53.409

@<SCITEGIC>MOL_PROPERTY
Grad RMS
SciTegic.value.DoubleValue
0.000000

@<SCITEGIC>MOL_PROPERTY
U
SciTegic.value.DoubleValue
9.048

@<SCITEGIC>MOL_PROPERTY
W
SciTegic.value.DoubleValue
-62.457

@<SCITEGIC>MOL_PROPERTY
W(PB)
SciTegic.value.DoubleValue
-64.540

@<SCITEGIC>MOL_PROPERTY
W(SA)
SciTegic.value.DoubleValue
2.084

@<SCITEGIC>MOL_PROPERTY
Valence
SciTegic.value.DoubleValue
2.652

@<SCITEGIC>MOL_PROPERTY
Coulomb
SciTegic.value.DoubleValue
5.578

@<SCITEGIC>MOL_PROPERTY
VdW
SciTegic.value.DoubleValue
0.818

@<SCITEGIC>MOL_PROPERTY
VdW6
SciTegic.value.DoubleValue
-4.534

@<SCITEGIC>MOL_PROPERTY
VdW12
SciTegic.value.DoubleValue
5.352

@<SCITEGIC>MOL_PROPERTY
Bond
SciTegic.value.DoubleValue
0.063

@<SCITEGIC>MOL_PROPERTY
Angle
SciTegic.value.DoubleValue
2.579

@<SCITEGIC>MOL_PROPERTY
Pdih
SciTegic.value.DoubleValue
0.010

@<SCITEGIC>MOL_PROPERTY
Idih
SciTegic.value.DoubleValue
0.000

@<SCITEGIC>MOL_PROPERTY
Tether
SciTegic.value.DoubleValue
0.000

@<TRIPOS>MOLECULE
guest-s19_confgen4.mol2 : confsearch ligand conformer 682
          17          16           1
SMALL
USER_CHARGES
 
@<TRIPOS>ATOM
       1    C1      23.171940   19.798771   22.866402 C.2        1 MOL1         0.6173
       2    O1      23.099485   20.679924   23.702293 O.co2      1 MOL1        -0.6755
       3    O2      24.222900   19.448806   22.365688 O.co2      1 MOL1        -0.6755
       4    C2      21.933628   19.103270   22.422528 C.2        1 MOL1        -0.1504
       5    H1      22.068264   18.326086   21.673685 H          1 MOL1         0.0814
       6    C3      20.698413   19.389710   22.892934 C.2        1 MOL1        -0.1394
       7    H2      20.551860   20.167955   23.641686 H          1 MOL1         0.0817
       8    C4      19.443831   18.678811   22.434801 C.3        1 MOL1        -0.1849
       9    H3      18.677697   18.742530   23.219254 H          1 MOL1         0.0736
      10    H4      19.650722   17.610216   22.286113 H          1 MOL1         0.0736
      11    C5      18.896953   19.289824   21.128430 C.3        1 MOL1        -0.1866
      12    H5      18.688765   20.358078   21.280280 H          1 MOL1         0.0738
      13    H6      19.660869   19.223163   20.341317 H          1 MOL1         0.0738
      14    C6      17.612764   18.576613   20.659694 C.3        1 MOL1        -0.2879
      15    H7      16.820952   18.655529   21.416157 H          1 MOL1         0.0750
      16    H8      17.238903   19.024745   19.729889 H          1 MOL1         0.0750
      17    H9      17.801545   17.511701   20.470592 H          1 MOL1         0.0750
@<TRIPOS>BOND
    1     1     2    1
    2     1     3    2
    3     1     4    1
    4     4     5    1
    5     4     6    2
    6     6     7    1
    7     6     8    1
    8     8     9    1
    9     8    10    1
   10     8    11    1
   11    11    12    1
   12    11    13    1
   13    11    14    1
   14    14    15    1
   15    14    16    1
   16    14    17    1
@<TRIPOS>SUBSTRUCTURE
       1 MOL1            1 RESIDUE      1      MOL     
@<SCITEGIC>MOL_PROPERTY
VConf Rank
SciTegic.value.IntegerValue
682

@<SCITEGIC>MOL_PROPERTY
Conf_Id
SciTegic.value.IntegerValue
1

@<SCITEGIC>MOL_PROPERTY
Delta U+W
SciTegic.value.DoubleValue
0.030

@<SCITEGIC>MOL_PROPERTY
U+W
SciTegic.value.DoubleValue
-53.378

@<SCITEGIC>MOL_PROPERTY
Grad RMS
SciTegic.value.DoubleValue
0.000000

@<SCITEGIC>MOL_PROPERTY
U
SciTegic.value.DoubleValue
9.048

@<SCITEGIC>MOL_PROPERTY
W
SciTegic.value.DoubleValue
-62.426

@<SCITEGIC>MOL_PROPERTY
W(PB)
SciTegic.value.DoubleValue
-64.506

@<SCITEGIC>MOL_PROPERTY
W(SA)
SciTegic.value.DoubleValue
2.080

@<SCITEGIC>MOL_PROPERTY
Valence
SciTegic.value.DoubleValue
2.652

@<SCITEGIC>MOL_PROPERTY
Coulomb
SciTegic.value.DoubleValue
5.578

@<SCITEGIC>MOL_PROPERTY
VdW
SciTegic.value.DoubleValue
0.818

@<SCITEGIC>MOL_PROPERTY
VdW6
SciTegic.value.DoubleValue
-4.535

@<SCITEGIC>MOL_PROPERTY
VdW12
SciTegic.value.DoubleValue
5.352

@<SCITEGIC>MOL_PROPERTY
Bond
SciTegic.value.DoubleValue
0.063

@<SCITEGIC>MOL_PROPERTY
Angle
SciTegic.value.DoubleValue
2.579

@<SCITEGIC>MOL_PROPERTY
Pdih
SciTegic.value.DoubleValue
0.010

@<SCITEGIC>MOL_PROPERTY
Idih
SciTegic.value.DoubleValue
0.000

@<SCITEGIC>MOL_PROPERTY
Tether
SciTegic.value.DoubleValue
0.000

@<TRIPOS>MOLECULE
guest-s19_confgen4.mol2 : confsearch ligand conformer 683
          17          16           1
SMALL
USER_CHARGES
 
@<TRIPOS>ATOM
       1    C1      21.317136   16.929973   20.274916 C.2        1 MOL1         0.6173
       2    O1      21.967698   17.629367   19.521219 O.co2      1 MOL1        -0.6755
       3    O2      21.501705   15.733893   20.389534 O.co2      1 MOL1        -0.6755
       4    C2      20.240711   17.541518   21.100393 C.2        1 MOL1        -0.1504
       5    H1      19.697242   16.860886   21.751654 H          1 MOL1         0.0814
       6    C3      19.927278   18.856864   21.075699 C.2        1 MOL1        -0.1394
       7    H2      20.467598   19.548237   20.429436 H          1 MOL1         0.0817
       8    C4      18.832824   19.472859   21.921711 C.3        1 MOL1        -0.1849
       9    H3      17.962892   18.802586   21.943573 H          1 MOL1         0.0736
      10    H4      18.487213   20.408094   21.461079 H          1 MOL1         0.0736
      11    C5      19.294755   19.750125   23.369228 C.3        1 MOL1        -0.1866
      12    H5      18.435486   20.095279   23.960565 H          1 MOL1         0.0738
      13    H6      19.640036   18.815833   23.833239 H          1 MOL1         0.0738
      14    C6      20.414350   20.810418   23.439923 C.3        1 MOL1        -0.2879
      15    H7      20.086721   21.757892   22.992598 H          1 MOL1         0.0750
      16    H8      20.694354   21.006963   24.482935 H          1 MOL1         0.0750
      17    H9      21.313558   20.473011   22.908131 H          1 MOL1         0.0750
@<TRIPOS>BOND
    1     1     2    1
    2     1     3    2
    3     1     4    1
    4     4     5    1
    5     4     6    2
    6     6     7    1
    7     6     8    1
    8     8     9    1
    9     8    10    1
   10     8    11    1
   11    11    12    1
   12    11    13    1
   13    11    14    1
   14    14    15    1
   15    14    16    1
   16    14    17    1
@<TRIPOS>SUBSTRUCTURE
       1 MOL1            1 RESIDUE      1      MOL     
@<SCITEGIC>MOL_PROPERTY
VConf Rank
SciTegic.value.IntegerValue
683

@<SCITEGIC>MOL_PROPERTY
Conf_Id
SciTegic.value.IntegerValue
3

@<SCITEGIC>MOL_PROPERTY
Delta U+W
SciTegic.value.DoubleValue
0.531

@<SCITEGIC>MOL_PROPERTY
U+W
SciTegic.value.DoubleValue
-52.878

@<SCITEGIC>MOL_PROPERTY
Grad RMS
SciTegic.value.DoubleValue
0.000000

@<SCITEGIC>MOL_PROPERTY
U
SciTegic.value.DoubleValue
10.067

@<SCITEGIC>MOL_PROPERTY
W
SciTegic.value.DoubleValue
-62.945

@<SCITEGIC>MOL_PROPERTY
W(PB)
SciTegic.value.DoubleValue
-64.982

@<SCITEGIC>MOL_PROPERTY
W(SA)
SciTegic.value.DoubleValue
2.037

@<SCITEGIC>MOL_PROPERTY
Valence
SciTegic.value.DoubleValue
2.779

@<SCITEGIC>MOL_PROPERTY
Coulomb
SciTegic.value.DoubleValue
6.474

@<SCITEGIC>MOL_PROPERTY
VdW
SciTegic.value.DoubleValue
0.815

@<SCITEGIC>MOL_PROPERTY
VdW6
SciTegic.value.DoubleValue
-5.088

@<SCITEGIC>MOL_PROPERTY
VdW12
SciTegic.value.DoubleValue
5.902

@<SCITEGIC>MOL_PROPERTY
Bond
SciTegic.value.DoubleValue
0.078

@<SCITEGIC>MOL_PROPERTY
Angle
SciTegic.value.DoubleValue
2.651

@<SCITEGIC>MOL_PROPERTY
Pdih
SciTegic.value.DoubleValue
0.050

@<SCITEGIC>MOL_PROPERTY
Idih
SciTegic.value.DoubleValue
0.000

@<SCITEGIC>MOL_PROPERTY
Tether
SciTegic.value.DoubleValue
0.000

@<TRIPOS>MOLECULE
guest-s19_confgen4.mol2 : confsearch ligand conformer 684
          17          16           1
SMALL
USER_CHARGES
 
@<TRIPOS>ATOM
       1    C1      18.453579   18.474608   24.607776 C.2        1 MOL1         0.6173
       2    O1      17.628014   17.608141   24.820983 O.co2      1 MOL1        -0.6755
       3    O2      18.550437   19.476858   25.290828 O.co2      1 MOL1        -0.6755
       4    C2      19.376599   18.276470   23.457624 C.2        1 MOL1        -0.1504
       5    H1      19.235783   17.359924   22.889452 H          1 MOL1         0.0814
       6    C3      20.339724   19.157829   23.103813 C.2        1 MOL1        -0.1394
       7    H2      20.485210   20.080315   23.665392 H          1 MOL1         0.0817
       8    C4      21.276086   18.954608   21.930671 C.3        1 MOL1        -0.1849
       9    H3      21.278351   17.902169   21.615857 H          1 MOL1         0.0736
      10    H4      22.302793   19.180382   22.248333 H          1 MOL1         0.0736
      11    C5      20.914229   19.854853   20.729095 C.3        1 MOL1        -0.1866
      12    H5      20.909149   20.907660   21.043788 H          1 MOL1         0.0738
      13    H6      21.695430   19.760329   19.962291 H          1 MOL1         0.0738
      14    C6      19.550032   19.491863   20.104567 C.3        1 MOL1        -0.2879
      15    H7      18.733836   19.636351   20.824289 H          1 MOL1         0.0750
      16    H8      19.344471   20.124683   19.231555 H          1 MOL1         0.0750
      17    H9      19.535156   18.444678   19.775515 H          1 MOL1         0.0750
@<TRIPOS>BOND
    1     1     2    1
    2     1     3    2
    3     1     4    1
    4     4     5    1
    5     4     6    2
    6     6     7    1
    7     6     8    1
    8     8     9    1
    9     8    10    1
   10     8    11    1
   11    11    12    1
   12    11    13    1
   13    11    14    1
   14    14    15    1
   15    14    16    1
   16    14    17    1
@<TRIPOS>SUBSTRUCTURE
       1 MOL1            1 RESIDUE      1      MOL     
@<SCITEGIC>MOL_PROPERTY
VConf Rank
SciTegic.value.IntegerValue
684

@<SCITEGIC>MOL_PROPERTY
Conf_Id
SciTegic.value.IntegerValue
45

@<SCITEGIC>MOL_PROPERTY
Delta U+W
SciTegic.value.DoubleValue
0.562

@<SCITEGIC>MOL_PROPERTY
U+W
SciTegic.value.DoubleValue
-52.846

@<SCITEGIC>MOL_PROPERTY
Grad RMS
SciTegic.value.DoubleValue
0.000000

@<SCITEGIC>MOL_PROPERTY
U
SciTegic.value.DoubleValue
10.243

@<SCITEGIC>MOL_PROPERTY
W
SciTegic.value.DoubleValue
-63.089

@<SCITEGIC>MOL_PROPERTY
W(PB)
SciTegic.value.DoubleValue
-65.116

@<SCITEGIC>MOL_PROPERTY
W(SA)
SciTegic.value.DoubleValue
2.026

@<SCITEGIC>MOL_PROPERTY
Valence
SciTegic.value.DoubleValue
2.822

@<SCITEGIC>MOL_PROPERTY
Coulomb
SciTegic.value.DoubleValue
6.637

@<SCITEGIC>MOL_PROPERTY
VdW
SciTegic.value.DoubleValue
0.785

@<SCITEGIC>MOL_PROPERTY
VdW6
SciTegic.value.DoubleValue
-5.216

@<SCITEGIC>MOL_PROPERTY
VdW12
SciTegic.value.DoubleValue
6.001

@<SCITEGIC>MOL_PROPERTY
Bond
SciTegic.value.DoubleValue
0.080

@<SCITEGIC>MOL_PROPERTY
Angle
SciTegic.value.DoubleValue
2.678

@<SCITEGIC>MOL_PROPERTY
Pdih
SciTegic.value.DoubleValue
0.064

@<SCITEGIC>MOL_PROPERTY
Idih
SciTegic.value.DoubleValue
0.000

@<SCITEGIC>MOL_PROPERTY
Tether
SciTegic.value.DoubleValue
0.000

@<TRIPOS>MOLECULE
guest-s19_confgen4.mol2 : confsearch ligand conformer 685
          17          16           1
SMALL
USER_CHARGES
 
@<TRIPOS>ATOM
       1    C1      17.650507   17.163003   20.475078 C.2        1 MOL1         0.6173
       2    O1      16.450274   17.133553   20.665540 O.co2      1 MOL1        -0.6755
       3    O2      18.243555   16.295512   19.861769 O.co2      1 MOL1        -0.6755
       4    C2      18.405602   18.321494   21.024525 C.2        1 MOL1        -0.1504
       5    H1      17.815811   19.060691   21.561781 H          1 MOL1         0.0814
       6    C3      19.741565   18.482892   20.889473 C.2        1 MOL1        -0.1394
       7    H2      20.342434   17.747193   20.355173 H          1 MOL1         0.0817
       8    C4      20.502228   19.663056   21.453249 C.3        1 MOL1        -0.1849
       9    H3      19.907262   20.580090   21.344290 H          1 MOL1         0.0736
      10    H4      21.423039   19.817446   20.874752 H          1 MOL1         0.0736
      11    C5      20.856240   19.445668   22.938655 C.3        1 MOL1        -0.1866
      12    H5      19.935677   19.295209   23.519590 H          1 MOL1         0.0738
      13    H6      21.452998   18.529055   23.044809 H          1 MOL1         0.0738
      14    C6      21.640062   20.640280   23.518354 C.3        1 MOL1        -0.2879
      15    H7      22.581828   20.793222   22.975108 H          1 MOL1         0.0750
      16    H8      21.052026   21.565112   23.452496 H          1 MOL1         0.0750
      17    H9      21.882642   20.467558   24.574977 H          1 MOL1         0.0750
@<TRIPOS>BOND
    1     1     2    1
    2     1     3    2
    3     1     4    1
    4     4     5    1
    5     4     6    2
    6     6     7    1
    7     6     8    1
    8     8     9    1
    9     8    10    1
   10     8    11    1
   11    11    12    1
   12    11    13    1
   13    11    14    1
   14    14    15    1
   15    14    16    1
   16    14    17    1
@<TRIPOS>SUBSTRUCTURE
       1 MOL1            1 RESIDUE      1      MOL     
@<SCITEGIC>MOL_PROPERTY
VConf Rank
SciTegic.value.IntegerValue
685

@<SCITEGIC>MOL_PROPERTY
Conf_Id
SciTegic.value.IntegerValue
36

@<SCITEGIC>MOL_PROPERTY
Delta U+W
SciTegic.value.DoubleValue
0.000

@<SCITEGIC>MOL_PROPERTY
U+W
SciTegic.value.DoubleValue
-53.409

@<SCITEGIC>MOL_PROPERTY
Grad RMS
SciTegic.value.DoubleValue
0.000000

@<SCITEGIC>MOL_PROPERTY
U
SciTegic.value.DoubleValue
9.048

@<SCITEGIC>MOL_PROPERTY
W
SciTegic.value.DoubleValue
-62.457

@<SCITEGIC>MOL_PROPERTY
W(PB)
SciTegic.value.DoubleValue
-64.540

@<SCITEGIC>MOL_PROPERTY
W(SA)
SciTegic.value.DoubleValue
2.084

@<SCITEGIC>MOL_PROPERTY
Valence
SciTegic.value.DoubleValue
2.652

@<SCITEGIC>MOL_PROPERTY
Coulomb
SciTegic.value.DoubleValue
5.578

@<SCITEGIC>MOL_PROPERTY
VdW
SciTegic.value.DoubleValue
0.818

@<SCITEGIC>MOL_PROPERTY
VdW6
SciTegic.value.DoubleValue
-4.534

@<SCITEGIC>MOL_PROPERTY
VdW12
SciTegic.value.DoubleValue
5.352

@<SCITEGIC>MOL_PROPERTY
Bond
SciTegic.value.DoubleValue
0.063

@<SCITEGIC>MOL_PROPERTY
Angle
SciTegic.value.DoubleValue
2.579

@<SCITEGIC>MOL_PROPERTY
Pdih
SciTegic.value.DoubleValue
0.010

@<SCITEGIC>MOL_PROPERTY
Idih
SciTegic.value.DoubleValue
0.000

@<SCITEGIC>MOL_PROPERTY
Tether
SciTegic.value.DoubleValue
0.000

@<TRIPOS>MOLECULE
guest-s19_confgen4.mol2 : confsearch ligand conformer 686
          17          16           1
SMALL
USER_CHARGES
 
@<TRIPOS>ATOM
       1    C1      21.317462   18.171115   24.884887 C.2        1 MOL1         0.6173
       2    O1      20.390125   17.787620   25.572906 O.co2      1 MOL1        -0.6755
       3    O2      22.433273   18.361864   25.327929 O.co2      1 MOL1        -0.6755
       4    C2      21.101268   18.423234   23.434418 C.2        1 MOL1        -0.1504
       5    H1      21.970876   18.764055   22.877163 H          1 MOL1         0.0814
       6    C3      19.914247   18.254203   22.808724 C.2        1 MOL1        -0.1394
       7    H2      19.036017   17.915232   23.357892 H          1 MOL1         0.0817
       8    C4      19.702390   18.514665   21.333422 C.3        1 MOL1        -0.1849
       9    H3      18.854149   17.917445   20.972584 H          1 MOL1         0.0736
      10    H4      20.581766   18.184608   20.763715 H          1 MOL1         0.0736
      11    C5      19.435313   20.008828   21.059260 C.3        1 MOL1        -0.1866
      12    H5      18.554099   20.336031   21.628441 H          1 MOL1         0.0738
      13    H6      20.284955   20.607485   21.416020 H          1 MOL1         0.0738
      14    C6      19.209106   20.281224   19.558542 C.3        1 MOL1        -0.2879
      15    H7      18.344449   19.718444   19.182936 H          1 MOL1         0.0750
      16    H8      19.020816   21.348443   19.383272 H          1 MOL1         0.0750
      17    H9      20.089180   19.991236   18.969634 H          1 MOL1         0.0750
@<TRIPOS>BOND
    1     1     2    1
    2     1     3    2
    3     1     4    1
    4     4     5    1
    5     4     6    2
    6     6     7    1
    7     6     8    1
    8     8     9    1
    9     8    10    1
   10     8    11    1
   11    11    12    1
   12    11    13    1
   13    11    14    1
   14    14    15    1
   15    14    16    1
   16    14    17    1
@<TRIPOS>SUBSTRUCTURE
       1 MOL1            1 RESIDUE      1      MOL     
@<SCITEGIC>MOL_PROPERTY
VConf Rank
SciTegic.value.IntegerValue
686

@<SCITEGIC>MOL_PROPERTY
Conf_Id
SciTegic.value.IntegerValue
1

@<SCITEGIC>MOL_PROPERTY
Delta U+W
SciTegic.value.DoubleValue
0.030

@<SCITEGIC>MOL_PROPERTY
U+W
SciTegic.value.DoubleValue
-53.378

@<SCITEGIC>MOL_PROPERTY
Grad RMS
SciTegic.value.DoubleValue
0.000000

@<SCITEGIC>MOL_PROPERTY
U
SciTegic.value.DoubleValue
9.048

@<SCITEGIC>MOL_PROPERTY
W
SciTegic.value.DoubleValue
-62.426

@<SCITEGIC>MOL_PROPERTY
W(PB)
SciTegic.value.DoubleValue
-64.506

@<SCITEGIC>MOL_PROPERTY
W(SA)
SciTegic.value.DoubleValue
2.080

@<SCITEGIC>MOL_PROPERTY
Valence
SciTegic.value.DoubleValue
2.652

@<SCITEGIC>MOL_PROPERTY
Coulomb
SciTegic.value.DoubleValue
5.578

@<SCITEGIC>MOL_PROPERTY
VdW
SciTegic.value.DoubleValue
0.818

@<SCITEGIC>MOL_PROPERTY
VdW6
SciTegic.value.DoubleValue
-4.535

@<SCITEGIC>MOL_PROPERTY
VdW12
SciTegic.value.DoubleValue
5.352

@<SCITEGIC>MOL_PROPERTY
Bond
SciTegic.value.DoubleValue
0.063

@<SCITEGIC>MOL_PROPERTY
Angle
SciTegic.value.DoubleValue
2.579

@<SCITEGIC>MOL_PROPERTY
Pdih
SciTegic.value.DoubleValue
0.010

@<SCITEGIC>MOL_PROPERTY
Idih
SciTegic.value.DoubleValue
0.000

@<SCITEGIC>MOL_PROPERTY
Tether
SciTegic.value.DoubleValue
0.000

@<TRIPOS>MOLECULE
guest-s19_confgen4.mol2 : confsearch ligand conformer 687
          17          16           1
SMALL
USER_CHARGES
 
@<TRIPOS>ATOM
       1    C1      23.049805   18.611244   22.319459 C.2        1 MOL1         0.6173
       2    O1      23.360254   19.561961   23.012424 O.co2      1 MOL1        -0.6755
       3    O2      23.776799   17.651421   22.152034 O.co2      1 MOL1        -0.6755
       4    C2      21.729280   18.601148   21.633746 C.2        1 MOL1        -0.1504
       5    H1      21.514842   17.722692   21.029517 H          1 MOL1         0.0814
       6    C3      20.821718   19.599033   21.731433 C.2        1 MOL1        -0.1394
       7    H2      21.024869   20.482136   22.336790 H          1 MOL1         0.0817
       8    C4      19.477946   19.579996   21.033631 C.3        1 MOL1        -0.1849
       9    H3      19.595396   19.175310   20.019254 H          1 MOL1         0.0736
      10    H4      19.106040   20.606318   20.912627 H          1 MOL1         0.0736
      11    C5      18.431533   18.738184   21.796478 C.3        1 MOL1        -0.1866
      12    H5      17.514662   18.673447   21.194557 H          1 MOL1         0.0738
      13    H6      18.800348   17.710259   21.918031 H          1 MOL1         0.0738
      14    C6      18.086869   19.333644   23.178269 C.3        1 MOL1        -0.2879
      15    H7      17.703803   20.357736   23.080084 H          1 MOL1         0.0750
      16    H8      17.317530   18.730394   23.677382 H          1 MOL1         0.0750
      17    H9      18.969864   19.358875   23.830116 H          1 MOL1         0.0750
@<TRIPOS>BOND
    1     1     2    1
    2     1     3    2
    3     1     4    1
    4     4     5    1
    5     4     6    2
    6     6     7    1
    7     6     8    1
    8     8     9    1
    9     8    10    1
   10     8    11    1
   11    11    12    1
   12    11    13    1
   13    11    14    1
   14    14    15    1
   15    14    16    1
   16    14    17    1
@<TRIPOS>SUBSTRUCTURE
       1 MOL1            1 RESIDUE      1      MOL     
@<SCITEGIC>MOL_PROPERTY
VConf Rank
SciTegic.value.IntegerValue
687

@<SCITEGIC>MOL_PROPERTY
Conf_Id
SciTegic.value.IntegerValue
3

@<SCITEGIC>MOL_PROPERTY
Delta U+W
SciTegic.value.DoubleValue
0.531

@<SCITEGIC>MOL_PROPERTY
U+W
SciTegic.value.DoubleValue
-52.878

@<SCITEGIC>MOL_PROPERTY
Grad RMS
SciTegic.value.DoubleValue
0.000000

@<SCITEGIC>MOL_PROPERTY
U
SciTegic.value.DoubleValue
10.067

@<SCITEGIC>MOL_PROPERTY
W
SciTegic.value.DoubleValue
-62.945

@<SCITEGIC>MOL_PROPERTY
W(PB)
SciTegic.value.DoubleValue
-64.982

@<SCITEGIC>MOL_PROPERTY
W(SA)
SciTegic.value.DoubleValue
2.037

@<SCITEGIC>MOL_PROPERTY
Valence
SciTegic.value.DoubleValue
2.779

@<SCITEGIC>MOL_PROPERTY
Coulomb
SciTegic.value.DoubleValue
6.474

@<SCITEGIC>MOL_PROPERTY
VdW
SciTegic.value.DoubleValue
0.815

@<SCITEGIC>MOL_PROPERTY
VdW6
SciTegic.value.DoubleValue
-5.088

@<SCITEGIC>MOL_PROPERTY
VdW12
SciTegic.value.DoubleValue
5.902

@<SCITEGIC>MOL_PROPERTY
Bond
SciTegic.value.DoubleValue
0.078

@<SCITEGIC>MOL_PROPERTY
Angle
SciTegic.value.DoubleValue
2.651

@<SCITEGIC>MOL_PROPERTY
Pdih
SciTegic.value.DoubleValue
0.050

@<SCITEGIC>MOL_PROPERTY
Idih
SciTegic.value.DoubleValue
0.000

@<SCITEGIC>MOL_PROPERTY
Tether
SciTegic.value.DoubleValue
0.000

@<TRIPOS>MOLECULE
guest-s19_confgen4.mol2 : confsearch ligand conformer 688
          17          16           1
SMALL
USER_CHARGES
 
@<TRIPOS>ATOM
       1    C1      17.626120   20.797757   21.235379 C.2        1 MOL1         0.6173
       2    O1      16.502616   20.461264   20.915547 O.co2      1 MOL1        -0.6755
       3    O2      18.106380   21.872476   20.927519 O.co2      1 MOL1        -0.6755
       4    C2      18.428070   19.837573   22.040980 C.2        1 MOL1        -0.1504
       5    H1      17.939058   18.896377   22.281237 H          1 MOL1         0.0814
       6    C3      19.690242   20.078429   22.463467 C.2        1 MOL1        -0.1394
       7    H2      20.188970   21.017298   22.224067 H          1 MOL1         0.0817
       8    C4      20.505130   19.097773   23.281152 C.3        1 MOL1        -0.1849
       9    H3      19.854368   18.336534   23.732554 H          1 MOL1         0.0736
      10    H4      20.975276   19.632210   24.117424 H          1 MOL1         0.0736
      11    C5      21.605838   18.409503   22.444557 C.3        1 MOL1        -0.1866
      12    H5      22.255706   19.170388   21.990482 H          1 MOL1         0.0738
      13    H6      22.241752   17.811320   23.111633 H          1 MOL1         0.0738
      14    C6      21.029722   17.493273   21.343901 C.3        1 MOL1        -0.2879
      15    H7      20.439014   18.068185   20.618923 H          1 MOL1         0.0750
      16    H8      21.838366   16.991894   20.796562 H          1 MOL1         0.0750
      17    H9      20.382249   16.719469   21.776449 H          1 MOL1         0.0750
@<TRIPOS>BOND
    1     1     2    1
    2     1     3    2
    3     1     4    1
    4     4     5    1
    5     4     6    2
    6     6     7    1
    7     6     8    1
    8     8     9    1
    9     8    10    1
   10     8    11    1
   11    11    12    1
   12    11    13    1
   13    11    14    1
   14    14    15    1
   15    14    16    1
   16    14    17    1
@<TRIPOS>SUBSTRUCTURE
       1 MOL1            1 RESIDUE      1      MOL     
@<SCITEGIC>MOL_PROPERTY
VConf Rank
SciTegic.value.IntegerValue
688

@<SCITEGIC>MOL_PROPERTY
Conf_Id
SciTegic.value.IntegerValue
45

@<SCITEGIC>MOL_PROPERTY
Delta U+W
SciTegic.value.DoubleValue
0.562

@<SCITEGIC>MOL_PROPERTY
U+W
SciTegic.value.DoubleValue
-52.846

@<SCITEGIC>MOL_PROPERTY
Grad RMS
SciTegic.value.DoubleValue
0.000000

@<SCITEGIC>MOL_PROPERTY
U
SciTegic.value.DoubleValue
10.243

@<SCITEGIC>MOL_PROPERTY
W
SciTegic.value.DoubleValue
-63.089

@<SCITEGIC>MOL_PROPERTY
W(PB)
SciTegic.value.DoubleValue
-65.116

@<SCITEGIC>MOL_PROPERTY
W(SA)
SciTegic.value.DoubleValue
2.026

@<SCITEGIC>MOL_PROPERTY
Valence
SciTegic.value.DoubleValue
2.822

@<SCITEGIC>MOL_PROPERTY
Coulomb
SciTegic.value.DoubleValue
6.637

@<SCITEGIC>MOL_PROPERTY
VdW
SciTegic.value.DoubleValue
0.785

@<SCITEGIC>MOL_PROPERTY
VdW6
SciTegic.value.DoubleValue
-5.216

@<SCITEGIC>MOL_PROPERTY
VdW12
SciTegic.value.DoubleValue
6.001

@<SCITEGIC>MOL_PROPERTY
Bond
SciTegic.value.DoubleValue
0.080

@<SCITEGIC>MOL_PROPERTY
Angle
SciTegic.value.DoubleValue
2.678

@<SCITEGIC>MOL_PROPERTY
Pdih
SciTegic.value.DoubleValue
0.064

@<SCITEGIC>MOL_PROPERTY
Idih
SciTegic.value.DoubleValue
0.000

@<SCITEGIC>MOL_PROPERTY
Tether
SciTegic.value.DoubleValue
0.000

@<TRIPOS>MOLECULE
guest-s19_confgen4.mol2 : confsearch ligand conformer 689
          17          16           1
SMALL
USER_CHARGES
 
@<TRIPOS>ATOM
       1    C1      22.605122   17.685226   23.495797 C.2        1 MOL1         0.6173
       2    O1      23.578730   18.208062   24.002189 O.co2      1 MOL1        -0.6755
       3    O2      22.532865   16.489341   23.283593 O.co2      1 MOL1        -0.6755
       4    C2      21.463824   18.566895   23.129381 C.2        1 MOL1        -0.1504
       5    H1      21.592945   19.624928   23.345722 H          1 MOL1         0.0814
       6    C3      20.320802   18.122426   22.559264 C.2        1 MOL1        -0.1394
       7    H2      20.181880   17.064768   22.336032 H          1 MOL1         0.0817
       8    C4      19.165619   19.026156   22.187699 C.3        1 MOL1        -0.1849
       9    H3      19.034641   19.802508   22.953813 H          1 MOL1         0.0736
      10    H4      18.234261   18.444218   22.170162 H          1 MOL1         0.0736
      11    C5      19.388230   19.685497   20.811208 C.3        1 MOL1        -0.1866
      12    H5      20.317608   20.271605   20.828348 H          1 MOL1         0.0738
      13    H6      19.516915   18.907040   20.046347 H          1 MOL1         0.0738
      14    C6      18.210591   20.601085   20.420833 C.3        1 MOL1        -0.2879
      15    H7      17.272753   20.032934   20.365194 H          1 MOL1         0.0750
      16    H8      18.080061   21.407515   21.154364 H          1 MOL1         0.0750
      17    H9      18.386905   21.060833   19.439673 H          1 MOL1         0.0750
@<TRIPOS>BOND
    1     1     2    1
    2     1     3    2
    3     1     4    1
    4     4     5    1
    5     4     6    2
    6     6     7    1
    7     6     8    1
    8     8     9    1
    9     8    10    1
   10     8    11    1
   11    11    12    1
   12    11    13    1
   13    11    14    1
   14    14    15    1
   15    14    16    1
   16    14    17    1
@<TRIPOS>SUBSTRUCTURE
       1 MOL1            1 RESIDUE      1      MOL     
@<SCITEGIC>MOL_PROPERTY
VConf Rank
SciTegic.value.IntegerValue
689

@<SCITEGIC>MOL_PROPERTY
Conf_Id
SciTegic.value.IntegerValue
36

@<SCITEGIC>MOL_PROPERTY
Delta U+W
SciTegic.value.DoubleValue
0.000

@<SCITEGIC>MOL_PROPERTY
U+W
SciTegic.value.DoubleValue
-53.409

@<SCITEGIC>MOL_PROPERTY
Grad RMS
SciTegic.value.DoubleValue
0.000000

@<SCITEGIC>MOL_PROPERTY
U
SciTegic.value.DoubleValue
9.048

@<SCITEGIC>MOL_PROPERTY
W
SciTegic.value.DoubleValue
-62.457

@<SCITEGIC>MOL_PROPERTY
W(PB)
SciTegic.value.DoubleValue
-64.540

@<SCITEGIC>MOL_PROPERTY
W(SA)
SciTegic.value.DoubleValue
2.084

@<SCITEGIC>MOL_PROPERTY
Valence
SciTegic.value.DoubleValue
2.652

@<SCITEGIC>MOL_PROPERTY
Coulomb
SciTegic.value.DoubleValue
5.578

@<SCITEGIC>MOL_PROPERTY
VdW
SciTegic.value.DoubleValue
0.818

@<SCITEGIC>MOL_PROPERTY
VdW6
SciTegic.value.DoubleValue
-4.534

@<SCITEGIC>MOL_PROPERTY
VdW12
SciTegic.value.DoubleValue
5.352

@<SCITEGIC>MOL_PROPERTY
Bond
SciTegic.value.DoubleValue
0.063

@<SCITEGIC>MOL_PROPERTY
Angle
SciTegic.value.DoubleValue
2.579

@<SCITEGIC>MOL_PROPERTY
Pdih
SciTegic.value.DoubleValue
0.010

@<SCITEGIC>MOL_PROPERTY
Idih
SciTegic.value.DoubleValue
0.000

@<SCITEGIC>MOL_PROPERTY
Tether
SciTegic.value.DoubleValue
0.000

@<TRIPOS>MOLECULE
guest-s19_confgen4.mol2 : confsearch ligand conformer 690
          17          16           1
SMALL
USER_CHARGES
 
@<TRIPOS>ATOM
       1    C1      19.038005   16.339724   23.599671 C.2        1 MOL1         0.6173
       2    O1      19.186593   16.579826   24.783169 O.co2      1 MOL1        -0.6755
       3    O2      18.791024   15.226690   23.177935 O.co2      1 MOL1        -0.6755
       4    C2      19.157675   17.440645   22.605782 C.2        1 MOL1        -0.1504
       5    H1      19.013554   17.158485   21.565337 H          1 MOL1         0.0814
       6    C3      19.429604   18.724598   22.932287 C.2        1 MOL1        -0.1394
       7    H2      19.577965   19.017866   23.971400 H          1 MOL1         0.0817
       8    C4      19.551477   19.837981   21.915055 C.3        1 MOL1        -0.1849
       9    H3      19.332007   20.800920   22.395648 H          1 MOL1         0.0736
      10    H4      18.802205   19.706293   21.122555 H          1 MOL1         0.0736
      11    C5      20.963087   19.880527   21.294921 C.3        1 MOL1        -0.1866
      12    H5      21.710525   20.014468   22.089252 H          1 MOL1         0.0738
      13    H6      21.182684   18.919149   20.810061 H          1 MOL1         0.0738
      14    C6      21.098294   21.018758   20.263575 C.3        1 MOL1        -0.2879
      15    H7      20.914601   21.995565   20.729980 H          1 MOL1         0.0750
      16    H8      22.108298   21.033159   19.833674 H          1 MOL1         0.0750
      17    H9      20.381892   20.891080   19.441442 H          1 MOL1         0.0750
@<TRIPOS>BOND
    1     1     2    1
    2     1     3    2
    3     1     4    1
    4     4     5    1
    5     4     6    2
    6     6     7    1
    7     6     8    1
    8     8     9    1
    9     8    10    1
   10     8    11    1
   11    11    12    1
   12    11    13    1
   13    11    14    1
   14    14    15    1
   15    14    16    1
   16    14    17    1
@<TRIPOS>SUBSTRUCTURE
       1 MOL1            1 RESIDUE      1      MOL     
@<SCITEGIC>MOL_PROPERTY
VConf Rank
SciTegic.value.IntegerValue
690

@<SCITEGIC>MOL_PROPERTY
Conf_Id
SciTegic.value.IntegerValue
1

@<SCITEGIC>MOL_PROPERTY
Delta U+W
SciTegic.value.DoubleValue
0.030

@<SCITEGIC>MOL_PROPERTY
U+W
SciTegic.value.DoubleValue
-53.378

@<SCITEGIC>MOL_PROPERTY
Grad RMS
SciTegic.value.DoubleValue
0.000000

@<SCITEGIC>MOL_PROPERTY
U
SciTegic.value.DoubleValue
9.048

@<SCITEGIC>MOL_PROPERTY
W
SciTegic.value.DoubleValue
-62.426

@<SCITEGIC>MOL_PROPERTY
W(PB)
SciTegic.value.DoubleValue
-64.506

@<SCITEGIC>MOL_PROPERTY
W(SA)
SciTegic.value.DoubleValue
2.080

@<SCITEGIC>MOL_PROPERTY
Valence
SciTegic.value.DoubleValue
2.652

@<SCITEGIC>MOL_PROPERTY
Coulomb
SciTegic.value.DoubleValue
5.578

@<SCITEGIC>MOL_PROPERTY
VdW
SciTegic.value.DoubleValue
0.818

@<SCITEGIC>MOL_PROPERTY
VdW6
SciTegic.value.DoubleValue
-4.535

@<SCITEGIC>MOL_PROPERTY
VdW12
SciTegic.value.DoubleValue
5.352

@<SCITEGIC>MOL_PROPERTY
Bond
SciTegic.value.DoubleValue
0.063

@<SCITEGIC>MOL_PROPERTY
Angle
SciTegic.value.DoubleValue
2.579

@<SCITEGIC>MOL_PROPERTY
Pdih
SciTegic.value.DoubleValue
0.010

@<SCITEGIC>MOL_PROPERTY
Idih
SciTegic.value.DoubleValue
0.000

@<SCITEGIC>MOL_PROPERTY
Tether
SciTegic.value.DoubleValue
0.000

@<TRIPOS>MOLECULE
guest-s19_confgen4.mol2 : confsearch ligand conformer 691
          17          16           1
SMALL
USER_CHARGES
 
@<TRIPOS>ATOM
       1    C1      20.212842   20.848699   24.572468 C.2        1 MOL1         0.6173
       2    O1      19.907455   21.931113   24.108182 O.co2      1 MOL1        -0.6755
       3    O2      20.225743   20.622959   25.766908 O.co2      1 MOL1        -0.6755
       4    C2      20.594380   19.737879   23.658905 C.2        1 MOL1        -0.1504
       5    H1      20.856905   18.797743   24.138474 H          1 MOL1         0.0814
       6    C3      20.622893   19.846550   22.311180 C.2        1 MOL1        -0.1394
       7    H2      20.358500   20.782802   21.820134 H          1 MOL1         0.0817
       8    C4      21.008562   18.710294   21.387494 C.3        1 MOL1        -0.1849
       9    H3      21.859667   18.161998   21.813544 H          1 MOL1         0.0736
      10    H4      21.354062   19.112520   20.425653 H          1 MOL1         0.0736
      11    C5      19.842151   17.726859   21.146865 C.3        1 MOL1        -0.1866
      12    H5      20.207559   16.872995   20.559884 H          1 MOL1         0.0738
      13    H6      19.495062   17.321726   22.107502 H          1 MOL1         0.0738
      14    C6      18.660006   18.382436   20.401570 C.3        1 MOL1        -0.2879
      15    H7      18.981341   18.783820   19.431632 H          1 MOL1         0.0750
      16    H8      17.864819   17.648355   20.217962 H          1 MOL1         0.0750
      17    H9      18.229612   19.205051   20.987475 H          1 MOL1         0.0750
@<TRIPOS>BOND
    1     1     2    1
    2     1     3    2
    3     1     4    1
    4     4     5    1
    5     4     6    2
    6     6     7    1
    7     6     8    1
    8     8     9    1
    9     8    10    1
   10     8    11    1
   11    11    12    1
   12    11    13    1
   13    11    14    1
   14    14    15    1
   15    14    16    1
   16    14    17    1
@<TRIPOS>SUBSTRUCTURE
       1 MOL1            1 RESIDUE      1      MOL     
@<SCITEGIC>MOL_PROPERTY
VConf Rank
SciTegic.value.IntegerValue
691

@<SCITEGIC>MOL_PROPERTY
Conf_Id
SciTegic.value.IntegerValue
3

@<SCITEGIC>MOL_PROPERTY
Delta U+W
SciTegic.value.DoubleValue
0.531

@<SCITEGIC>MOL_PROPERTY
U+W
SciTegic.value.DoubleValue
-52.878

@<SCITEGIC>MOL_PROPERTY
Grad RMS
SciTegic.value.DoubleValue
0.000000

@<SCITEGIC>MOL_PROPERTY
U
SciTegic.value.DoubleValue
10.067

@<SCITEGIC>MOL_PROPERTY
W
SciTegic.value.DoubleValue
-62.945

@<SCITEGIC>MOL_PROPERTY
W(PB)
SciTegic.value.DoubleValue
-64.982

@<SCITEGIC>MOL_PROPERTY
W(SA)
SciTegic.value.DoubleValue
2.037

@<SCITEGIC>MOL_PROPERTY
Valence
SciTegic.value.DoubleValue
2.779

@<SCITEGIC>MOL_PROPERTY
Coulomb
SciTegic.value.DoubleValue
6.474

@<SCITEGIC>MOL_PROPERTY
VdW
SciTegic.value.DoubleValue
0.815

@<SCITEGIC>MOL_PROPERTY
VdW6
SciTegic.value.DoubleValue
-5.088

@<SCITEGIC>MOL_PROPERTY
VdW12
SciTegic.value.DoubleValue
5.902

@<SCITEGIC>MOL_PROPERTY
Bond
SciTegic.value.DoubleValue
0.078

@<SCITEGIC>MOL_PROPERTY
Angle
SciTegic.value.DoubleValue
2.651

@<SCITEGIC>MOL_PROPERTY
Pdih
SciTegic.value.DoubleValue
0.050

@<SCITEGIC>MOL_PROPERTY
Idih
SciTegic.value.DoubleValue
0.000

@<SCITEGIC>MOL_PROPERTY
Tether
SciTegic.value.DoubleValue
0.000

@<TRIPOS>MOLECULE
guest-s19_confgen4.mol2 : confsearch ligand conformer 692
          17          16           1
SMALL
USER_CHARGES
 
@<TRIPOS>ATOM
       1    C1      20.463914   19.476405   19.120379 C.2        1 MOL1         0.6173
       2    O1      21.100644   20.336563   18.543765 O.co2      1 MOL1        -0.6755
       3    O2      19.607712   18.808779   18.571160 O.co2      1 MOL1        -0.6755
       4    C2      20.765246   19.246523   20.559276 C.2        1 MOL1        -0.1504
       5    H1      21.540931   19.877043   20.987602 H          1 MOL1         0.0814
       6    C3      20.134404   18.325947   21.323583 C.2        1 MOL1        -0.1394
       7    H2      19.353505   17.692610   20.903346 H          1 MOL1         0.0817
       8    C4      20.441489   18.096151   22.788925 C.3        1 MOL1        -0.1849
       9    H3      21.414067   18.533241   23.053094 H          1 MOL1         0.0736
      10    H4      20.532245   17.016994   22.971113 H          1 MOL1         0.0736
      11    C5      19.346216   18.669894   23.714323 C.3        1 MOL1        -0.1866
      12    H5      18.372530   18.235154   23.449003 H          1 MOL1         0.0738
      13    H6      19.554833   18.364360   24.748889 H          1 MOL1         0.0738
      14    C6      19.262784   20.210017   23.651935 C.3        1 MOL1        -0.2879
      15    H7      18.991694   20.551580   22.644513 H          1 MOL1         0.0750
      16    H8      18.502484   20.584038   24.349731 H          1 MOL1         0.0750
      17    H9      20.224181   20.666425   23.921194 H          1 MOL1         0.0750
@<TRIPOS>BOND
    1     1     2    1
    2     1     3    2
    3     1     4    1
    4     4     5    1
    5     4     6    2
    6     6     7    1
    7     6     8    1
    8     8     9    1
    9     8    10    1
   10     8    11    1
   11    11    12    1
   12    11    13    1
   13    11    14    1
   14    14    15    1
   15    14    16    1
   16    14    17    1
@<TRIPOS>SUBSTRUCTURE
       1 MOL1            1 RESIDUE      1      MOL     
@<SCITEGIC>MOL_PROPERTY
VConf Rank
SciTegic.value.IntegerValue
692

@<SCITEGIC>MOL_PROPERTY
Conf_Id
SciTegic.value.IntegerValue
45

@<SCITEGIC>MOL_PROPERTY
Delta U+W
SciTegic.value.DoubleValue
0.562

@<SCITEGIC>MOL_PROPERTY
U+W
SciTegic.value.DoubleValue
-52.846

@<SCITEGIC>MOL_PROPERTY
Grad RMS
SciTegic.value.DoubleValue
0.000000

@<SCITEGIC>MOL_PROPERTY
U
SciTegic.value.DoubleValue
10.243

@<SCITEGIC>MOL_PROPERTY
W
SciTegic.value.DoubleValue
-63.089

@<SCITEGIC>MOL_PROPERTY
W(PB)
SciTegic.value.DoubleValue
-65.116

@<SCITEGIC>MOL_PROPERTY
W(SA)
SciTegic.value.DoubleValue
2.026

@<SCITEGIC>MOL_PROPERTY
Valence
SciTegic.value.DoubleValue
2.822

@<SCITEGIC>MOL_PROPERTY
Coulomb
SciTegic.value.DoubleValue
6.637

@<SCITEGIC>MOL_PROPERTY
VdW
SciTegic.value.DoubleValue
0.785

@<SCITEGIC>MOL_PROPERTY
VdW6
SciTegic.value.DoubleValue
-5.216

@<SCITEGIC>MOL_PROPERTY
VdW12
SciTegic.value.DoubleValue
6.001

@<SCITEGIC>MOL_PROPERTY
Bond
SciTegic.value.DoubleValue
0.080

@<SCITEGIC>MOL_PROPERTY
Angle
SciTegic.value.DoubleValue
2.678

@<SCITEGIC>MOL_PROPERTY
Pdih
SciTegic.value.DoubleValue
0.064

@<SCITEGIC>MOL_PROPERTY
Idih
SciTegic.value.DoubleValue
0.000

@<SCITEGIC>MOL_PROPERTY
Tether
SciTegic.value.DoubleValue
0.000

@<TRIPOS>MOLECULE
guest-s19_confgen4.mol2 : confsearch ligand conformer 693
          17          16           1
SMALL
USER_CHARGES
 
@<TRIPOS>ATOM
       1    C1      20.513436   22.179899   20.598105 C.2        1 MOL1         0.6173
       2    O1      19.733373   23.102590   20.464516 O.co2      1 MOL1        -0.6755
       3    O2      21.599159   22.148068   20.049846 O.co2      1 MOL1        -0.6755
       4    C2      20.100488   21.052205   21.476707 C.2        1 MOL1        -0.1504
       5    H1      19.118781   21.143238   21.935917 H          1 MOL1         0.0814
       6    C3      20.865692   19.962708   21.714497 C.2        1 MOL1        -0.1394
       7    H2      21.849859   19.860190   21.257686 H          1 MOL1         0.0817
       8    C4      20.437303   18.819103   22.607743 C.3        1 MOL1        -0.1849
       9    H3      19.892669   19.207019   23.479353 H          1 MOL1         0.0736
      10    H4      21.325722   18.304576   22.998078 H          1 MOL1         0.0736
      11    C5      19.551039   17.812587   21.845853 C.3        1 MOL1        -0.1866
      12    H5      18.659535   18.324951   21.458216 H          1 MOL1         0.0738
      13    H6      20.098660   17.424492   20.975760 H          1 MOL1         0.0738
      14    C6      19.117839   16.638752   22.746949 C.3        1 MOL1        -0.2879
      15    H7      19.990692   16.089058   23.122973 H          1 MOL1         0.0750
      16    H8      18.540925   16.997682   23.609374 H          1 MOL1         0.0750
      17    H9      18.488580   15.933919   22.188045 H          1 MOL1         0.0750
@<TRIPOS>BOND
    1     1     2    1
    2     1     3    2
    3     1     4    1
    4     4     5    1
    5     4     6    2
    6     6     7    1
    7     6     8    1
    8     8     9    1
    9     8    10    1
   10     8    11    1
   11    11    12    1
   12    11    13    1
   13    11    14    1
   14    14    15    1
   15    14    16    1
   16    14    17    1
@<TRIPOS>SUBSTRUCTURE
       1 MOL1            1 RESIDUE      1      MOL     
@<SCITEGIC>MOL_PROPERTY
VConf Rank
SciTegic.value.IntegerValue
693

@<SCITEGIC>MOL_PROPERTY
Conf_Id
SciTegic.value.IntegerValue
36

@<SCITEGIC>MOL_PROPERTY
Delta U+W
SciTegic.value.DoubleValue
0.000

@<SCITEGIC>MOL_PROPERTY
U+W
SciTegic.value.DoubleValue
-53.409

@<SCITEGIC>MOL_PROPERTY
Grad RMS
SciTegic.value.DoubleValue
0.000000

@<SCITEGIC>MOL_PROPERTY
U
SciTegic.value.DoubleValue
9.048

@<SCITEGIC>MOL_PROPERTY
W
SciTegic.value.DoubleValue
-62.457

@<SCITEGIC>MOL_PROPERTY
W(PB)
SciTegic.value.DoubleValue
-64.540

@<SCITEGIC>MOL_PROPERTY
W(SA)
SciTegic.value.DoubleValue
2.084

@<SCITEGIC>MOL_PROPERTY
Valence
SciTegic.value.DoubleValue
2.652

@<SCITEGIC>MOL_PROPERTY
Coulomb
SciTegic.value.DoubleValue
5.578

@<SCITEGIC>MOL_PROPERTY
VdW
SciTegic.value.DoubleValue
0.818

@<SCITEGIC>MOL_PROPERTY
VdW6
SciTegic.value.DoubleValue
-4.534

@<SCITEGIC>MOL_PROPERTY
VdW12
SciTegic.value.DoubleValue
5.352

@<SCITEGIC>MOL_PROPERTY
Bond
SciTegic.value.DoubleValue
0.063

@<SCITEGIC>MOL_PROPERTY
Angle
SciTegic.value.DoubleValue
2.579

@<SCITEGIC>MOL_PROPERTY
Pdih
SciTegic.value.DoubleValue
0.010

@<SCITEGIC>MOL_PROPERTY
Idih
SciTegic.value.DoubleValue
0.000

@<SCITEGIC>MOL_PROPERTY
Tether
SciTegic.value.DoubleValue
0.000

@<TRIPOS>MOLECULE
guest-s19_confgen4.mol2 : confsearch ligand conformer 694
          17          16           1
SMALL
USER_CHARGES
 
@<TRIPOS>ATOM
       1    C1      19.419441   22.071127   20.445183 C.2        1 MOL1         0.6173
       2    O1      19.267320   21.854497   19.257613 O.co2      1 MOL1        -0.6755
       3    O2      19.538333   23.191418   20.901821 O.co2      1 MOL1        -0.6755
       4    C2      19.463740   20.931054   21.400398 C.2        1 MOL1        -0.1504
       5    H1      19.601882   21.193676   22.446752 H          1 MOL1         0.0814
       6    C3      19.346042   19.634830   21.032927 C.2        1 MOL1        -0.1394
       7    H2      19.209499   19.360361   19.987079 H          1 MOL1         0.0817
       8    C4      19.394049   18.481120   22.010622 C.3        1 MOL1        -0.1849
       9    H3      18.856865   17.620219   21.590302 H          1 MOL1         0.0736
      10    H4      18.871802   18.752856   22.938105 H          1 MOL1         0.0736
      11    C5      20.847451   18.076226   22.331093 C.3        1 MOL1        -0.1866
      12    H5      21.367046   17.802822   21.402203 H          1 MOL1         0.0738
      13    H6      21.385224   18.935398   22.755574 H          1 MOL1         0.0738
      14    C6      20.904903   16.894615   23.320041 C.3        1 MOL1        -0.2879
      15    H7      20.401154   16.011108   22.906421 H          1 MOL1         0.0750
      16    H8      21.945954   16.621079   23.535729 H          1 MOL1         0.0750
      17    H9      20.418786   17.153328   24.269880 H          1 MOL1         0.0750
@<TRIPOS>BOND
    1     1     2    1
    2     1     3    2
    3     1     4    1
    4     4     5    1
    5     4     6    2
    6     6     7    1
    7     6     8    1
    8     8     9    1
    9     8    10    1
   10     8    11    1
   11    11    12    1
   12    11    13    1
   13    11    14    1
   14    14    15    1
   15    14    16    1
   16    14    17    1
@<TRIPOS>SUBSTRUCTURE
       1 MOL1            1 RESIDUE      1      MOL     
@<SCITEGIC>MOL_PROPERTY
VConf Rank
SciTegic.value.IntegerValue
694

@<SCITEGIC>MOL_PROPERTY
Conf_Id
SciTegic.value.IntegerValue
1

@<SCITEGIC>MOL_PROPERTY
Delta U+W
SciTegic.value.DoubleValue
0.030

@<SCITEGIC>MOL_PROPERTY
U+W
SciTegic.value.DoubleValue
-53.378

@<SCITEGIC>MOL_PROPERTY
Grad RMS
SciTegic.value.DoubleValue
0.000000

@<SCITEGIC>MOL_PROPERTY
U
SciTegic.value.DoubleValue
9.048

@<SCITEGIC>MOL_PROPERTY
W
SciTegic.value.DoubleValue
-62.426

@<SCITEGIC>MOL_PROPERTY
W(PB)
SciTegic.value.DoubleValue
-64.506

@<SCITEGIC>MOL_PROPERTY
W(SA)
SciTegic.value.DoubleValue
2.080

@<SCITEGIC>MOL_PROPERTY
Valence
SciTegic.value.DoubleValue
2.652

@<SCITEGIC>MOL_PROPERTY
Coulomb
SciTegic.value.DoubleValue
5.578

@<SCITEGIC>MOL_PROPERTY
VdW
SciTegic.value.DoubleValue
0.818

@<SCITEGIC>MOL_PROPERTY
VdW6
SciTegic.value.DoubleValue
-4.535

@<SCITEGIC>MOL_PROPERTY
VdW12
SciTegic.value.DoubleValue
5.352

@<SCITEGIC>MOL_PROPERTY
Bond
SciTegic.value.DoubleValue
0.063

@<SCITEGIC>MOL_PROPERTY
Angle
SciTegic.value.DoubleValue
2.579

@<SCITEGIC>MOL_PROPERTY
Pdih
SciTegic.value.DoubleValue
0.010

@<SCITEGIC>MOL_PROPERTY
Idih
SciTegic.value.DoubleValue
0.000

@<SCITEGIC>MOL_PROPERTY
Tether
SciTegic.value.DoubleValue
0.000

@<TRIPOS>MOLECULE
guest-s19_confgen4.mol2 : confsearch ligand conformer 695
          17          16           1
SMALL
USER_CHARGES
 
@<TRIPOS>ATOM
       1    C1      21.506849   16.777006   20.657825 C.2        1 MOL1         0.6173
       2    O1      21.601061   15.989588   21.580614 O.co2      1 MOL1        -0.6755
       3    O2      21.687409   16.459411   19.498367 O.co2      1 MOL1        -0.6755
       4    C2      21.159961   18.197111   20.935426 C.2        1 MOL1        -0.1504
       5    H1      21.092763   18.847920   20.066696 H          1 MOL1         0.0814
       6    C3      20.931190   18.688699   22.174373 C.2        1 MOL1        -0.1394
       7    H2      20.992528   18.044755   23.051397 H          1 MOL1         0.0817
       8    C4      20.574736   20.134595   22.448849 C.3        1 MOL1        -0.1849
       9    H3      21.178990   20.790927   21.808043 H          1 MOL1         0.0736
      10    H4      20.835469   20.392887   23.484029 H          1 MOL1         0.0736
      11    C5      19.077939   20.427318   22.204973 C.3        1 MOL1        -0.1866
      12    H5      18.900103   21.505811   22.316245 H          1 MOL1         0.0738
      13    H6      18.814299   20.170996   21.169493 H          1 MOL1         0.0738
      14    C6      18.158913   19.661227   23.180272 C.3        1 MOL1        -0.2879
      15    H7      18.396333   19.911847   24.222370 H          1 MOL1         0.0750
      16    H8      17.106796   19.917913   23.001192 H          1 MOL1         0.0750
      17    H9      18.266218   18.575787   23.055667 H          1 MOL1         0.0750
@<TRIPOS>BOND
    1     1     2    1
    2     1     3    2
    3     1     4    1
    4     4     5    1
    5     4     6    2
    6     6     7    1
    7     6     8    1
    8     8     9    1
    9     8    10    1
   10     8    11    1
   11    11    12    1
   12    11    13    1
   13    11    14    1
   14    14    15    1
   15    14    16    1
   16    14    17    1
@<TRIPOS>SUBSTRUCTURE
       1 MOL1            1 RESIDUE      1      MOL     
@<SCITEGIC>MOL_PROPERTY
VConf Rank
SciTegic.value.IntegerValue
695

@<SCITEGIC>MOL_PROPERTY
Conf_Id
SciTegic.value.IntegerValue
3

@<SCITEGIC>MOL_PROPERTY
Delta U+W
SciTegic.value.DoubleValue
0.531

@<SCITEGIC>MOL_PROPERTY
U+W
SciTegic.value.DoubleValue
-52.878

@<SCITEGIC>MOL_PROPERTY
Grad RMS
SciTegic.value.DoubleValue
0.000000

@<SCITEGIC>MOL_PROPERTY
U
SciTegic.value.DoubleValue
10.067

@<SCITEGIC>MOL_PROPERTY
W
SciTegic.value.DoubleValue
-62.945

@<SCITEGIC>MOL_PROPERTY
W(PB)
SciTegic.value.DoubleValue
-64.982

@<SCITEGIC>MOL_PROPERTY
W(SA)
SciTegic.value.DoubleValue
2.037

@<SCITEGIC>MOL_PROPERTY
Valence
SciTegic.value.DoubleValue
2.779

@<SCITEGIC>MOL_PROPERTY
Coulomb
SciTegic.value.DoubleValue
6.474

@<SCITEGIC>MOL_PROPERTY
VdW
SciTegic.value.DoubleValue
0.815

@<SCITEGIC>MOL_PROPERTY
VdW6
SciTegic.value.DoubleValue
-5.088

@<SCITEGIC>MOL_PROPERTY
VdW12
SciTegic.value.DoubleValue
5.902

@<SCITEGIC>MOL_PROPERTY
Bond
SciTegic.value.DoubleValue
0.078

@<SCITEGIC>MOL_PROPERTY
Angle
SciTegic.value.DoubleValue
2.651

@<SCITEGIC>MOL_PROPERTY
Pdih
SciTegic.value.DoubleValue
0.050

@<SCITEGIC>MOL_PROPERTY
Idih
SciTegic.value.DoubleValue
0.000

@<SCITEGIC>MOL_PROPERTY
Tether
SciTegic.value.DoubleValue
0.000

@<TRIPOS>MOLECULE
guest-s19_confgen4.mol2 : confsearch ligand conformer 696
          17          16           1
SMALL
USER_CHARGES
 
@<TRIPOS>ATOM
       1    C1      18.196361   21.305829   23.115702 C.2        1 MOL1         0.6173
       2    O1      18.007142   22.421887   22.672542 O.co2      1 MOL1        -0.6755
       3    O2      17.962980   21.005964   24.271584 O.co2      1 MOL1        -0.6755
       4    C2      18.734309   20.278258   22.183617 C.2        1 MOL1        -0.1504
       5    H1      18.920308   20.612789   21.165678 H          1 MOL1         0.0814
       6    C3      18.994562   18.999738   22.540324 C.2        1 MOL1        -0.1394
       7    H2      18.814561   18.657210   23.559045 H          1 MOL1         0.0817
       8    C4      19.544805   17.956621   21.589811 C.3        1 MOL1        -0.1849
       9    H3      19.411030   18.275136   20.547030 H          1 MOL1         0.0736
      10    H4      18.967393   17.029270   21.702167 H          1 MOL1         0.0736
      11    C5      21.036116   17.652917   21.852346 C.3        1 MOL1        -0.1866
      12    H5      21.171216   17.336754   22.896016 H          1 MOL1         0.0738
      13    H6      21.345119   16.805319   21.225216 H          1 MOL1         0.0738
      14    C6      21.949944   18.860188   21.551937 C.3        1 MOL1        -0.2879
      15    H7      21.712946   19.708983   22.206484 H          1 MOL1         0.0750
      16    H8      23.003344   18.596218   21.711738 H          1 MOL1         0.0750
      17    H9      21.836743   19.188642   20.510594 H          1 MOL1         0.0750
@<TRIPOS>BOND
    1     1     2    1
    2     1     3    2
    3     1     4    1
    4     4     5    1
    5     4     6    2
    6     6     7    1
    7     6     8    1
    8     8     9    1
    9     8    10    1
   10     8    11    1
   11    11    12    1
   12    11    13    1
   13    11    14    1
   14    14    15    1
   15    14    16    1
   16    14    17    1
@<TRIPOS>SUBSTRUCTURE
       1 MOL1            1 RESIDUE      1      MOL     
@<SCITEGIC>MOL_PROPERTY
VConf Rank
SciTegic.value.IntegerValue
696

@<SCITEGIC>MOL_PROPERTY
Conf_Id
SciTegic.value.IntegerValue
45

@<SCITEGIC>MOL_PROPERTY
Delta U+W
SciTegic.value.DoubleValue
0.562

@<SCITEGIC>MOL_PROPERTY
U+W
SciTegic.value.DoubleValue
-52.846

@<SCITEGIC>MOL_PROPERTY
Grad RMS
SciTegic.value.DoubleValue
0.000000

@<SCITEGIC>MOL_PROPERTY
U
SciTegic.value.DoubleValue
10.243

@<SCITEGIC>MOL_PROPERTY
W
SciTegic.value.DoubleValue
-63.089

@<SCITEGIC>MOL_PROPERTY
W(PB)
SciTegic.value.DoubleValue
-65.116

@<SCITEGIC>MOL_PROPERTY
W(SA)
SciTegic.value.DoubleValue
2.026

@<SCITEGIC>MOL_PROPERTY
Valence
SciTegic.value.DoubleValue
2.822

@<SCITEGIC>MOL_PROPERTY
Coulomb
SciTegic.value.DoubleValue
6.637

@<SCITEGIC>MOL_PROPERTY
VdW
SciTegic.value.DoubleValue
0.785

@<SCITEGIC>MOL_PROPERTY
VdW6
SciTegic.value.DoubleValue
-5.216

@<SCITEGIC>MOL_PROPERTY
VdW12
SciTegic.value.DoubleValue
6.001

@<SCITEGIC>MOL_PROPERTY
Bond
SciTegic.value.DoubleValue
0.080

@<SCITEGIC>MOL_PROPERTY
Angle
SciTegic.value.DoubleValue
2.678

@<SCITEGIC>MOL_PROPERTY
Pdih
SciTegic.value.DoubleValue
0.064

@<SCITEGIC>MOL_PROPERTY
Idih
SciTegic.value.DoubleValue
0.000

@<SCITEGIC>MOL_PROPERTY
Tether
SciTegic.value.DoubleValue
0.000

@<TRIPOS>MOLECULE
guest-s19_confgen4.mol2 : confsearch ligand conformer 697
          17          16           1
SMALL
USER_CHARGES
 
@<TRIPOS>ATOM
       1    C1      19.327501   18.462213   25.154680 C.2        1 MOL1         0.6173
       2    O1      19.424549   19.191009   26.122741 O.co2      1 MOL1        -0.6755
       3    O2      19.174408   17.258670   25.246548 O.co2      1 MOL1        -0.6755
       4    C2      19.400746   19.093117   23.809036 C.2        1 MOL1        -0.1504
       5    H1      19.538299   20.171938   23.797523 H          1 MOL1         0.0814
       6    C3      19.309179   18.405365   22.648132 C.2        1 MOL1        -0.1394
       7    H2      19.173667   17.323973   22.648115 H          1 MOL1         0.0817
       8    C4      19.386840   19.054445   21.283616 C.3        1 MOL1        -0.1849
       9    H3      18.864145   20.020581   21.296993 H          1 MOL1         0.0736
      10    H4      18.865563   18.427345   20.547815 H          1 MOL1         0.0736
      11    C5      20.850196   19.260393   20.841815 C.3        1 MOL1        -0.1866
      12    H5      21.372073   19.891160   21.574848 H          1 MOL1         0.0738
      13    H6      21.370304   18.292487   20.827244 H          1 MOL1         0.0738
      14    C6      20.938004   19.913031   19.447584 C.3        1 MOL1        -0.2879
      15    H7      20.450835   19.286445   18.688976 H          1 MOL1         0.0750
      16    H8      20.451676   20.897360   19.443270 H          1 MOL1         0.0750
      17    H9      21.985766   20.051505   19.150681 H          1 MOL1         0.0750
@<TRIPOS>BOND
    1     1     2    1
    2     1     3    2
    3     1     4    1
    4     4     5    1
    5     4     6    2
    6     6     7    1
    7     6     8    1
    8     8     9    1
    9     8    10    1
   10     8    11    1
   11    11    12    1
   12    11    13    1
   13    11    14    1
   14    14    15    1
   15    14    16    1
   16    14    17    1
@<TRIPOS>SUBSTRUCTURE
       1 MOL1            1 RESIDUE      1      MOL     
@<SCITEGIC>MOL_PROPERTY
VConf Rank
SciTegic.value.IntegerValue
697

@<SCITEGIC>MOL_PROPERTY
Conf_Id
SciTegic.value.IntegerValue
36

@<SCITEGIC>MOL_PROPERTY
Delta U+W
SciTegic.value.DoubleValue
0.000

@<SCITEGIC>MOL_PROPERTY
U+W
SciTegic.value.DoubleValue
-53.409

@<SCITEGIC>MOL_PROPERTY
Grad RMS
SciTegic.value.DoubleValue
0.000000

@<SCITEGIC>MOL_PROPERTY
U
SciTegic.value.DoubleValue
9.048

@<SCITEGIC>MOL_PROPERTY
W
SciTegic.value.DoubleValue
-62.457

@<SCITEGIC>MOL_PROPERTY
W(PB)
SciTegic.value.DoubleValue
-64.540

@<SCITEGIC>MOL_PROPERTY
W(SA)
SciTegic.value.DoubleValue
2.084

@<SCITEGIC>MOL_PROPERTY
Valence
SciTegic.value.DoubleValue
2.652

@<SCITEGIC>MOL_PROPERTY
Coulomb
SciTegic.value.DoubleValue
5.578

@<SCITEGIC>MOL_PROPERTY
VdW
SciTegic.value.DoubleValue
0.818

@<SCITEGIC>MOL_PROPERTY
VdW6
SciTegic.value.DoubleValue
-4.534

@<SCITEGIC>MOL_PROPERTY
VdW12
SciTegic.value.DoubleValue
5.352

@<SCITEGIC>MOL_PROPERTY
Bond
SciTegic.value.DoubleValue
0.063

@<SCITEGIC>MOL_PROPERTY
Angle
SciTegic.value.DoubleValue
2.579

@<SCITEGIC>MOL_PROPERTY
Pdih
SciTegic.value.DoubleValue
0.010

@<SCITEGIC>MOL_PROPERTY
Idih
SciTegic.value.DoubleValue
0.000

@<SCITEGIC>MOL_PROPERTY
Tether
SciTegic.value.DoubleValue
0.000

@<TRIPOS>MOLECULE
guest-s19_confgen4.mol2 : confsearch ligand conformer 698
          17          16           1
SMALL
USER_CHARGES
 
@<TRIPOS>ATOM
       1    C1      22.993051   20.282594   20.870161 C.2        1 MOL1         0.6173
       2    O1      23.848630   19.702903   21.512295 O.co2      1 MOL1        -0.6755
       3    O2      23.233784   21.244927   20.167546 O.co2      1 MOL1        -0.6755
       4    C2      21.583147   19.810652   20.930200 C.2        1 MOL1        -0.1504
       5    H1      20.868743   20.372526   20.332844 H          1 MOL1         0.0814
       6    C3      21.172360   18.755458   21.669731 C.2        1 MOL1        -0.1394
       7    H2      21.879324   18.186846   22.273599 H          1 MOL1         0.0817
       8    C4      19.736084   18.283117   21.726694 C.3        1 MOL1        -0.1849
       9    H3      19.709361   17.218740   21.996462 H          1 MOL1         0.0736
      10    H4      19.273992   18.365459   20.733468 H          1 MOL1         0.0736
      11    C5      18.917473   19.095776   22.750646 C.3        1 MOL1        -0.1866
      12    H5      19.380356   19.010103   23.743605 H          1 MOL1         0.0738
      13    H6      18.939784   20.160548   22.479862 H          1 MOL1         0.0738
      14    C6      17.454377   18.614252   22.821418 C.3        1 MOL1        -0.2879
      15    H7      17.401876   17.559436   23.121481 H          1 MOL1         0.0750
      16    H8      16.888294   19.203596   23.554462 H          1 MOL1         0.0750
      17    H9      16.958854   18.718798   21.847271 H          1 MOL1         0.0750
@<TRIPOS>BOND
    1     1     2    1
    2     1     3    2
    3     1     4    1
    4     4     5    1
    5     4     6    2
    6     6     7    1
    7     6     8    1
    8     8     9    1
    9     8    10    1
   10     8    11    1
   11    11    12    1
   12    11    13    1
   13    11    14    1
   14    14    15    1
   15    14    16    1
   16    14    17    1
@<TRIPOS>SUBSTRUCTURE
       1 MOL1            1 RESIDUE      1      MOL     
@<SCITEGIC>MOL_PROPERTY
VConf Rank
SciTegic.value.IntegerValue
698

@<SCITEGIC>MOL_PROPERTY
Conf_Id
SciTegic.value.IntegerValue
1

@<SCITEGIC>MOL_PROPERTY
Delta U+W
SciTegic.value.DoubleValue
0.030

@<SCITEGIC>MOL_PROPERTY
U+W
SciTegic.value.DoubleValue
-53.378

@<SCITEGIC>MOL_PROPERTY
Grad RMS
SciTegic.value.DoubleValue
0.000000

@<SCITEGIC>MOL_PROPERTY
U
SciTegic.value.DoubleValue
9.048

@<SCITEGIC>MOL_PROPERTY
W
SciTegic.value.DoubleValue
-62.426

@<SCITEGIC>MOL_PROPERTY
W(PB)
SciTegic.value.DoubleValue
-64.506

@<SCITEGIC>MOL_PROPERTY
W(SA)
SciTegic.value.DoubleValue
2.080

@<SCITEGIC>MOL_PROPERTY
Valence
SciTegic.value.DoubleValue
2.652

@<SCITEGIC>MOL_PROPERTY
Coulomb
SciTegic.value.DoubleValue
5.578

@<SCITEGIC>MOL_PROPERTY
VdW
SciTegic.value.DoubleValue
0.818

@<SCITEGIC>MOL_PROPERTY
VdW6
SciTegic.value.DoubleValue
-4.535

@<SCITEGIC>MOL_PROPERTY
VdW12
SciTegic.value.DoubleValue
5.352

@<SCITEGIC>MOL_PROPERTY
Bond
SciTegic.value.DoubleValue
0.063

@<SCITEGIC>MOL_PROPERTY
Angle
SciTegic.value.DoubleValue
2.579

@<SCITEGIC>MOL_PROPERTY
Pdih
SciTegic.value.DoubleValue
0.010

@<SCITEGIC>MOL_PROPERTY
Idih
SciTegic.value.DoubleValue
0.000

@<SCITEGIC>MOL_PROPERTY
Tether
SciTegic.value.DoubleValue
0.000

@<TRIPOS>MOLECULE
guest-s19_confgen4.mol2 : confsearch ligand conformer 699
          17          16           1
SMALL
USER_CHARGES
 
@<TRIPOS>ATOM
       1    C1      20.155266   16.142064   22.946525 C.2        1 MOL1         0.6173
       2    O1      21.354718   15.949014   22.879531 O.co2      1 MOL1        -0.6755
       3    O2      19.399624   15.399142   23.542246 O.co2      1 MOL1        -0.6755
       4    C2      19.563131   17.330691   22.275234 C.2        1 MOL1        -0.1504
       5    H1      18.485906   17.443633   22.373166 H          1 MOL1         0.0814
       6    C3      20.283135   18.240056   21.579795 C.2        1 MOL1        -0.1394
       7    H2      21.363392   18.138424   21.478233 H          1 MOL1         0.0817
       8    C4      19.673943   19.449622   20.902412 C.3        1 MOL1        -0.1849
       9    H3      18.725370   19.166417   20.426458 H          1 MOL1         0.0736
      10    H4      20.331562   19.794441   20.093135 H          1 MOL1         0.0736
      11    C5      19.418421   20.609542   21.889760 C.3        1 MOL1        -0.1866
      12    H5      18.882381   21.414087   21.367724 H          1 MOL1         0.0738
      13    H6      18.759614   20.267865   22.700104 H          1 MOL1         0.0738
      14    C6      20.724181   21.177363   22.485816 C.3        1 MOL1        -0.2879
      15    H7      21.393661   21.536974   21.693590 H          1 MOL1         0.0750
      16    H8      20.508266   22.019892   23.155466 H          1 MOL1         0.0750
      17    H9      21.258987   20.414572   23.066637 H          1 MOL1         0.0750
@<TRIPOS>BOND
    1     1     2    1
    2     1     3    2
    3     1     4    1
    4     4     5    1
    5     4     6    2
    6     6     7    1
    7     6     8    1
    8     8     9    1
    9     8    10    1
   10     8    11    1
   11    11    12    1
   12    11    13    1
   13    11    14    1
   14    14    15    1
   15    14    16    1
   16    14    17    1
@<TRIPOS>SUBSTRUCTURE
       1 MOL1            1 RESIDUE      1      MOL     
@<SCITEGIC>MOL_PROPERTY
VConf Rank
SciTegic.value.IntegerValue
699

@<SCITEGIC>MOL_PROPERTY
Conf_Id
SciTegic.value.IntegerValue
3

@<SCITEGIC>MOL_PROPERTY
Delta U+W
SciTegic.value.DoubleValue
0.531

@<SCITEGIC>MOL_PROPERTY
U+W
SciTegic.value.DoubleValue
-52.878

@<SCITEGIC>MOL_PROPERTY
Grad RMS
SciTegic.value.DoubleValue
0.000000

@<SCITEGIC>MOL_PROPERTY
U
SciTegic.value.DoubleValue
10.067

@<SCITEGIC>MOL_PROPERTY
W
SciTegic.value.DoubleValue
-62.945

@<SCITEGIC>MOL_PROPERTY
W(PB)
SciTegic.value.DoubleValue
-64.982

@<SCITEGIC>MOL_PROPERTY
W(SA)
SciTegic.value.DoubleValue
2.037

@<SCITEGIC>MOL_PROPERTY
Valence
SciTegic.value.DoubleValue
2.779

@<SCITEGIC>MOL_PROPERTY
Coulomb
SciTegic.value.DoubleValue
6.474

@<SCITEGIC>MOL_PROPERTY
VdW
SciTegic.value.DoubleValue
0.815

@<SCITEGIC>MOL_PROPERTY
VdW6
SciTegic.value.DoubleValue
-5.088

@<SCITEGIC>MOL_PROPERTY
VdW12
SciTegic.value.DoubleValue
5.902

@<SCITEGIC>MOL_PROPERTY
Bond
SciTegic.value.DoubleValue
0.078

@<SCITEGIC>MOL_PROPERTY
Angle
SciTegic.value.DoubleValue
2.651

@<SCITEGIC>MOL_PROPERTY
Pdih
SciTegic.value.DoubleValue
0.050

@<SCITEGIC>MOL_PROPERTY
Idih
SciTegic.value.DoubleValue
0.000

@<SCITEGIC>MOL_PROPERTY
Tether
SciTegic.value.DoubleValue
0.000

@<TRIPOS>MOLECULE
guest-s19_confgen4.mol2 : confsearch ligand conformer 700
          17          16           1
SMALL
USER_CHARGES
 
@<TRIPOS>ATOM
       1    C1      22.086773   21.055012   21.158370 C.2        1 MOL1         0.6173
       2    O1      21.995463   22.247630   20.941328 O.co2      1 MOL1        -0.6755
       3    O2      22.977116   20.366072   20.696743 O.co2      1 MOL1        -0.6755
       4    C2      21.054608   20.434404   22.032185 C.2        1 MOL1        -0.1504
       5    H1      20.288051   21.106443   22.410948 H          1 MOL1         0.0814
       6    C3      21.031495   19.121171   22.355400 C.2        1 MOL1        -0.1394
       7    H2      21.793583   18.440178   21.977263 H          1 MOL1         0.0817
       8    C4      19.977773   18.491772   23.243017 C.3        1 MOL1        -0.1849
       9    H3      19.445944   19.262382   23.817523 H          1 MOL1         0.0736
      10    H4      20.470764   17.846031   23.981928 H          1 MOL1         0.0736
      11    C5      18.962115   17.649562   22.440343 C.3        1 MOL1        -0.1866
      12    H5      19.493531   16.880113   21.863277 H          1 MOL1         0.0738
      13    H6      18.304213   17.117578   23.141312 H          1 MOL1         0.0738
      14    C6      18.097644   18.507129   21.491607 C.3        1 MOL1        -0.2879
      15    H7      18.716150   19.005247   20.733727 H          1 MOL1         0.0750
      16    H8      17.362761   17.882051   20.968069 H          1 MOL1         0.0750
      17    H9      17.550895   19.278947   22.048791 H          1 MOL1         0.0750
@<TRIPOS>BOND
    1     1     2    1
    2     1     3    2
    3     1     4    1
    4     4     5    1
    5     4     6    2
    6     6     7    1
    7     6     8    1
    8     8     9    1
    9     8    10    1
   10     8    11    1
   11    11    12    1
   12    11    13    1
   13    11    14    1
   14    14    15    1
   15    14    16    1
   16    14    17    1
@<TRIPOS>SUBSTRUCTURE
       1 MOL1            1 RESIDUE      1      MOL     
@<SCITEGIC>MOL_PROPERTY
VConf Rank
SciTegic.value.IntegerValue
700

@<SCITEGIC>MOL_PROPERTY
Conf_Id
SciTegic.value.IntegerValue
45

@<SCITEGIC>MOL_PROPERTY
Delta U+W
SciTegic.value.DoubleValue
0.562

@<SCITEGIC>MOL_PROPERTY
U+W
SciTegic.value.DoubleValue
-52.846

@<SCITEGIC>MOL_PROPERTY
Grad RMS
SciTegic.value.DoubleValue
0.000000

@<SCITEGIC>MOL_PROPERTY
U
SciTegic.value.DoubleValue
10.243

@<SCITEGIC>MOL_PROPERTY
W
SciTegic.value.DoubleValue
-63.089

@<SCITEGIC>MOL_PROPERTY
W(PB)
SciTegic.value.DoubleValue
-65.116

@<SCITEGIC>MOL_PROPERTY
W(SA)
SciTegic.value.DoubleValue
2.026

@<SCITEGIC>MOL_PROPERTY
Valence
SciTegic.value.DoubleValue
2.822

@<SCITEGIC>MOL_PROPERTY
Coulomb
SciTegic.value.DoubleValue
6.637

@<SCITEGIC>MOL_PROPERTY
VdW
SciTegic.value.DoubleValue
0.785

@<SCITEGIC>MOL_PROPERTY
VdW6
SciTegic.value.DoubleValue
-5.216

@<SCITEGIC>MOL_PROPERTY
VdW12
SciTegic.value.DoubleValue
6.001

@<SCITEGIC>MOL_PROPERTY
Bond
SciTegic.value.DoubleValue
0.080

@<SCITEGIC>MOL_PROPERTY
Angle
SciTegic.value.DoubleValue
2.678

@<SCITEGIC>MOL_PROPERTY
Pdih
SciTegic.value.DoubleValue
0.064

@<SCITEGIC>MOL_PROPERTY
Idih
SciTegic.value.DoubleValue
0.000

@<SCITEGIC>MOL_PROPERTY
Tether
SciTegic.value.DoubleValue
0.000

@<TRIPOS>MOLECULE
guest-s19_confgen4.mol2 : confsearch ligand conformer 701
          17          16           1
SMALL
USER_CHARGES
 
@<TRIPOS>ATOM
       1    C1      16.864216   20.192970   22.570387 C.2        1 MOL1         0.6173
       2    O1      16.378902   21.295216   22.405375 O.co2      1 MOL1        -0.6755
       3    O2      16.326018   19.326792   23.234068 O.co2      1 MOL1        -0.6755
       4    C2      18.173751   19.914125   21.921138 C.2        1 MOL1        -0.1504
       5    H1      18.600057   20.730529   21.342643 H          1 MOL1         0.0814
       6    C3      18.828303   18.734807   22.020412 C.2        1 MOL1        -0.1394
       7    H2      18.411386   17.910965   22.599410 H          1 MOL1         0.0817
       8    C4      20.160944   18.460103   21.358714 C.3        1 MOL1        -0.1849
       9    H3      20.191072   18.929259   20.365842 H          1 MOL1         0.0736
      10    H4      20.275732   17.379738   21.197400 H          1 MOL1         0.0736
      11    C5      21.332192   18.981198   22.216415 C.3        1 MOL1        -0.1866
      12    H5      21.221090   20.062860   22.375237 H          1 MOL1         0.0738
      13    H6      21.301111   18.509014   23.208203 H          1 MOL1         0.0738
      14    C6      22.694816   18.696624   21.553242 C.3        1 MOL1        -0.2879
      15    H7      22.845468   17.618330   21.411760 H          1 MOL1         0.0750
      16    H8      22.763583   19.184216   20.571936 H          1 MOL1         0.0750
      17    H9      23.515108   19.074291   22.177437 H          1 MOL1         0.0750
@<TRIPOS>BOND
    1     1     2    1
    2     1     3    2
    3     1     4    1
    4     4     5    1
    5     4     6    2
    6     6     7    1
    7     6     8    1
    8     8     9    1
    9     8    10    1
   10     8    11    1
   11    11    12    1
   12    11    13    1
   13    11    14    1
   14    14    15    1
   15    14    16    1
   16    14    17    1
@<TRIPOS>SUBSTRUCTURE
       1 MOL1            1 RESIDUE      1      MOL     
@<SCITEGIC>MOL_PROPERTY
VConf Rank
SciTegic.value.IntegerValue
701

@<SCITEGIC>MOL_PROPERTY
Conf_Id
SciTegic.value.IntegerValue
36

@<SCITEGIC>MOL_PROPERTY
Delta U+W
SciTegic.value.DoubleValue
0.000

@<SCITEGIC>MOL_PROPERTY
U+W
SciTegic.value.DoubleValue
-53.409

@<SCITEGIC>MOL_PROPERTY
Grad RMS
SciTegic.value.DoubleValue
0.000000

@<SCITEGIC>MOL_PROPERTY
U
SciTegic.value.DoubleValue
9.048

@<SCITEGIC>MOL_PROPERTY
W
SciTegic.value.DoubleValue
-62.457

@<SCITEGIC>MOL_PROPERTY
W(PB)
SciTegic.value.DoubleValue
-64.540

@<SCITEGIC>MOL_PROPERTY
W(SA)
SciTegic.value.DoubleValue
2.084

@<SCITEGIC>MOL_PROPERTY
Valence
SciTegic.value.DoubleValue
2.652

@<SCITEGIC>MOL_PROPERTY
Coulomb
SciTegic.value.DoubleValue
5.578

@<SCITEGIC>MOL_PROPERTY
VdW
SciTegic.value.DoubleValue
0.818

@<SCITEGIC>MOL_PROPERTY
VdW6
SciTegic.value.DoubleValue
-4.534

@<SCITEGIC>MOL_PROPERTY
VdW12
SciTegic.value.DoubleValue
5.352

@<SCITEGIC>MOL_PROPERTY
Bond
SciTegic.value.DoubleValue
0.063

@<SCITEGIC>MOL_PROPERTY
Angle
SciTegic.value.DoubleValue
2.579

@<SCITEGIC>MOL_PROPERTY
Pdih
SciTegic.value.DoubleValue
0.010

@<SCITEGIC>MOL_PROPERTY
Idih
SciTegic.value.DoubleValue
0.000

@<SCITEGIC>MOL_PROPERTY
Tether
SciTegic.value.DoubleValue
0.000

@<TRIPOS>MOLECULE
guest-s19_confgen4.mol2 : confsearch ligand conformer 702
          17          16           1
SMALL
USER_CHARGES
 
@<TRIPOS>ATOM
       1    C1      16.672026   19.246596   22.343332 C.2        1 MOL1         0.6173
       2    O1      16.226800   18.156457   22.037119 O.co2      1 MOL1        -0.6755
       3    O2      15.965748   20.215610   22.543050 O.co2      1 MOL1        -0.6755
       4    C2      18.142162   19.426000   22.487130 C.2        1 MOL1        -0.1504
       5    H1      18.473724   20.424527   22.762667 H          1 MOL1         0.0814
       6    C3      19.044574   18.437284   22.294314 C.2        1 MOL1        -0.1394
       7    H2      18.723472   17.433714   22.015898 H          1 MOL1         0.0817
       8    C4      20.538288   18.628606   22.440782 C.3        1 MOL1        -0.1849
       9    H3      21.011152   17.665526   22.675865 H          1 MOL1         0.0736
      10    H4      20.750227   19.295726   23.287445 H          1 MOL1         0.0736
      11    C5      21.159520   19.207977   21.153375 C.3        1 MOL1        -0.1866
      12    H5      20.948067   18.537936   20.308450 H          1 MOL1         0.0738
      13    H6      20.690338   20.173631   20.918981 H          1 MOL1         0.0738
      14    C6      22.683538   19.397342   21.291345 C.3        1 MOL1        -0.2879
      15    H7      23.181648   18.440305   21.494808 H          1 MOL1         0.0750
      16    H8      23.107285   19.809941   20.366504 H          1 MOL1         0.0750
      17    H9      22.920923   20.088553   22.110680 H          1 MOL1         0.0750
@<TRIPOS>BOND
    1     1     2    1
    2     1     3    2
    3     1     4    1
    4     4     5    1
    5     4     6    2
    6     6     7    1
    7     6     8    1
    8     8     9    1
    9     8    10    1
   10     8    11    1
   11    11    12    1
   12    11    13    1
   13    11    14    1
   14    14    15    1
   15    14    16    1
   16    14    17    1
@<TRIPOS>SUBSTRUCTURE
       1 MOL1            1 RESIDUE      1      MOL     
@<SCITEGIC>MOL_PROPERTY
VConf Rank
SciTegic.value.IntegerValue
702

@<SCITEGIC>MOL_PROPERTY
Conf_Id
SciTegic.value.IntegerValue
1

@<SCITEGIC>MOL_PROPERTY
Delta U+W
SciTegic.value.DoubleValue
0.030

@<SCITEGIC>MOL_PROPERTY
U+W
SciTegic.value.DoubleValue
-53.378

@<SCITEGIC>MOL_PROPERTY
Grad RMS
SciTegic.value.DoubleValue
0.000000

@<SCITEGIC>MOL_PROPERTY
U
SciTegic.value.DoubleValue
9.048

@<SCITEGIC>MOL_PROPERTY
W
SciTegic.value.DoubleValue
-62.426

@<SCITEGIC>MOL_PROPERTY
W(PB)
SciTegic.value.DoubleValue
-64.506

@<SCITEGIC>MOL_PROPERTY
W(SA)
SciTegic.value.DoubleValue
2.080

@<SCITEGIC>MOL_PROPERTY
Valence
SciTegic.value.DoubleValue
2.652

@<SCITEGIC>MOL_PROPERTY
Coulomb
SciTegic.value.DoubleValue
5.578

@<SCITEGIC>MOL_PROPERTY
VdW
SciTegic.value.DoubleValue
0.818

@<SCITEGIC>MOL_PROPERTY
VdW6
SciTegic.value.DoubleValue
-4.535

@<SCITEGIC>MOL_PROPERTY
VdW12
SciTegic.value.DoubleValue
5.352

@<SCITEGIC>MOL_PROPERTY
Bond
SciTegic.value.DoubleValue
0.063

@<SCITEGIC>MOL_PROPERTY
Angle
SciTegic.value.DoubleValue
2.579

@<SCITEGIC>MOL_PROPERTY
Pdih
SciTegic.value.DoubleValue
0.010

@<SCITEGIC>MOL_PROPERTY
Idih
SciTegic.value.DoubleValue
0.000

@<SCITEGIC>MOL_PROPERTY
Tether
SciTegic.value.DoubleValue
0.000

@<TRIPOS>MOLECULE
guest-s19_confgen4.mol2 : confsearch ligand conformer 703
          17          16           1
SMALL
USER_CHARGES
 
@<TRIPOS>ATOM
       1    C1      19.319905   21.903561   21.007887 C.2        1 MOL1         0.6173
       2    O1      20.166228   22.032592   20.143290 O.co2      1 MOL1        -0.6755
       3    O2      18.339964   22.618917   21.083993 O.co2      1 MOL1        -0.6755
       4    C2      19.470328   20.832886   22.030198 C.2        1 MOL1        -0.1504
       5    H1      18.679703   20.772795   22.774551 H          1 MOL1         0.0814
       6    C3      20.507297   19.965479   22.066099 C.2        1 MOL1        -0.1394
       7    H2      21.303129   20.014573   21.323240 H          1 MOL1         0.0817
       8    C4      20.651680   18.875696   23.107511 C.3        1 MOL1        -0.1849
       9    H3      20.355098   19.264534   24.091062 H          1 MOL1         0.0736
      10    H4      21.706777   18.584625   23.198841 H          1 MOL1         0.0736
      11    C5      19.799305   17.630706   22.777333 C.3        1 MOL1        -0.1866
      12    H5      19.860425   16.921353   23.614135 H          1 MOL1         0.0738
      13    H6      18.742757   17.918611   22.686542 H          1 MOL1         0.0738
      14    C6      20.258963   16.925399   21.483514 C.3        1 MOL1        -0.2879
      15    H7      21.310037   16.617077   21.556501 H          1 MOL1         0.0750
      16    H8      19.654655   16.028092   21.297614 H          1 MOL1         0.0750
      17    H9      20.155305   17.586903   20.613521 H          1 MOL1         0.0750
@<TRIPOS>BOND
    1     1     2    1
    2     1     3    2
    3     1     4    1
    4     4     5    1
    5     4     6    2
    6     6     7    1
    7     6     8    1
    8     8     9    1
    9     8    10    1
   10     8    11    1
   11    11    12    1
   12    11    13    1
   13    11    14    1
   14    14    15    1
   15    14    16    1
   16    14    17    1
@<TRIPOS>SUBSTRUCTURE
       1 MOL1            1 RESIDUE      1      MOL     
@<SCITEGIC>MOL_PROPERTY
VConf Rank
SciTegic.value.IntegerValue
703

@<SCITEGIC>MOL_PROPERTY
Conf_Id
SciTegic.value.IntegerValue
3

@<SCITEGIC>MOL_PROPERTY
Delta U+W
SciTegic.value.DoubleValue
0.531

@<SCITEGIC>MOL_PROPERTY
U+W
SciTegic.value.DoubleValue
-52.878

@<SCITEGIC>MOL_PROPERTY
Grad RMS
SciTegic.value.DoubleValue
0.000000

@<SCITEGIC>MOL_PROPERTY
U
SciTegic.value.DoubleValue
10.067

@<SCITEGIC>MOL_PROPERTY
W
SciTegic.value.DoubleValue
-62.945

@<SCITEGIC>MOL_PROPERTY
W(PB)
SciTegic.value.DoubleValue
-64.982

@<SCITEGIC>MOL_PROPERTY
W(SA)
SciTegic.value.DoubleValue
2.037

@<SCITEGIC>MOL_PROPERTY
Valence
SciTegic.value.DoubleValue
2.779

@<SCITEGIC>MOL_PROPERTY
Coulomb
SciTegic.value.DoubleValue
6.474

@<SCITEGIC>MOL_PROPERTY
VdW
SciTegic.value.DoubleValue
0.815

@<SCITEGIC>MOL_PROPERTY
VdW6
SciTegic.value.DoubleValue
-5.088

@<SCITEGIC>MOL_PROPERTY
VdW12
SciTegic.value.DoubleValue
5.902

@<SCITEGIC>MOL_PROPERTY
Bond
SciTegic.value.DoubleValue
0.078

@<SCITEGIC>MOL_PROPERTY
Angle
SciTegic.value.DoubleValue
2.651

@<SCITEGIC>MOL_PROPERTY
Pdih
SciTegic.value.DoubleValue
0.050

@<SCITEGIC>MOL_PROPERTY
Idih
SciTegic.value.DoubleValue
0.000

@<SCITEGIC>MOL_PROPERTY
Tether
SciTegic.value.DoubleValue
0.000

@<TRIPOS>MOLECULE
guest-s19_confgen4.mol2 : confsearch ligand conformer 704
          17          16           1
SMALL
USER_CHARGES
 
@<TRIPOS>ATOM
       1    C1      22.120468   20.760787   20.748444 C.2        1 MOL1         0.6173
       2    O1      22.363787   20.909985   19.566786 O.co2      1 MOL1        -0.6755
       3    O2      22.935660   20.983690   21.623787 O.co2      1 MOL1        -0.6755
       4    C2      20.758430   20.287126   21.115281 C.2        1 MOL1        -0.1504
       5    H1      20.079637   20.107256   20.284863 H          1 MOL1         0.0814
       6    C3      20.351393   20.075814   22.387780 C.2        1 MOL1        -0.1394
       7    H2      21.026245   20.250026   23.225480 H          1 MOL1         0.0817
       8    C4      18.964953   19.590923   22.757916 C.3        1 MOL1        -0.1849
       9    H3      18.269642   19.731657   21.919181 H          1 MOL1         0.0736
      10    H4      18.578213   20.205898   23.581473 H          1 MOL1         0.0736
      11    C5      18.959110   18.109308   23.193748 C.3        1 MOL1        -0.1866
      12    H5      19.656391   17.967129   24.031032 H          1 MOL1         0.0738
      13    H6      17.959878   17.850319   23.570123 H          1 MOL1         0.0738
      14    C6      19.326798   17.149873   22.041741 C.3        1 MOL1        -0.2879
      15    H7      20.346730   17.336336   21.681153 H          1 MOL1         0.0750
      16    H8      19.274284   16.105999   22.377053 H          1 MOL1         0.0750
      17    H9      18.637261   17.269595   21.195988 H          1 MOL1         0.0750
@<TRIPOS>BOND
    1     1     2    1
    2     1     3    2
    3     1     4    1
    4     4     5    1
    5     4     6    2
    6     6     7    1
    7     6     8    1
    8     8     9    1
    9     8    10    1
   10     8    11    1
   11    11    12    1
   12    11    13    1
   13    11    14    1
   14    14    15    1
   15    14    16    1
   16    14    17    1
@<TRIPOS>SUBSTRUCTURE
       1 MOL1            1 RESIDUE      1      MOL     
@<SCITEGIC>MOL_PROPERTY
VConf Rank
SciTegic.value.IntegerValue
704

@<SCITEGIC>MOL_PROPERTY
Conf_Id
SciTegic.value.IntegerValue
45

@<SCITEGIC>MOL_PROPERTY
Delta U+W
SciTegic.value.DoubleValue
0.562

@<SCITEGIC>MOL_PROPERTY
U+W
SciTegic.value.DoubleValue
-52.846

@<SCITEGIC>MOL_PROPERTY
Grad RMS
SciTegic.value.DoubleValue
0.000000

@<SCITEGIC>MOL_PROPERTY
U
SciTegic.value.DoubleValue
10.243

@<SCITEGIC>MOL_PROPERTY
W
SciTegic.value.DoubleValue
-63.089

@<SCITEGIC>MOL_PROPERTY
W(PB)
SciTegic.value.DoubleValue
-65.116

@<SCITEGIC>MOL_PROPERTY
W(SA)
SciTegic.value.DoubleValue
2.026

@<SCITEGIC>MOL_PROPERTY
Valence
SciTegic.value.DoubleValue
2.822

@<SCITEGIC>MOL_PROPERTY
Coulomb
SciTegic.value.DoubleValue
6.637

@<SCITEGIC>MOL_PROPERTY
VdW
SciTegic.value.DoubleValue
0.785

@<SCITEGIC>MOL_PROPERTY
VdW6
SciTegic.value.DoubleValue
-5.216

@<SCITEGIC>MOL_PROPERTY
VdW12
SciTegic.value.DoubleValue
6.001

@<SCITEGIC>MOL_PROPERTY
Bond
SciTegic.value.DoubleValue
0.080

@<SCITEGIC>MOL_PROPERTY
Angle
SciTegic.value.DoubleValue
2.678

@<SCITEGIC>MOL_PROPERTY
Pdih
SciTegic.value.DoubleValue
0.064

@<SCITEGIC>MOL_PROPERTY
Idih
SciTegic.value.DoubleValue
0.000

@<SCITEGIC>MOL_PROPERTY
Tether
SciTegic.value.DoubleValue
0.000

@<TRIPOS>MOLECULE
guest-s19_confgen4.mol2 : confsearch ligand conformer 705
          17          16           1
SMALL
USER_CHARGES
 
@<TRIPOS>ATOM
       1    C1      18.541464   19.402559   24.944911 C.2        1 MOL1         0.6173
       2    O1      18.724968   18.745012   25.950725 O.co2      1 MOL1        -0.6755
       3    O2      17.599595   20.161705   24.814619 O.co2      1 MOL1        -0.6755
       4    C2      19.526169   19.256615   23.838920 C.2        1 MOL1        -0.1504
       5    H1      20.343654   18.562428   24.019840 H          1 MOL1         0.0814
       6    C3      19.445996   19.924067   22.665393 C.2        1 MOL1        -0.1394
       7    H2      18.629845   20.620160   22.472714 H          1 MOL1         0.0817
       8    C4      20.450556   19.768252   21.544760 C.3        1 MOL1        -0.1849
       9    H3      21.463353   19.671254   21.959057 H          1 MOL1         0.0736
      10    H4      20.452412   20.674271   20.923863 H          1 MOL1         0.0736
      11    C5      20.127520   18.541743   20.667071 C.3        1 MOL1        -0.1866
      12    H5      20.129409   17.633773   21.286061 H          1 MOL1         0.0738
      13    H6      19.114896   18.642045   20.252220 H          1 MOL1         0.0738
      14    C6      21.141588   18.381329   19.516654 C.3        1 MOL1        -0.2879
      15    H7      21.137142   19.263454   18.862998 H          1 MOL1         0.0750
      16    H8      22.159482   18.248050   19.905967 H          1 MOL1         0.0750
      17    H9      20.895704   17.504323   18.903846 H          1 MOL1         0.0750
@<TRIPOS>BOND
    1     1     2    1
    2     1     3    2
    3     1     4    1
    4     4     5    1
    5     4     6    2
    6     6     7    1
    7     6     8    1
    8     8     9    1
    9     8    10    1
   10     8    11    1
   11    11    12    1
   12    11    13    1
   13    11    14    1
   14    14    15    1
   15    14    16    1
   16    14    17    1
@<TRIPOS>SUBSTRUCTURE
       1 MOL1            1 RESIDUE      1      MOL     
@<SCITEGIC>MOL_PROPERTY
VConf Rank
SciTegic.value.IntegerValue
705

@<SCITEGIC>MOL_PROPERTY
Conf_Id
SciTegic.value.IntegerValue
36

@<SCITEGIC>MOL_PROPERTY
Delta U+W
SciTegic.value.DoubleValue
0.000

@<SCITEGIC>MOL_PROPERTY
U+W
SciTegic.value.DoubleValue
-53.409

@<SCITEGIC>MOL_PROPERTY
Grad RMS
SciTegic.value.DoubleValue
0.000000

@<SCITEGIC>MOL_PROPERTY
U
SciTegic.value.DoubleValue
9.048

@<SCITEGIC>MOL_PROPERTY
W
SciTegic.value.DoubleValue
-62.457

@<SCITEGIC>MOL_PROPERTY
W(PB)
SciTegic.value.DoubleValue
-64.540

@<SCITEGIC>MOL_PROPERTY
W(SA)
SciTegic.value.DoubleValue
2.084

@<SCITEGIC>MOL_PROPERTY
Valence
SciTegic.value.DoubleValue
2.652

@<SCITEGIC>MOL_PROPERTY
Coulomb
SciTegic.value.DoubleValue
5.578

@<SCITEGIC>MOL_PROPERTY
VdW
SciTegic.value.DoubleValue
0.818

@<SCITEGIC>MOL_PROPERTY
VdW6
SciTegic.value.DoubleValue
-4.534

@<SCITEGIC>MOL_PROPERTY
VdW12
SciTegic.value.DoubleValue
5.352

@<SCITEGIC>MOL_PROPERTY
Bond
SciTegic.value.DoubleValue
0.063

@<SCITEGIC>MOL_PROPERTY
Angle
SciTegic.value.DoubleValue
2.579

@<SCITEGIC>MOL_PROPERTY
Pdih
SciTegic.value.DoubleValue
0.010

@<SCITEGIC>MOL_PROPERTY
Idih
SciTegic.value.DoubleValue
0.000

@<SCITEGIC>MOL_PROPERTY
Tether
SciTegic.value.DoubleValue
0.000

@<TRIPOS>MOLECULE
guest-s19_confgen4.mol2 : confsearch ligand conformer 706
          17          16           1
SMALL
USER_CHARGES
 
@<TRIPOS>ATOM
       1    C1      17.206866   17.538876   20.873986 C.2        1 MOL1         0.6173
       2    O1      17.394553   17.207775   19.718331 O.co2      1 MOL1        -0.6755
       3    O2      16.116464   17.481457   21.408246 O.co2      1 MOL1        -0.6755
       4    C2      18.346812   18.037895   21.689869 C.2        1 MOL1        -0.1504
       5    H1      18.111006   18.316775   22.714335 H          1 MOL1         0.0814
       6    C3      19.611603   18.155332   21.225543 C.2        1 MOL1        -0.1394
       7    H2      19.858499   17.880841   20.200130 H          1 MOL1         0.0817
       8    C4      20.764952   18.665550   22.061426 C.3        1 MOL1        -0.1849
       9    H3      21.709953   18.271560   21.663766 H          1 MOL1         0.0736
      10    H4      20.678122   18.290126   23.090175 H          1 MOL1         0.0736
      11    C5      20.812353   20.207190   22.072175 C.3        1 MOL1        -0.1866
      12    H5      20.901385   20.580200   21.042367 H          1 MOL1         0.0738
      13    H6      19.869090   20.602975   22.473632 H          1 MOL1         0.0738
      14    C6      21.990919   20.735159   22.914645 C.3        1 MOL1        -0.2879
      15    H7      22.949835   20.379604   22.515281 H          1 MOL1         0.0750
      16    H8      22.008228   21.832798   22.910383 H          1 MOL1         0.0750
      17    H9      21.908851   20.401620   23.957454 H          1 MOL1         0.0750
@<TRIPOS>BOND
    1     1     2    1
    2     1     3    2
    3     1     4    1
    4     4     5    1
    5     4     6    2
    6     6     7    1
    7     6     8    1
    8     8     9    1
    9     8    10    1
   10     8    11    1
   11    11    12    1
   12    11    13    1
   13    11    14    1
   14    14    15    1
   15    14    16    1
   16    14    17    1
@<TRIPOS>SUBSTRUCTURE
       1 MOL1            1 RESIDUE      1      MOL     
@<SCITEGIC>MOL_PROPERTY
VConf Rank
SciTegic.value.IntegerValue
706

@<SCITEGIC>MOL_PROPERTY
Conf_Id
SciTegic.value.IntegerValue
1

@<SCITEGIC>MOL_PROPERTY
Delta U+W
SciTegic.value.DoubleValue
0.030

@<SCITEGIC>MOL_PROPERTY
U+W
SciTegic.value.DoubleValue
-53.378

@<SCITEGIC>MOL_PROPERTY
Grad RMS
SciTegic.value.DoubleValue
0.000000

@<SCITEGIC>MOL_PROPERTY
U
SciTegic.value.DoubleValue
9.048

@<SCITEGIC>MOL_PROPERTY
W
SciTegic.value.DoubleValue
-62.426

@<SCITEGIC>MOL_PROPERTY
W(PB)
SciTegic.value.DoubleValue
-64.506

@<SCITEGIC>MOL_PROPERTY
W(SA)
SciTegic.value.DoubleValue
2.080

@<SCITEGIC>MOL_PROPERTY
Valence
SciTegic.value.DoubleValue
2.652

@<SCITEGIC>MOL_PROPERTY
Coulomb
SciTegic.value.DoubleValue
5.578

@<SCITEGIC>MOL_PROPERTY
VdW
SciTegic.value.DoubleValue
0.818

@<SCITEGIC>MOL_PROPERTY
VdW6
SciTegic.value.DoubleValue
-4.535

@<SCITEGIC>MOL_PROPERTY
VdW12
SciTegic.value.DoubleValue
5.352

@<SCITEGIC>MOL_PROPERTY
Bond
SciTegic.value.DoubleValue
0.063

@<SCITEGIC>MOL_PROPERTY
Angle
SciTegic.value.DoubleValue
2.579

@<SCITEGIC>MOL_PROPERTY
Pdih
SciTegic.value.DoubleValue
0.010

@<SCITEGIC>MOL_PROPERTY
Idih
SciTegic.value.DoubleValue
0.000

@<SCITEGIC>MOL_PROPERTY
Tether
SciTegic.value.DoubleValue
0.000

@<TRIPOS>MOLECULE
guest-s19_confgen4.mol2 : confsearch ligand conformer 707
          17          16           1
SMALL
USER_CHARGES
 
@<TRIPOS>ATOM
       1    C1      17.249402   17.852509   22.613253 C.2        1 MOL1         0.6173
       2    O1      16.570266   18.459875   21.806828 O.co2      1 MOL1        -0.6755
       3    O2      16.868305   16.839522   23.166817 O.co2      1 MOL1        -0.6755
       4    C2      18.607901   18.353565   22.956060 C.2        1 MOL1        -0.1504
       5    H1      19.161327   17.764819   23.683974 H          1 MOL1         0.0814
       6    C3      19.159491   19.464672   22.417380 C.2        1 MOL1        -0.1394
       7    H2      18.615189   20.060062   21.684684 H          1 MOL1         0.0817
       8    C4      20.544448   19.966427   22.768308 C.3        1 MOL1        -0.1849
       9    H3      20.712809   19.857879   23.848307 H          1 MOL1         0.0736
      10    H4      20.617216   21.041091   22.553610 H          1 MOL1         0.0736
      11    C5      21.654179   19.210983   22.004526 C.3        1 MOL1        -0.1866
      12    H5      22.634228   19.541864   22.374897 H          1 MOL1         0.0738
      13    H6      21.584704   18.135403   22.218367 H          1 MOL1         0.0738
      14    C6      21.586294   19.443378   20.480027 C.3        1 MOL1        -0.2879
      15    H7      21.666599   20.511981   20.241734 H          1 MOL1         0.0750
      16    H8      22.407501   18.920415   19.973039 H          1 MOL1         0.0750
      17    H9      20.641696   19.069354   20.064021 H          1 MOL1         0.0750
@<TRIPOS>BOND
    1     1     2    1
    2     1     3    2
    3     1     4    1
    4     4     5    1
    5     4     6    2
    6     6     7    1
    7     6     8    1
    8     8     9    1
    9     8    10    1
   10     8    11    1
   11    11    12    1
   12    11    13    1
   13    11    14    1
   14    14    15    1
   15    14    16    1
   16    14    17    1
@<TRIPOS>SUBSTRUCTURE
       1 MOL1            1 RESIDUE      1      MOL     
@<SCITEGIC>MOL_PROPERTY
VConf Rank
SciTegic.value.IntegerValue
707

@<SCITEGIC>MOL_PROPERTY
Conf_Id
SciTegic.value.IntegerValue
3

@<SCITEGIC>MOL_PROPERTY
Delta U+W
SciTegic.value.DoubleValue
0.531

@<SCITEGIC>MOL_PROPERTY
U+W
SciTegic.value.DoubleValue
-52.878

@<SCITEGIC>MOL_PROPERTY
Grad RMS
SciTegic.value.DoubleValue
0.000000

@<SCITEGIC>MOL_PROPERTY
U
SciTegic.value.DoubleValue
10.067

@<SCITEGIC>MOL_PROPERTY
W
SciTegic.value.DoubleValue
-62.945

@<SCITEGIC>MOL_PROPERTY
W(PB)
SciTegic.value.DoubleValue
-64.982

@<SCITEGIC>MOL_PROPERTY
W(SA)
SciTegic.value.DoubleValue
2.037

@<SCITEGIC>MOL_PROPERTY
Valence
SciTegic.value.DoubleValue
2.779

@<SCITEGIC>MOL_PROPERTY
Coulomb
SciTegic.value.DoubleValue
6.474

@<SCITEGIC>MOL_PROPERTY
VdW
SciTegic.value.DoubleValue
0.815

@<SCITEGIC>MOL_PROPERTY
VdW6
SciTegic.value.DoubleValue
-5.088

@<SCITEGIC>MOL_PROPERTY
VdW12
SciTegic.value.DoubleValue
5.902

@<SCITEGIC>MOL_PROPERTY
Bond
SciTegic.value.DoubleValue
0.078

@<SCITEGIC>MOL_PROPERTY
Angle
SciTegic.value.DoubleValue
2.651

@<SCITEGIC>MOL_PROPERTY
Pdih
SciTegic.value.DoubleValue
0.050

@<SCITEGIC>MOL_PROPERTY
Idih
SciTegic.value.DoubleValue
0.000

@<SCITEGIC>MOL_PROPERTY
Tether
SciTegic.value.DoubleValue
0.000

@<TRIPOS>MOLECULE
guest-s19_confgen4.mol2 : confsearch ligand conformer 708
          17          16           1
SMALL
USER_CHARGES
 
@<TRIPOS>ATOM
       1    C1      18.362754   20.854252   23.929517 C.2        1 MOL1         0.6173
       2    O1      18.724349   21.778585   24.631399 O.co2      1 MOL1        -0.6755
       3    O2      17.329284   20.242286   24.124152 O.co2      1 MOL1        -0.6755
       4    C2      19.237574   20.475658   22.786963 C.2        1 MOL1        -0.1504
       5    H1      20.145330   21.063074   22.670224 H          1 MOL1         0.0814
       6    C3      18.961106   19.468283   21.927692 C.2        1 MOL1        -0.1394
       7    H2      18.055632   18.872373   22.039612 H          1 MOL1         0.0817
       8    C4      19.855088   19.083459   20.767070 C.3        1 MOL1        -0.1849
       9    H3      20.560704   19.893533   20.537669 H          1 MOL1         0.0736
      10    H4      19.238411   18.952087   19.867926 H          1 MOL1         0.0736
      11    C5      20.634124   17.777191   21.035278 C.3        1 MOL1        -0.1866
      12    H5      19.929135   16.966914   21.267444 H          1 MOL1         0.0738
      13    H6      21.162549   17.480369   20.118839 H          1 MOL1         0.0738
      14    C6      21.657661   17.920810   22.181828 C.3        1 MOL1        -0.2879
      15    H7      21.158739   18.154572   23.131294 H          1 MOL1         0.0750
      16    H8      22.218665   16.987176   22.317728 H          1 MOL1         0.0750
      17    H9      22.377776   18.721097   21.967196 H          1 MOL1         0.0750
@<TRIPOS>BOND
    1     1     2    1
    2     1     3    2
    3     1     4    1
    4     4     5    1
    5     4     6    2
    6     6     7    1
    7     6     8    1
    8     8     9    1
    9     8    10    1
   10     8    11    1
   11    11    12    1
   12    11    13    1
   13    11    14    1
   14    14    15    1
   15    14    16    1
   16    14    17    1
@<TRIPOS>SUBSTRUCTURE
       1 MOL1            1 RESIDUE      1      MOL     
@<SCITEGIC>MOL_PROPERTY
VConf Rank
SciTegic.value.IntegerValue
708

@<SCITEGIC>MOL_PROPERTY
Conf_Id
SciTegic.value.IntegerValue
45

@<SCITEGIC>MOL_PROPERTY
Delta U+W
SciTegic.value.DoubleValue
0.562

@<SCITEGIC>MOL_PROPERTY
U+W
SciTegic.value.DoubleValue
-52.846

@<SCITEGIC>MOL_PROPERTY
Grad RMS
SciTegic.value.DoubleValue
0.000000

@<SCITEGIC>MOL_PROPERTY
U
SciTegic.value.DoubleValue
10.243

@<SCITEGIC>MOL_PROPERTY
W
SciTegic.value.DoubleValue
-63.089

@<SCITEGIC>MOL_PROPERTY
W(PB)
SciTegic.value.DoubleValue
-65.116

@<SCITEGIC>MOL_PROPERTY
W(SA)
SciTegic.value.DoubleValue
2.026

@<SCITEGIC>MOL_PROPERTY
Valence
SciTegic.value.DoubleValue
2.822

@<SCITEGIC>MOL_PROPERTY
Coulomb
SciTegic.value.DoubleValue
6.637

@<SCITEGIC>MOL_PROPERTY
VdW
SciTegic.value.DoubleValue
0.785

@<SCITEGIC>MOL_PROPERTY
VdW6
SciTegic.value.DoubleValue
-5.216

@<SCITEGIC>MOL_PROPERTY
VdW12
SciTegic.value.DoubleValue
6.001

@<SCITEGIC>MOL_PROPERTY
Bond
SciTegic.value.DoubleValue
0.080

@<SCITEGIC>MOL_PROPERTY
Angle
SciTegic.value.DoubleValue
2.678

@<SCITEGIC>MOL_PROPERTY
Pdih
SciTegic.value.DoubleValue
0.064

@<SCITEGIC>MOL_PROPERTY
Idih
SciTegic.value.DoubleValue
0.000

@<SCITEGIC>MOL_PROPERTY
Tether
SciTegic.value.DoubleValue
0.000

@<TRIPOS>MOLECULE
guest-s19_confgen4.mol2 : confsearch ligand conformer 709
          17          16           1
SMALL
USER_CHARGES
 
@<TRIPOS>ATOM
       1    C1      23.006602   18.139861   23.071510 C.2        1 MOL1         0.6173
       2    O1      23.461708   17.017998   23.181083 O.co2      1 MOL1        -0.6755
       3    O2      23.516257   19.113451   23.593782 O.co2      1 MOL1        -0.6755
       4    C2      21.772347   18.304567   22.256865 C.2        1 MOL1        -0.1504
       5    H1      21.368338   17.395029   21.818200 H          1 MOL1         0.0814
       6    C3      21.157692   19.491605   22.051378 C.2        1 MOL1        -0.1394
       7    H2      21.552600   20.408706   22.488123 H          1 MOL1         0.0817
       8    C4      19.901397   19.650146   21.223232 C.3        1 MOL1        -0.1849
       9    H3      19.942277   18.987302   20.348146 H          1 MOL1         0.0736
      10    H4      19.843461   20.676183   20.835574 H          1 MOL1         0.0736
      11    C5      18.638659   19.339769   22.052793 C.3        1 MOL1        -0.1866
      12    H5      18.693100   18.312022   22.437934 H          1 MOL1         0.0738
      13    H6      18.598941   20.005335   22.926299 H          1 MOL1         0.0738
      14    C6      17.353038   19.508249   21.218335 C.3        1 MOL1        -0.2879
      15    H7      17.257550   20.537042   20.846990 H          1 MOL1         0.0750
      16    H8      17.353713   18.830502   20.354567 H          1 MOL1         0.0750
      17    H9      16.466071   19.283272   21.824805 H          1 MOL1         0.0750
@<TRIPOS>BOND
    1     1     2    1
    2     1     3    2
    3     1     4    1
    4     4     5    1
    5     4     6    2
    6     6     7    1
    7     6     8    1
    8     8     9    1
    9     8    10    1
   10     8    11    1
   11    11    12    1
   12    11    13    1
   13    11    14    1
   14    14    15    1
   15    14    16    1
   16    14    17    1
@<TRIPOS>SUBSTRUCTURE
       1 MOL1            1 RESIDUE      1      MOL     
@<SCITEGIC>MOL_PROPERTY
VConf Rank
SciTegic.value.IntegerValue
709

@<SCITEGIC>MOL_PROPERTY
Conf_Id
SciTegic.value.IntegerValue
36

@<SCITEGIC>MOL_PROPERTY
Delta U+W
SciTegic.value.DoubleValue
0.000

@<SCITEGIC>MOL_PROPERTY
U+W
SciTegic.value.DoubleValue
-53.409

@<SCITEGIC>MOL_PROPERTY
Grad RMS
SciTegic.value.DoubleValue
0.000000

@<SCITEGIC>MOL_PROPERTY
U
SciTegic.value.DoubleValue
9.048

@<SCITEGIC>MOL_PROPERTY
W
SciTegic.value.DoubleValue
-62.457

@<SCITEGIC>MOL_PROPERTY
W(PB)
SciTegic.value.DoubleValue
-64.540

@<SCITEGIC>MOL_PROPERTY
W(SA)
SciTegic.value.DoubleValue
2.084

@<SCITEGIC>MOL_PROPERTY
Valence
SciTegic.value.DoubleValue
2.652

@<SCITEGIC>MOL_PROPERTY
Coulomb
SciTegic.value.DoubleValue
5.578

@<SCITEGIC>MOL_PROPERTY
VdW
SciTegic.value.DoubleValue
0.818

@<SCITEGIC>MOL_PROPERTY
VdW6
SciTegic.value.DoubleValue
-4.534

@<SCITEGIC>MOL_PROPERTY
VdW12
SciTegic.value.DoubleValue
5.352

@<SCITEGIC>MOL_PROPERTY
Bond
SciTegic.value.DoubleValue
0.063

@<SCITEGIC>MOL_PROPERTY
Angle
SciTegic.value.DoubleValue
2.579

@<SCITEGIC>MOL_PROPERTY
Pdih
SciTegic.value.DoubleValue
0.010

@<SCITEGIC>MOL_PROPERTY
Idih
SciTegic.value.DoubleValue
0.000

@<SCITEGIC>MOL_PROPERTY
Tether
SciTegic.value.DoubleValue
0.000

@<TRIPOS>MOLECULE
guest-s19_confgen4.mol2 : confsearch ligand conformer 710
          17          16           1
SMALL
USER_CHARGES
 
@<TRIPOS>ATOM
       1    C1      22.678765   20.789635   20.730673 C.2        1 MOL1         0.6173
       2    O1      22.429389   21.076396   19.574830 O.co2      1 MOL1        -0.6755
       3    O2      23.781775   20.929370   21.222148 O.co2      1 MOL1        -0.6755
       4    C2      21.602441   20.243542   21.601001 C.2        1 MOL1        -0.1504
       5    H1      21.891828   20.008245   22.622666 H          1 MOL1         0.0814
       6    C3      20.331784   20.035035   21.187430 C.2        1 MOL1        -0.1394
       7    H2      20.031579   20.265238   20.165346 H          1 MOL1         0.0817
       8    C4      19.243513   19.477489   22.078525 C.3        1 MOL1        -0.1849
       9    H3      18.261944   19.800920   21.706635 H          1 MOL1         0.0736
      10    H4      19.343217   19.885854   23.093465 H          1 MOL1         0.0736
      11    C5      19.293818   17.936766   22.130088 C.3        1 MOL1        -0.1866
      12    H5      19.191729   17.530644   21.114111 H          1 MOL1         0.0738
      13    H6      20.273904   17.611542   22.505882 H          1 MOL1         0.0738
      14    C6      18.181752   17.360127   23.029155 C.3        1 MOL1        -0.2879
      15    H7      17.188666   17.644301   22.657057 H          1 MOL1         0.0750
      16    H8      18.233539   16.263832   23.053351 H          1 MOL1         0.0750
      17    H9      18.279849   17.726797   24.059381 H          1 MOL1         0.0750
@<TRIPOS>BOND
    1     1     2    1
    2     1     3    2
    3     1     4    1
    4     4     5    1
    5     4     6    2
    6     6     7    1
    7     6     8    1
    8     8     9    1
    9     8    10    1
   10     8    11    1
   11    11    12    1
   12    11    13    1
   13    11    14    1
   14    14    15    1
   15    14    16    1
   16    14    17    1
@<TRIPOS>SUBSTRUCTURE
       1 MOL1            1 RESIDUE      1      MOL     
@<SCITEGIC>MOL_PROPERTY
VConf Rank
SciTegic.value.IntegerValue
710

@<SCITEGIC>MOL_PROPERTY
Conf_Id
SciTegic.value.IntegerValue
1

@<SCITEGIC>MOL_PROPERTY
Delta U+W
SciTegic.value.DoubleValue
0.030

@<SCITEGIC>MOL_PROPERTY
U+W
SciTegic.value.DoubleValue
-53.378

@<SCITEGIC>MOL_PROPERTY
Grad RMS
SciTegic.value.DoubleValue
0.000000

@<SCITEGIC>MOL_PROPERTY
U
SciTegic.value.DoubleValue
9.048

@<SCITEGIC>MOL_PROPERTY
W
SciTegic.value.DoubleValue
-62.426

@<SCITEGIC>MOL_PROPERTY
W(PB)
SciTegic.value.DoubleValue
-64.506

@<SCITEGIC>MOL_PROPERTY
W(SA)
SciTegic.value.DoubleValue
2.080

@<SCITEGIC>MOL_PROPERTY
Valence
SciTegic.value.DoubleValue
2.652

@<SCITEGIC>MOL_PROPERTY
Coulomb
SciTegic.value.DoubleValue
5.578

@<SCITEGIC>MOL_PROPERTY
VdW
SciTegic.value.DoubleValue
0.818

@<SCITEGIC>MOL_PROPERTY
VdW6
SciTegic.value.DoubleValue
-4.535

@<SCITEGIC>MOL_PROPERTY
VdW12
SciTegic.value.DoubleValue
5.352

@<SCITEGIC>MOL_PROPERTY
Bond
SciTegic.value.DoubleValue
0.063

@<SCITEGIC>MOL_PROPERTY
Angle
SciTegic.value.DoubleValue
2.579

@<SCITEGIC>MOL_PROPERTY
Pdih
SciTegic.value.DoubleValue
0.010

@<SCITEGIC>MOL_PROPERTY
Idih
SciTegic.value.DoubleValue
0.000

@<SCITEGIC>MOL_PROPERTY
Tether
SciTegic.value.DoubleValue
0.000

@<TRIPOS>MOLECULE
guest-s19_confgen4.mol2 : confsearch ligand conformer 711
          17          16           1
SMALL
USER_CHARGES
 
@<TRIPOS>ATOM
       1    C1      20.704120   20.637680   24.624351 C.2        1 MOL1         0.6173
       2    O1      21.918908   20.647401   24.556252 O.co2      1 MOL1        -0.6755
       3    O2      20.079096   21.368047   25.368474 O.co2      1 MOL1        -0.6755
       4    C2      19.927341   19.697236   23.772135 C.2        1 MOL1        -0.1504
       5    H1      18.846219   19.739085   23.882516 H          1 MOL1         0.0814
       6    C3      20.490107   18.830826   22.899430 C.2        1 MOL1        -0.1394
       7    H2      21.572078   18.782933   22.778418 H          1 MOL1         0.0817
       8    C4      19.692755   17.879224   22.032425 C.3        1 MOL1        -0.1849
       9    H3      18.863492   17.456568   22.615701 H          1 MOL1         0.0736
      10    H4      20.322027   17.029635   21.734921 H          1 MOL1         0.0736
      11    C5      19.125493   18.568036   20.771745 C.3        1 MOL1        -0.1866
      12    H5      18.472975   17.862172   20.239646 H          1 MOL1         0.0738
      13    H6      18.494323   19.417914   21.066294 H          1 MOL1         0.0738
      14    C6      20.234021   19.051583   19.812547 C.3        1 MOL1        -0.2879
      15    H7      20.870461   18.215507   19.494640 H          1 MOL1         0.0750
      16    H8      19.796005   19.504887   18.913900 H          1 MOL1         0.0750
      17    H9      20.872136   19.805066   20.292437 H          1 MOL1         0.0750
@<TRIPOS>BOND
    1     1     2    1
    2     1     3    2
    3     1     4    1
    4     4     5    1
    5     4     6    2
    6     6     7    1
    7     6     8    1
    8     8     9    1
    9     8    10    1
   10     8    11    1
   11    11    12    1
   12    11    13    1
   13    11    14    1
   14    14    15    1
   15    14    16    1
   16    14    17    1
@<TRIPOS>SUBSTRUCTURE
       1 MOL1            1 RESIDUE      1      MOL     
@<SCITEGIC>MOL_PROPERTY
VConf Rank
SciTegic.value.IntegerValue
711

@<SCITEGIC>MOL_PROPERTY
Conf_Id
SciTegic.value.IntegerValue
3

@<SCITEGIC>MOL_PROPERTY
Delta U+W
SciTegic.value.DoubleValue
0.531

@<SCITEGIC>MOL_PROPERTY
U+W
SciTegic.value.DoubleValue
-52.878

@<SCITEGIC>MOL_PROPERTY
Grad RMS
SciTegic.value.DoubleValue
0.000000

@<SCITEGIC>MOL_PROPERTY
U
SciTegic.value.DoubleValue
10.067

@<SCITEGIC>MOL_PROPERTY
W
SciTegic.value.DoubleValue
-62.945

@<SCITEGIC>MOL_PROPERTY
W(PB)
SciTegic.value.DoubleValue
-64.982

@<SCITEGIC>MOL_PROPERTY
W(SA)
SciTegic.value.DoubleValue
2.037

@<SCITEGIC>MOL_PROPERTY
Valence
SciTegic.value.DoubleValue
2.779

@<SCITEGIC>MOL_PROPERTY
Coulomb
SciTegic.value.DoubleValue
6.474

@<SCITEGIC>MOL_PROPERTY
VdW
SciTegic.value.DoubleValue
0.815

@<SCITEGIC>MOL_PROPERTY
VdW6
SciTegic.value.DoubleValue
-5.088

@<SCITEGIC>MOL_PROPERTY
VdW12
SciTegic.value.DoubleValue
5.902

@<SCITEGIC>MOL_PROPERTY
Bond
SciTegic.value.DoubleValue
0.078

@<SCITEGIC>MOL_PROPERTY
Angle
SciTegic.value.DoubleValue
2.651

@<SCITEGIC>MOL_PROPERTY
Pdih
SciTegic.value.DoubleValue
0.050

@<SCITEGIC>MOL_PROPERTY
Idih
SciTegic.value.DoubleValue
0.000

@<SCITEGIC>MOL_PROPERTY
Tether
SciTegic.value.DoubleValue
0.000

@<TRIPOS>MOLECULE
guest-s19_confgen4.mol2 : confsearch ligand conformer 712
          17          16           1
SMALL
USER_CHARGES
 
@<TRIPOS>ATOM
       1    C1      21.441521   21.425918   23.326078 C.2        1 MOL1         0.6173
       2    O1      21.108327   22.591342   23.418541 O.co2      1 MOL1        -0.6755
       3    O2      22.599055   21.061173   23.412816 O.co2      1 MOL1        -0.6755
       4    C2      20.368484   20.420098   23.100272 C.2        1 MOL1        -0.1504
       5    H1      19.356859   20.813480   23.032653 H          1 MOL1         0.0814
       6    C3      20.594316   19.092261   22.976047 C.2        1 MOL1        -0.1394
       7    H2      21.605183   18.690114   23.038856 H          1 MOL1         0.0817
       8    C4      19.500081   18.071041   22.743460 C.3        1 MOL1        -0.1849
       9    H3      18.517570   18.493505   22.994330 H          1 MOL1         0.0736
      10    H4      19.650653   17.222993   23.424747 H          1 MOL1         0.0736
      11    C5      19.484705   17.549160   21.289991 C.3        1 MOL1        -0.1866
      12    H5      20.468012   17.128763   21.037341 H          1 MOL1         0.0738
      13    H6      18.761930   16.725265   21.212586 H          1 MOL1         0.0738
      14    C6      19.109457   18.644839   20.269449 C.3        1 MOL1        -0.2879
      15    H7      19.846984   19.457920   20.272000 H          1 MOL1         0.0750
      16    H8      19.070266   18.229605   19.254111 H          1 MOL1         0.0750
      17    H9      18.125476   19.074241   20.498552 H          1 MOL1         0.0750
@<TRIPOS>BOND
    1     1     2    1
    2     1     3    2
    3     1     4    1
    4     4     5    1
    5     4     6    2
    6     6     7    1
    7     6     8    1
    8     8     9    1
    9     8    10    1
   10     8    11    1
   11    11    12    1
   12    11    13    1
   13    11    14    1
   14    14    15    1
   15    14    16    1
   16    14    17    1
@<TRIPOS>SUBSTRUCTURE
       1 MOL1            1 RESIDUE      1      MOL     
@<SCITEGIC>MOL_PROPERTY
VConf Rank
SciTegic.value.IntegerValue
712

@<SCITEGIC>MOL_PROPERTY
Conf_Id
SciTegic.value.IntegerValue
45

@<SCITEGIC>MOL_PROPERTY
Delta U+W
SciTegic.value.DoubleValue
0.562

@<SCITEGIC>MOL_PROPERTY
U+W
SciTegic.value.DoubleValue
-52.846

@<SCITEGIC>MOL_PROPERTY
Grad RMS
SciTegic.value.DoubleValue
0.000000

@<SCITEGIC>MOL_PROPERTY
U
SciTegic.value.DoubleValue
10.243

@<SCITEGIC>MOL_PROPERTY
W
SciTegic.value.DoubleValue
-63.089

@<SCITEGIC>MOL_PROPERTY
W(PB)
SciTegic.value.DoubleValue
-65.116

@<SCITEGIC>MOL_PROPERTY
W(SA)
SciTegic.value.DoubleValue
2.026

@<SCITEGIC>MOL_PROPERTY
Valence
SciTegic.value.DoubleValue
2.822

@<SCITEGIC>MOL_PROPERTY
Coulomb
SciTegic.value.DoubleValue
6.637

@<SCITEGIC>MOL_PROPERTY
VdW
SciTegic.value.DoubleValue
0.785

@<SCITEGIC>MOL_PROPERTY
VdW6
SciTegic.value.DoubleValue
-5.216

@<SCITEGIC>MOL_PROPERTY
VdW12
SciTegic.value.DoubleValue
6.001

@<SCITEGIC>MOL_PROPERTY
Bond
SciTegic.value.DoubleValue
0.080

@<SCITEGIC>MOL_PROPERTY
Angle
SciTegic.value.DoubleValue
2.678

@<SCITEGIC>MOL_PROPERTY
Pdih
SciTegic.value.DoubleValue
0.064

@<SCITEGIC>MOL_PROPERTY
Idih
SciTegic.value.DoubleValue
0.000

@<SCITEGIC>MOL_PROPERTY
Tether
SciTegic.value.DoubleValue
0.000

@<TRIPOS>MOLECULE
guest-s19_confgen4.mol2 : confsearch ligand conformer 713
          17          16           1
SMALL
USER_CHARGES
 
@<TRIPOS>ATOM
       1    C1      17.219433   20.918131   22.579002 C.2        1 MOL1         0.6173
       2    O1      16.198136   21.026608   21.928702 O.co2      1 MOL1        -0.6755
       3    O2      17.491522   21.653619   23.509281 O.co2      1 MOL1        -0.6755
       4    C2      18.161790   19.829783   22.202672 C.2        1 MOL1        -0.1504
       5    H1      17.858639   19.208850   21.362762 H          1 MOL1         0.0814
       6    C3      19.332990   19.594170   22.836597 C.2        1 MOL1        -0.1394
       7    H2      19.647556   20.211657   23.677746 H          1 MOL1         0.0817
       8    C4      20.286788   18.486450   22.446130 C.3        1 MOL1        -0.1849
       9    H3      19.722424   17.589041   22.158103 H          1 MOL1         0.0736
      10    H4      20.899042   18.205459   23.313642 H          1 MOL1         0.0736
      11    C5      21.204991   18.918961   21.284730 C.3        1 MOL1        -0.1866
      12    H5      20.594050   19.196443   20.414491 H          1 MOL1         0.0738
      13    H6      21.769871   19.815440   21.575939 H          1 MOL1         0.0738
      14    C6      22.186770   17.798520   20.886928 C.3        1 MOL1        -0.2879
      15    H7      22.832390   17.523614   21.731341 H          1 MOL1         0.0750
      16    H8      21.646358   16.899880   20.561600 H          1 MOL1         0.0750
      17    H9      22.831003   18.124410   20.059952 H          1 MOL1         0.0750
@<TRIPOS>BOND
    1     1     2    1
    2     1     3    2
    3     1     4    1
    4     4     5    1
    5     4     6    2
    6     6     7    1
    7     6     8    1
    8     8     9    1
    9     8    10    1
   10     8    11    1
   11    11    12    1
   12    11    13    1
   13    11    14    1
   14    14    15    1
   15    14    16    1
   16    14    17    1
@<TRIPOS>SUBSTRUCTURE
       1 MOL1            1 RESIDUE      1      MOL     
@<SCITEGIC>MOL_PROPERTY
VConf Rank
SciTegic.value.IntegerValue
713

@<SCITEGIC>MOL_PROPERTY
Conf_Id
SciTegic.value.IntegerValue
36

@<SCITEGIC>MOL_PROPERTY
Delta U+W
SciTegic.value.DoubleValue
0.000

@<SCITEGIC>MOL_PROPERTY
U+W
SciTegic.value.DoubleValue
-53.409

@<SCITEGIC>MOL_PROPERTY
Grad RMS
SciTegic.value.DoubleValue
0.000000

@<SCITEGIC>MOL_PROPERTY
U
SciTegic.value.DoubleValue
9.048

@<SCITEGIC>MOL_PROPERTY
W
SciTegic.value.DoubleValue
-62.457

@<SCITEGIC>MOL_PROPERTY
W(PB)
SciTegic.value.DoubleValue
-64.540

@<SCITEGIC>MOL_PROPERTY
W(SA)
SciTegic.value.DoubleValue
2.084

@<SCITEGIC>MOL_PROPERTY
Valence
SciTegic.value.DoubleValue
2.652

@<SCITEGIC>MOL_PROPERTY
Coulomb
SciTegic.value.DoubleValue
5.578

@<SCITEGIC>MOL_PROPERTY
VdW
SciTegic.value.DoubleValue
0.818

@<SCITEGIC>MOL_PROPERTY
VdW6
SciTegic.value.DoubleValue
-4.534

@<SCITEGIC>MOL_PROPERTY
VdW12
SciTegic.value.DoubleValue
5.352

@<SCITEGIC>MOL_PROPERTY
Bond
SciTegic.value.DoubleValue
0.063

@<SCITEGIC>MOL_PROPERTY
Angle
SciTegic.value.DoubleValue
2.579

@<SCITEGIC>MOL_PROPERTY
Pdih
SciTegic.value.DoubleValue
0.010

@<SCITEGIC>MOL_PROPERTY
Idih
SciTegic.value.DoubleValue
0.000

@<SCITEGIC>MOL_PROPERTY
Tether
SciTegic.value.DoubleValue
0.000

@<TRIPOS>MOLECULE
guest-s19_confgen4.mol2 : confsearch ligand conformer 714
          17          16           1
SMALL
USER_CHARGES
 
@<TRIPOS>ATOM
       1    C1      20.200444   19.798606   25.206854 C.2        1 MOL1         0.6173
       2    O1      20.294132   18.735107   25.790450 O.co2      1 MOL1        -0.6755
       3    O2      19.998090   20.850879   25.780858 O.co2      1 MOL1        -0.6755
       4    C2      20.337392   19.838651   23.725704 C.2        1 MOL1        -0.1504
       5    H1      20.243404   20.820203   23.266757 H          1 MOL1         0.0814
       6    C3      20.562579   18.746980   22.959787 C.2        1 MOL1        -0.1394
       7    H2      20.656228   17.758449   23.409021 H          1 MOL1         0.0817
       8    C4      20.698751   18.796131   21.453706 C.3        1 MOL1        -0.1849
       9    H3      21.292067   17.938153   21.109850 H          1 MOL1         0.0736
      10    H4      21.251285   19.697666   21.155800 H          1 MOL1         0.0736
      11    C5      19.319290   18.779355   20.763905 C.3        1 MOL1        -0.1866
      12    H5      18.769465   17.875711   21.061707 H          1 MOL1         0.0738
      13    H6      18.725846   19.639513   21.103775 H          1 MOL1         0.0738
      14    C6      19.449704   18.819889   19.228043 C.3        1 MOL1        -0.2879
      15    H7      20.012605   17.952743   18.858407 H          1 MOL1         0.0750
      16    H8      18.458997   18.807248   18.755316 H          1 MOL1         0.0750
      17    H9      19.969213   19.730447   18.901806 H          1 MOL1         0.0750
@<TRIPOS>BOND
    1     1     2    1
    2     1     3    2
    3     1     4    1
    4     4     5    1
    5     4     6    2
    6     6     7    1
    7     6     8    1
    8     8     9    1
    9     8    10    1
   10     8    11    1
   11    11    12    1
   12    11    13    1
   13    11    14    1
   14    14    15    1
   15    14    16    1
   16    14    17    1
@<TRIPOS>SUBSTRUCTURE
       1 MOL1            1 RESIDUE      1      MOL     
@<SCITEGIC>MOL_PROPERTY
VConf Rank
SciTegic.value.IntegerValue
714

@<SCITEGIC>MOL_PROPERTY
Conf_Id
SciTegic.value.IntegerValue
1

@<SCITEGIC>MOL_PROPERTY
Delta U+W
SciTegic.value.DoubleValue
0.030

@<SCITEGIC>MOL_PROPERTY
U+W
SciTegic.value.DoubleValue
-53.378

@<SCITEGIC>MOL_PROPERTY
Grad RMS
SciTegic.value.DoubleValue
0.000000

@<SCITEGIC>MOL_PROPERTY
U
SciTegic.value.DoubleValue
9.048

@<SCITEGIC>MOL_PROPERTY
W
SciTegic.value.DoubleValue
-62.426

@<SCITEGIC>MOL_PROPERTY
W(PB)
SciTegic.value.DoubleValue
-64.506

@<SCITEGIC>MOL_PROPERTY
W(SA)
SciTegic.value.DoubleValue
2.080

@<SCITEGIC>MOL_PROPERTY
Valence
SciTegic.value.DoubleValue
2.652

@<SCITEGIC>MOL_PROPERTY
Coulomb
SciTegic.value.DoubleValue
5.578

@<SCITEGIC>MOL_PROPERTY
VdW
SciTegic.value.DoubleValue
0.818

@<SCITEGIC>MOL_PROPERTY
VdW6
SciTegic.value.DoubleValue
-4.535

@<SCITEGIC>MOL_PROPERTY
VdW12
SciTegic.value.DoubleValue
5.352

@<SCITEGIC>MOL_PROPERTY
Bond
SciTegic.value.DoubleValue
0.063

@<SCITEGIC>MOL_PROPERTY
Angle
SciTegic.value.DoubleValue
2.579

@<SCITEGIC>MOL_PROPERTY
Pdih
SciTegic.value.DoubleValue
0.010

@<SCITEGIC>MOL_PROPERTY
Idih
SciTegic.value.DoubleValue
0.000

@<SCITEGIC>MOL_PROPERTY
Tether
SciTegic.value.DoubleValue
0.000

@<TRIPOS>MOLECULE
guest-s19_confgen4.mol2 : confsearch ligand conformer 715
          17          16           1
SMALL
USER_CHARGES
 
@<TRIPOS>ATOM
       1    C1      17.024131   19.783755   22.297842 C.2        1 MOL1         0.6173
       2    O1      17.003915   20.865097   21.740407 O.co2      1 MOL1        -0.6755
       3    O2      16.018468   19.139797   22.525376 O.co2      1 MOL1        -0.6755
       4    C2      18.324055   19.204799   22.732694 C.2        1 MOL1        -0.1504
       5    H1      18.271455   18.236681   23.225383 H          1 MOL1         0.0814
       6    C3      19.519070   19.809157   22.543814 C.2        1 MOL1        -0.1394
       7    H2      19.583598   20.777618   22.048317 H          1 MOL1         0.0817
       8    C4      20.838556   19.211923   22.985723 C.3        1 MOL1        -0.1849
       9    H3      20.719849   18.746900   23.973745 H          1 MOL1         0.0736
      10    H4      21.585218   20.007804   23.109670 H          1 MOL1         0.0736
      11    C5      21.368864   18.156907   21.990095 C.3        1 MOL1        -0.1866
      12    H5      22.267171   17.685015   22.411423 H          1 MOL1         0.0738
      13    H6      20.624344   17.358500   21.864942 H          1 MOL1         0.0738
      14    C6      21.716218   18.764166   20.614125 C.3        1 MOL1        -0.2879
      15    H7      22.469037   19.556964   20.713520 H          1 MOL1         0.0750
      16    H8      22.120719   17.994775   19.943808 H          1 MOL1         0.0750
      17    H9      20.826889   19.193940   20.134950 H          1 MOL1         0.0750
@<TRIPOS>BOND
    1     1     2    1
    2     1     3    2
    3     1     4    1
    4     4     5    1
    5     4     6    2
    6     6     7    1
    7     6     8    1
    8     8     9    1
    9     8    10    1
   10     8    11    1
   11    11    12    1
   12    11    13    1
   13    11    14    1
   14    14    15    1
   15    14    16    1
   16    14    17    1
@<TRIPOS>SUBSTRUCTURE
       1 MOL1            1 RESIDUE      1      MOL     
@<SCITEGIC>MOL_PROPERTY
VConf Rank
SciTegic.value.IntegerValue
715

@<SCITEGIC>MOL_PROPERTY
Conf_Id
SciTegic.value.IntegerValue
3

@<SCITEGIC>MOL_PROPERTY
Delta U+W
SciTegic.value.DoubleValue
0.531

@<SCITEGIC>MOL_PROPERTY
U+W
SciTegic.value.DoubleValue
-52.878

@<SCITEGIC>MOL_PROPERTY
Grad RMS
SciTegic.value.DoubleValue
0.000000

@<SCITEGIC>MOL_PROPERTY
U
SciTegic.value.DoubleValue
10.067

@<SCITEGIC>MOL_PROPERTY
W
SciTegic.value.DoubleValue
-62.945

@<SCITEGIC>MOL_PROPERTY
W(PB)
SciTegic.value.DoubleValue
-64.982

@<SCITEGIC>MOL_PROPERTY
W(SA)
SciTegic.value.DoubleValue
2.037

@<SCITEGIC>MOL_PROPERTY
Valence
SciTegic.value.DoubleValue
2.779

@<SCITEGIC>MOL_PROPERTY
Coulomb
SciTegic.value.DoubleValue
6.474

@<SCITEGIC>MOL_PROPERTY
VdW
SciTegic.value.DoubleValue
0.815

@<SCITEGIC>MOL_PROPERTY
VdW6
SciTegic.value.DoubleValue
-5.088

@<SCITEGIC>MOL_PROPERTY
VdW12
SciTegic.value.DoubleValue
5.902

@<SCITEGIC>MOL_PROPERTY
Bond
SciTegic.value.DoubleValue
0.078

@<SCITEGIC>MOL_PROPERTY
Angle
SciTegic.value.DoubleValue
2.651

@<SCITEGIC>MOL_PROPERTY
Pdih
SciTegic.value.DoubleValue
0.050

@<SCITEGIC>MOL_PROPERTY
Idih
SciTegic.value.DoubleValue
0.000

@<SCITEGIC>MOL_PROPERTY
Tether
SciTegic.value.DoubleValue
0.000

@<TRIPOS>MOLECULE
guest-s19_confgen4.mol2 : confsearch ligand conformer 716
          17          16           1
SMALL
USER_CHARGES
 
@<TRIPOS>ATOM
       1    C1      18.431806   21.693288   22.131209 C.2        1 MOL1         0.6173
       2    O1      17.259401   21.901704   21.886649 O.co2      1 MOL1        -0.6755
       3    O2      19.278455   22.566557   22.099044 O.co2      1 MOL1        -0.6755
       4    C2      18.823226   20.302211   22.485846 C.2        1 MOL1        -0.1504
       5    H1      18.017971   19.571344   22.496026 H          1 MOL1         0.0814
       6    C3      20.089387   19.927042   22.778538 C.2        1 MOL1        -0.1394
       7    H2      20.902764   20.652167   22.767086 H          1 MOL1         0.0817
       8    C4      20.485218   18.509474   23.136527 C.3        1 MOL1        -0.1849
       9    H3      19.602104   17.922352   23.423121 H          1 MOL1         0.0736
      10    H4      21.136899   18.531672   24.020173 H          1 MOL1         0.0736
      11    C5      21.228513   17.799609   21.983804 C.3        1 MOL1        -0.1866
      12    H5      22.110621   18.387631   21.694709 H          1 MOL1         0.0738
      13    H6      21.601252   16.829777   22.341141 H          1 MOL1         0.0738
      14    C6      20.329578   17.569301   20.750231 C.3        1 MOL1        -0.2879
      15    H7      19.988864   18.522215   20.324880 H          1 MOL1         0.0750
      16    H8      20.878394   17.029042   19.968062 H          1 MOL1         0.0750
      17    H9      19.444425   16.976335   21.014783 H          1 MOL1         0.0750
@<TRIPOS>BOND
    1     1     2    1
    2     1     3    2
    3     1     4    1
    4     4     5    1
    5     4     6    2
    6     6     7    1
    7     6     8    1
    8     8     9    1
    9     8    10    1
   10     8    11    1
   11    11    12    1
   12    11    13    1
   13    11    14    1
   14    14    15    1
   15    14    16    1
   16    14    17    1
@<TRIPOS>SUBSTRUCTURE
       1 MOL1            1 RESIDUE      1      MOL     
@<SCITEGIC>MOL_PROPERTY
VConf Rank
SciTegic.value.IntegerValue
716

@<SCITEGIC>MOL_PROPERTY
Conf_Id
SciTegic.value.IntegerValue
45

@<SCITEGIC>MOL_PROPERTY
Delta U+W
SciTegic.value.DoubleValue
0.562

@<SCITEGIC>MOL_PROPERTY
U+W
SciTegic.value.DoubleValue
-52.846

@<SCITEGIC>MOL_PROPERTY
Grad RMS
SciTegic.value.DoubleValue
0.000000

@<SCITEGIC>MOL_PROPERTY
U
SciTegic.value.DoubleValue
10.243

@<SCITEGIC>MOL_PROPERTY
W
SciTegic.value.DoubleValue
-63.089

@<SCITEGIC>MOL_PROPERTY
W(PB)
SciTegic.value.DoubleValue
-65.116

@<SCITEGIC>MOL_PROPERTY
W(SA)
SciTegic.value.DoubleValue
2.026

@<SCITEGIC>MOL_PROPERTY
Valence
SciTegic.value.DoubleValue
2.822

@<SCITEGIC>MOL_PROPERTY
Coulomb
SciTegic.value.DoubleValue
6.637

@<SCITEGIC>MOL_PROPERTY
VdW
SciTegic.value.DoubleValue
0.785

@<SCITEGIC>MOL_PROPERTY
VdW6
SciTegic.value.DoubleValue
-5.216

@<SCITEGIC>MOL_PROPERTY
VdW12
SciTegic.value.DoubleValue
6.001

@<SCITEGIC>MOL_PROPERTY
Bond
SciTegic.value.DoubleValue
0.080

@<SCITEGIC>MOL_PROPERTY
Angle
SciTegic.value.DoubleValue
2.678

@<SCITEGIC>MOL_PROPERTY
Pdih
SciTegic.value.DoubleValue
0.064

@<SCITEGIC>MOL_PROPERTY
Idih
SciTegic.value.DoubleValue
0.000

@<SCITEGIC>MOL_PROPERTY
Tether
SciTegic.value.DoubleValue
0.000

@<TRIPOS>MOLECULE
guest-s19_confgen4.mol2 : confsearch ligand conformer 717
          17          16           1
SMALL
USER_CHARGES
 
@<TRIPOS>ATOM
       1    C1      22.345828   16.773096   22.501502 C.2        1 MOL1         0.6173
       2    O1      22.927640   16.052511   21.714130 O.co2      1 MOL1        -0.6755
       3    O2      22.371480   16.593622   23.704634 O.co2      1 MOL1        -0.6755
       4    C2      21.576473   17.919090   21.945668 C.2        1 MOL1        -0.1504
       5    H1      21.594793   18.022571   20.863141 H          1 MOL1         0.0814
       6    C3      20.882234   18.798871   22.702704 C.2        1 MOL1        -0.1394
       7    H2      20.855192   18.703133   23.788004 H          1 MOL1         0.0817
       8    C4      20.100546   19.960502   22.129279 C.3        1 MOL1        -0.1849
       9    H3      20.647498   20.400651   21.284341 H          1 MOL1         0.0736
      10    H4      20.007130   20.750534   22.886583 H          1 MOL1         0.0736
      11    C5      18.696494   19.519598   21.667485 C.3        1 MOL1        -0.1866
      12    H5      18.788265   18.732046   20.906630 H          1 MOL1         0.0738
      13    H6      18.150688   19.081599   22.514729 H          1 MOL1         0.0738
      14    C6      17.889695   20.700037   21.090281 C.3        1 MOL1        -0.2879
      15    H7      17.755674   21.489212   21.841729 H          1 MOL1         0.0750
      16    H8      18.399451   21.136737   20.221444 H          1 MOL1         0.0750
      17    H9      16.894671   20.367226   20.767335 H          1 MOL1         0.0750
@<TRIPOS>BOND
    1     1     2    1
    2     1     3    2
    3     1     4    1
    4     4     5    1
    5     4     6    2
    6     6     7    1
    7     6     8    1
    8     8     9    1
    9     8    10    1
   10     8    11    1
   11    11    12    1
   12    11    13    1
   13    11    14    1
   14    14    15    1
   15    14    16    1
   16    14    17    1
@<TRIPOS>SUBSTRUCTURE
       1 MOL1            1 RESIDUE      1      MOL     
@<SCITEGIC>MOL_PROPERTY
VConf Rank
SciTegic.value.IntegerValue
717

@<SCITEGIC>MOL_PROPERTY
Conf_Id
SciTegic.value.IntegerValue
36

@<SCITEGIC>MOL_PROPERTY
Delta U+W
SciTegic.value.DoubleValue
0.000

@<SCITEGIC>MOL_PROPERTY
U+W
SciTegic.value.DoubleValue
-53.409

@<SCITEGIC>MOL_PROPERTY
Grad RMS
SciTegic.value.DoubleValue
0.000000

@<SCITEGIC>MOL_PROPERTY
U
SciTegic.value.DoubleValue
9.048

@<SCITEGIC>MOL_PROPERTY
W
SciTegic.value.DoubleValue
-62.457

@<SCITEGIC>MOL_PROPERTY
W(PB)
SciTegic.value.DoubleValue
-64.540

@<SCITEGIC>MOL_PROPERTY
W(SA)
SciTegic.value.DoubleValue
2.084

@<SCITEGIC>MOL_PROPERTY
Valence
SciTegic.value.DoubleValue
2.652

@<SCITEGIC>MOL_PROPERTY
Coulomb
SciTegic.value.DoubleValue
5.578

@<SCITEGIC>MOL_PROPERTY
VdW
SciTegic.value.DoubleValue
0.818

@<SCITEGIC>MOL_PROPERTY
VdW6
SciTegic.value.DoubleValue
-4.534

@<SCITEGIC>MOL_PROPERTY
VdW12
SciTegic.value.DoubleValue
5.352

@<SCITEGIC>MOL_PROPERTY
Bond
SciTegic.value.DoubleValue
0.063

@<SCITEGIC>MOL_PROPERTY
Angle
SciTegic.value.DoubleValue
2.579

@<SCITEGIC>MOL_PROPERTY
Pdih
SciTegic.value.DoubleValue
0.010

@<SCITEGIC>MOL_PROPERTY
Idih
SciTegic.value.DoubleValue
0.000

@<SCITEGIC>MOL_PROPERTY
Tether
SciTegic.value.DoubleValue
0.000

@<TRIPOS>MOLECULE
guest-s19_confgen4.mol2 : confsearch ligand conformer 718
          17          16           1
SMALL
USER_CHARGES
 
@<TRIPOS>ATOM
       1    C1      16.948051   18.852179   20.528419 C.2        1 MOL1         0.6173
       2    O1      16.529245   19.987224   20.399312 O.co2      1 MOL1        -0.6755
       3    O2      16.250463   17.869285   20.370316 O.co2      1 MOL1        -0.6755
       4    C2      18.373512   18.631971   20.894114 C.2        1 MOL1        -0.1504
       5    H1      18.683122   17.594094   20.993427 H          1 MOL1         0.0814
       6    C3      19.261457   19.630817   21.101349 C.2        1 MOL1        -0.1394
       7    H2      18.961389   20.674255   21.006636 H          1 MOL1         0.0817
       8    C4      20.709097   19.398264   21.474840 C.3        1 MOL1        -0.1849
       9    H3      21.312532   20.261573   21.163470 H          1 MOL1         0.0736
      10    H4      21.102545   18.529202   20.930104 H          1 MOL1         0.0736
      11    C5      20.869247   19.177216   22.992900 C.3        1 MOL1        -0.1866
      12    H5      20.477030   20.048631   23.535458 H          1 MOL1         0.0738
      13    H6      20.269294   18.311220   23.305416 H          1 MOL1         0.0738
      14    C6      22.343379   18.948617   23.383033 C.3        1 MOL1        -0.2879
      15    H7      22.960964   19.814329   23.109974 H          1 MOL1         0.0750
      16    H8      22.437306   18.793439   24.465727 H          1 MOL1         0.0750
      17    H9      22.750859   18.063417   22.877250 H          1 MOL1         0.0750
@<TRIPOS>BOND
    1     1     2    1
    2     1     3    2
    3     1     4    1
    4     4     5    1
    5     4     6    2
    6     6     7    1
    7     6     8    1
    8     8     9    1
    9     8    10    1
   10     8    11    1
   11    11    12    1
   12    11    13    1
   13    11    14    1
   14    14    15    1
   15    14    16    1
   16    14    17    1
@<TRIPOS>SUBSTRUCTURE
       1 MOL1            1 RESIDUE      1      MOL     
@<SCITEGIC>MOL_PROPERTY
VConf Rank
SciTegic.value.IntegerValue
718

@<SCITEGIC>MOL_PROPERTY
Conf_Id
SciTegic.value.IntegerValue
1

@<SCITEGIC>MOL_PROPERTY
Delta U+W
SciTegic.value.DoubleValue
0.030

@<SCITEGIC>MOL_PROPERTY
U+W
SciTegic.value.DoubleValue
-53.378

@<SCITEGIC>MOL_PROPERTY
Grad RMS
SciTegic.value.DoubleValue
0.000000

@<SCITEGIC>MOL_PROPERTY
U
SciTegic.value.DoubleValue
9.048

@<SCITEGIC>MOL_PROPERTY
W
SciTegic.value.DoubleValue
-62.426

@<SCITEGIC>MOL_PROPERTY
W(PB)
SciTegic.value.DoubleValue
-64.506

@<SCITEGIC>MOL_PROPERTY
W(SA)
SciTegic.value.DoubleValue
2.080

@<SCITEGIC>MOL_PROPERTY
Valence
SciTegic.value.DoubleValue
2.652

@<SCITEGIC>MOL_PROPERTY
Coulomb
SciTegic.value.DoubleValue
5.578

@<SCITEGIC>MOL_PROPERTY
VdW
SciTegic.value.DoubleValue
0.818

@<SCITEGIC>MOL_PROPERTY
VdW6
SciTegic.value.DoubleValue
-4.535

@<SCITEGIC>MOL_PROPERTY
VdW12
SciTegic.value.DoubleValue
5.352

@<SCITEGIC>MOL_PROPERTY
Bond
SciTegic.value.DoubleValue
0.063

@<SCITEGIC>MOL_PROPERTY
Angle
SciTegic.value.DoubleValue
2.579

@<SCITEGIC>MOL_PROPERTY
Pdih
SciTegic.value.DoubleValue
0.010

@<SCITEGIC>MOL_PROPERTY
Idih
SciTegic.value.DoubleValue
0.000

@<SCITEGIC>MOL_PROPERTY
Tether
SciTegic.value.DoubleValue
0.000

@<TRIPOS>MOLECULE
guest-s19_confgen4.mol2 : confsearch ligand conformer 719
          17          16           1
SMALL
USER_CHARGES
 
@<TRIPOS>ATOM
       1    C1      18.787568   16.731374   23.611323 C.2        1 MOL1         0.6173
       2    O1      18.389831   17.310433   24.604770 O.co2      1 MOL1        -0.6755
       3    O2      18.423919   15.611043   23.310608 O.co2      1 MOL1        -0.6755
       4    C2      19.764718   17.401568   22.711262 C.2        1 MOL1        -0.1504
       5    H1      20.079846   16.828828   21.842112 H          1 MOL1         0.0814
       6    C3      20.253267   18.644977   22.921597 C.2        1 MOL1        -0.1394
       7    H2      19.941735   19.228936   23.787355 H          1 MOL1         0.0817
       8    C4      21.244747   19.322211   21.998918 C.3        1 MOL1        -0.1849
       9    H3      21.996011   18.593055   21.666562 H          1 MOL1         0.0736
      10    H4      21.793963   20.099241   22.547443 H          1 MOL1         0.0736
      11    C5      20.563778   19.947212   20.761494 C.3        1 MOL1        -0.1866
      12    H5      21.336915   20.328636   20.080371 H          1 MOL1         0.0738
      13    H6      20.014383   19.171795   20.209841 H          1 MOL1         0.0738
      14    C6      19.605421   21.099023   21.132430 C.3        1 MOL1        -0.2879
      15    H7      20.136329   21.892517   21.674323 H          1 MOL1         0.0750
      16    H8      19.165725   21.541214   20.229079 H          1 MOL1         0.0750
      17    H9      18.783401   20.741735   21.766346 H          1 MOL1         0.0750
@<TRIPOS>BOND
    1     1     2    1
    2     1     3    2
    3     1     4    1
    4     4     5    1
    5     4     6    2
    6     6     7    1
    7     6     8    1
    8     8     9    1
    9     8    10    1
   10     8    11    1
   11    11    12    1
   12    11    13    1
   13    11    14    1
   14    14    15    1
   15    14    16    1
   16    14    17    1
@<TRIPOS>SUBSTRUCTURE
       1 MOL1            1 RESIDUE      1      MOL     
@<SCITEGIC>MOL_PROPERTY
VConf Rank
SciTegic.value.IntegerValue
719

@<SCITEGIC>MOL_PROPERTY
Conf_Id
SciTegic.value.IntegerValue
3

@<SCITEGIC>MOL_PROPERTY
Delta U+W
SciTegic.value.DoubleValue
0.531

@<SCITEGIC>MOL_PROPERTY
U+W
SciTegic.value.DoubleValue
-52.878

@<SCITEGIC>MOL_PROPERTY
Grad RMS
SciTegic.value.DoubleValue
0.000000

@<SCITEGIC>MOL_PROPERTY
U
SciTegic.value.DoubleValue
10.067

@<SCITEGIC>MOL_PROPERTY
W
SciTegic.value.DoubleValue
-62.945

@<SCITEGIC>MOL_PROPERTY
W(PB)
SciTegic.value.DoubleValue
-64.982

@<SCITEGIC>MOL_PROPERTY
W(SA)
SciTegic.value.DoubleValue
2.037

@<SCITEGIC>MOL_PROPERTY
Valence
SciTegic.value.DoubleValue
2.779

@<SCITEGIC>MOL_PROPERTY
Coulomb
SciTegic.value.DoubleValue
6.474

@<SCITEGIC>MOL_PROPERTY
VdW
SciTegic.value.DoubleValue
0.815

@<SCITEGIC>MOL_PROPERTY
VdW6
SciTegic.value.DoubleValue
-5.088

@<SCITEGIC>MOL_PROPERTY
VdW12
SciTegic.value.DoubleValue
5.902

@<SCITEGIC>MOL_PROPERTY
Bond
SciTegic.value.DoubleValue
0.078

@<SCITEGIC>MOL_PROPERTY
Angle
SciTegic.value.DoubleValue
2.651

@<SCITEGIC>MOL_PROPERTY
Pdih
SciTegic.value.DoubleValue
0.050

@<SCITEGIC>MOL_PROPERTY
Idih
SciTegic.value.DoubleValue
0.000

@<SCITEGIC>MOL_PROPERTY
Tether
SciTegic.value.DoubleValue
0.000

@<TRIPOS>MOLECULE
guest-s19_confgen4.mol2 : confsearch ligand conformer 720
          17          16           1
SMALL
USER_CHARGES
 
@<TRIPOS>ATOM
       1    C1      19.519815   19.328930   19.100572 C.2        1 MOL1         0.6173
       2    O1      19.921728   20.167487   18.317585 O.co2      1 MOL1        -0.6755
       3    O2      18.557181   18.620443   18.872912 O.co2      1 MOL1        -0.6755
       4    C2      20.255772   19.179177   20.385101 C.2        1 MOL1        -0.1504
       5    H1      21.105807   19.843061   20.524405 H          1 MOL1         0.0814
       6    C3      19.919011   18.290186   21.347323 C.2        1 MOL1        -0.1394
       7    H2      19.066592   17.623831   21.217440 H          1 MOL1         0.0817
       8    C4      20.668566   18.141988   22.655199 C.3        1 MOL1        -0.1849
       9    H3      21.661346   18.607183   22.586476 H          1 MOL1         0.0736
      10    H4      20.844043   17.075343   22.848811 H          1 MOL1         0.0736
      11    C5      19.893693   18.746371   23.846610 C.3        1 MOL1        -0.1866
      12    H5      18.899433   18.283445   23.914476 H          1 MOL1         0.0738
      13    H6      20.419508   18.498534   24.778970 H          1 MOL1         0.0738
      14    C6      19.747843   20.279668   23.743848 C.3        1 MOL1        -0.2879
      15    H7      19.169848   20.563938   22.854935 H          1 MOL1         0.0750
      16    H8      19.227734   20.677889   24.624627 H          1 MOL1         0.0750
      17    H9      20.730960   20.764246   23.682542 H          1 MOL1         0.0750
@<TRIPOS>BOND
    1     1     2    1
    2     1     3    2
    3     1     4    1
    4     4     5    1
    5     4     6    2
    6     6     7    1
    7     6     8    1
    8     8     9    1
    9     8    10    1
   10     8    11    1
   11    11    12    1
   12    11    13    1
   13    11    14    1
   14    14    15    1
   15    14    16    1
   16    14    17    1
@<TRIPOS>SUBSTRUCTURE
       1 MOL1            1 RESIDUE      1      MOL     
@<SCITEGIC>MOL_PROPERTY
VConf Rank
SciTegic.value.IntegerValue
720

@<SCITEGIC>MOL_PROPERTY
Conf_Id
SciTegic.value.IntegerValue
45

@<SCITEGIC>MOL_PROPERTY
Delta U+W
SciTegic.value.DoubleValue
0.562

@<SCITEGIC>MOL_PROPERTY
U+W
SciTegic.value.DoubleValue
-52.846

@<SCITEGIC>MOL_PROPERTY
Grad RMS
SciTegic.value.DoubleValue
0.000000

@<SCITEGIC>MOL_PROPERTY
U
SciTegic.value.DoubleValue
10.243

@<SCITEGIC>MOL_PROPERTY
W
SciTegic.value.DoubleValue
-63.089

@<SCITEGIC>MOL_PROPERTY
W(PB)
SciTegic.value.DoubleValue
-65.116

@<SCITEGIC>MOL_PROPERTY
W(SA)
SciTegic.value.DoubleValue
2.026

@<SCITEGIC>MOL_PROPERTY
Valence
SciTegic.value.DoubleValue
2.822

@<SCITEGIC>MOL_PROPERTY
Coulomb
SciTegic.value.DoubleValue
6.637

@<SCITEGIC>MOL_PROPERTY
VdW
SciTegic.value.DoubleValue
0.785

@<SCITEGIC>MOL_PROPERTY
VdW6
SciTegic.value.DoubleValue
-5.216

@<SCITEGIC>MOL_PROPERTY
VdW12
SciTegic.value.DoubleValue
6.001

@<SCITEGIC>MOL_PROPERTY
Bond
SciTegic.value.DoubleValue
0.080

@<SCITEGIC>MOL_PROPERTY
Angle
SciTegic.value.DoubleValue
2.678

@<SCITEGIC>MOL_PROPERTY
Pdih
SciTegic.value.DoubleValue
0.064

@<SCITEGIC>MOL_PROPERTY
Idih
SciTegic.value.DoubleValue
0.000

@<SCITEGIC>MOL_PROPERTY
Tether
SciTegic.value.DoubleValue
0.000

@<TRIPOS>MOLECULE
guest-s19_confgen4.mol2 : confsearch ligand conformer 721
          17          16           1
SMALL
USER_CHARGES
 
@<TRIPOS>ATOM
       1    C1      18.186183   18.134520   19.240279 C.2        1 MOL1         0.6173
       2    O1      17.065321   18.465102   18.905484 O.co2      1 MOL1        -0.6755
       3    O2      18.768561   17.184701   18.751328 O.co2      1 MOL1        -0.6755
       4    C2      18.855252   18.943154   20.295087 C.2        1 MOL1        -0.1504
       5    H1      18.280058   19.777609   20.689733 H          1 MOL1         0.0814
       6    C3      20.098133   18.689756   20.764257 C.2        1 MOL1        -0.1394
       7    H2      20.682273   17.854870   20.377580 H          1 MOL1         0.0817
       8    C4      20.770539   19.515828   21.838833 C.3        1 MOL1        -0.1849
       9    H3      20.530989   20.578949   21.700281 H          1 MOL1         0.0736
      10    H4      21.861050   19.426229   21.743206 H          1 MOL1         0.0736
      11    C5      20.337195   19.064023   23.248479 C.3        1 MOL1        -0.1866
      12    H5      19.246711   19.157039   23.347236 H          1 MOL1         0.0738
      13    H6      20.579670   18.000995   23.385390 H          1 MOL1         0.0738
      14    C6      21.025515   19.895051   24.349903 C.3        1 MOL1        -0.2879
      15    H7      22.117361   19.794306   24.293745 H          1 MOL1         0.0750
      16    H8      20.773900   20.959442   24.254005 H          1 MOL1         0.0750
      17    H9      20.705042   19.559462   25.344794 H          1 MOL1         0.0750
@<TRIPOS>BOND
    1     1     2    1
    2     1     3    2
    3     1     4    1
    4     4     5    1
    5     4     6    2
    6     6     7    1
    7     6     8    1
    8     8     9    1
    9     8    10    1
   10     8    11    1
   11    11    12    1
   12    11    13    1
   13    11    14    1
   14    14    15    1
   15    14    16    1
   16    14    17    1
@<TRIPOS>SUBSTRUCTURE
       1 MOL1            1 RESIDUE      1      MOL     
@<SCITEGIC>MOL_PROPERTY
VConf Rank
SciTegic.value.IntegerValue
721

@<SCITEGIC>MOL_PROPERTY
Conf_Id
SciTegic.value.IntegerValue
36

@<SCITEGIC>MOL_PROPERTY
Delta U+W
SciTegic.value.DoubleValue
0.000

@<SCITEGIC>MOL_PROPERTY
U+W
SciTegic.value.DoubleValue
-53.409

@<SCITEGIC>MOL_PROPERTY
Grad RMS
SciTegic.value.DoubleValue
0.000000

@<SCITEGIC>MOL_PROPERTY
U
SciTegic.value.DoubleValue
9.048

@<SCITEGIC>MOL_PROPERTY
W
SciTegic.value.DoubleValue
-62.457

@<SCITEGIC>MOL_PROPERTY
W(PB)
SciTegic.value.DoubleValue
-64.540

@<SCITEGIC>MOL_PROPERTY
W(SA)
SciTegic.value.DoubleValue
2.084

@<SCITEGIC>MOL_PROPERTY
Valence
SciTegic.value.DoubleValue
2.652

@<SCITEGIC>MOL_PROPERTY
Coulomb
SciTegic.value.DoubleValue
5.578

@<SCITEGIC>MOL_PROPERTY
VdW
SciTegic.value.DoubleValue
0.818

@<SCITEGIC>MOL_PROPERTY
VdW6
SciTegic.value.DoubleValue
-4.534

@<SCITEGIC>MOL_PROPERTY
VdW12
SciTegic.value.DoubleValue
5.352

@<SCITEGIC>MOL_PROPERTY
Bond
SciTegic.value.DoubleValue
0.063

@<SCITEGIC>MOL_PROPERTY
Angle
SciTegic.value.DoubleValue
2.579

@<SCITEGIC>MOL_PROPERTY
Pdih
SciTegic.value.DoubleValue
0.010

@<SCITEGIC>MOL_PROPERTY
Idih
SciTegic.value.DoubleValue
0.000

@<SCITEGIC>MOL_PROPERTY
Tether
SciTegic.value.DoubleValue
0.000

@<TRIPOS>MOLECULE
guest-s19_confgen4.mol2 : confsearch ligand conformer 722
          17          16           1
SMALL
USER_CHARGES
 
@<TRIPOS>ATOM
       1    C1      16.839432   19.053609   23.052717 C.2        1 MOL1         0.6173
       2    O1      16.705376   20.036404   23.757370 O.co2      1 MOL1        -0.6755
       3    O2      16.013272   18.163620   22.997174 O.co2      1 MOL1        -0.6755
       4    C2      18.059027   18.913024   22.211892 C.2        1 MOL1        -0.1504
       5    H1      18.116381   18.011704   21.605888 H          1 MOL1         0.0814
       6    C3      19.058353   19.823569   22.175264 C.2        1 MOL1        -0.1394
       7    H2      19.012141   20.729064   22.780009 H          1 MOL1         0.0817
       8    C4      20.296317   19.672052   21.318686 C.3        1 MOL1        -0.1849
       9    H3      20.720301   20.662814   21.106518 H          1 MOL1         0.0736
      10    H4      20.029874   19.231796   20.348125 H          1 MOL1         0.0736
      11    C5      21.357205   18.794909   22.014499 C.3        1 MOL1        -0.1866
      12    H5      21.623634   19.238422   22.983971 H          1 MOL1         0.0738
      13    H6      20.935887   17.801814   22.223818 H          1 MOL1         0.0738
      14    C6      22.626077   18.643176   21.151674 C.3        1 MOL1        -0.2879
      15    H7      23.085910   19.620322   20.953759 H          1 MOL1         0.0750
      16    H8      23.368613   18.016583   21.662704 H          1 MOL1         0.0750
      17    H9      22.391688   18.172851   20.187677 H          1 MOL1         0.0750
@<TRIPOS>BOND
    1     1     2    1
    2     1     3    2
    3     1     4    1
    4     4     5    1
    5     4     6    2
    6     6     7    1
    7     6     8    1
    8     8     9    1
    9     8    10    1
   10     8    11    1
   11    11    12    1
   12    11    13    1
   13    11    14    1
   14    14    15    1
   15    14    16    1
   16    14    17    1
@<TRIPOS>SUBSTRUCTURE
       1 MOL1            1 RESIDUE      1      MOL     
@<SCITEGIC>MOL_PROPERTY
VConf Rank
SciTegic.value.IntegerValue
722

@<SCITEGIC>MOL_PROPERTY
Conf_Id
SciTegic.value.IntegerValue
1

@<SCITEGIC>MOL_PROPERTY
Delta U+W
SciTegic.value.DoubleValue
0.030

@<SCITEGIC>MOL_PROPERTY
U+W
SciTegic.value.DoubleValue
-53.378

@<SCITEGIC>MOL_PROPERTY
Grad RMS
SciTegic.value.DoubleValue
0.000000

@<SCITEGIC>MOL_PROPERTY
U
SciTegic.value.DoubleValue
9.048

@<SCITEGIC>MOL_PROPERTY
W
SciTegic.value.DoubleValue
-62.426

@<SCITEGIC>MOL_PROPERTY
W(PB)
SciTegic.value.DoubleValue
-64.506

@<SCITEGIC>MOL_PROPERTY
W(SA)
SciTegic.value.DoubleValue
2.080

@<SCITEGIC>MOL_PROPERTY
Valence
SciTegic.value.DoubleValue
2.652

@<SCITEGIC>MOL_PROPERTY
Coulomb
SciTegic.value.DoubleValue
5.578

@<SCITEGIC>MOL_PROPERTY
VdW
SciTegic.value.DoubleValue
0.818

@<SCITEGIC>MOL_PROPERTY
VdW6
SciTegic.value.DoubleValue
-4.535

@<SCITEGIC>MOL_PROPERTY
VdW12
SciTegic.value.DoubleValue
5.352

@<SCITEGIC>MOL_PROPERTY
Bond
SciTegic.value.DoubleValue
0.063

@<SCITEGIC>MOL_PROPERTY
Angle
SciTegic.value.DoubleValue
2.579

@<SCITEGIC>MOL_PROPERTY
Pdih
SciTegic.value.DoubleValue
0.010

@<SCITEGIC>MOL_PROPERTY
Idih
SciTegic.value.DoubleValue
0.000

@<SCITEGIC>MOL_PROPERTY
Tether
SciTegic.value.DoubleValue
0.000

@<TRIPOS>MOLECULE
guest-s19_confgen4.mol2 : confsearch ligand conformer 723
          17          16           1
SMALL
USER_CHARGES
 
@<TRIPOS>ATOM
       1    C1      21.165946   16.654580   20.547620 C.2        1 MOL1         0.6173
       2    O1      22.188420   16.469249   21.180581 O.co2      1 MOL1        -0.6755
       3    O2      20.699081   15.825764   19.790711 O.co2      1 MOL1        -0.6755
       4    C2      20.438932   17.945424   20.686425 C.2        1 MOL1        -0.1504
       5    H1      19.533457   18.046524   20.092578 H          1 MOL1         0.0814
       6    C3      20.841936   18.954556   21.491549 C.2        1 MOL1        -0.1394
       7    H2      21.745751   18.862569   22.093425 H          1 MOL1         0.0817
       8    C4      20.094598   20.264197   21.630624 C.3        1 MOL1        -0.1849
       9    H3      19.735748   20.589949   20.644906 H          1 MOL1         0.0736
      10    H4      20.778652   21.048398   21.981898 H          1 MOL1         0.0736
      11    C5      18.893872   20.155946   22.596077 C.3        1 MOL1        -0.1866
      12    H5      18.330718   21.099137   22.576039 H          1 MOL1         0.0738
      13    H6      18.206913   19.372811   22.246488 H          1 MOL1         0.0738
      14    C6      19.326900   19.857681   24.047365 C.3        1 MOL1        -0.2879
      15    H7      20.004969   20.635255   24.422525 H          1 MOL1         0.0750
      16    H8      18.453238   19.820891   24.710892 H          1 MOL1         0.0750
      17    H9      19.842427   18.890869   24.116130 H          1 MOL1         0.0750
@<TRIPOS>BOND
    1     1     2    1
    2     1     3    2
    3     1     4    1
    4     4     5    1
    5     4     6    2
    6     6     7    1
    7     6     8    1
    8     8     9    1
    9     8    10    1
   10     8    11    1
   11    11    12    1
   12    11    13    1
   13    11    14    1
   14    14    15    1
   15    14    16    1
   16    14    17    1
@<TRIPOS>SUBSTRUCTURE
       1 MOL1            1 RESIDUE      1      MOL     
@<SCITEGIC>MOL_PROPERTY
VConf Rank
SciTegic.value.IntegerValue
723

@<SCITEGIC>MOL_PROPERTY
Conf_Id
SciTegic.value.IntegerValue
3

@<SCITEGIC>MOL_PROPERTY
Delta U+W
SciTegic.value.DoubleValue
0.531

@<SCITEGIC>MOL_PROPERTY
U+W
SciTegic.value.DoubleValue
-52.878

@<SCITEGIC>MOL_PROPERTY
Grad RMS
SciTegic.value.DoubleValue
0.000000

@<SCITEGIC>MOL_PROPERTY
U
SciTegic.value.DoubleValue
10.067

@<SCITEGIC>MOL_PROPERTY
W
SciTegic.value.DoubleValue
-62.945

@<SCITEGIC>MOL_PROPERTY
W(PB)
SciTegic.value.DoubleValue
-64.982

@<SCITEGIC>MOL_PROPERTY
W(SA)
SciTegic.value.DoubleValue
2.037

@<SCITEGIC>MOL_PROPERTY
Valence
SciTegic.value.DoubleValue
2.779

@<SCITEGIC>MOL_PROPERTY
Coulomb
SciTegic.value.DoubleValue
6.474

@<SCITEGIC>MOL_PROPERTY
VdW
SciTegic.value.DoubleValue
0.815

@<SCITEGIC>MOL_PROPERTY
VdW6
SciTegic.value.DoubleValue
-5.088

@<SCITEGIC>MOL_PROPERTY
VdW12
SciTegic.value.DoubleValue
5.902

@<SCITEGIC>MOL_PROPERTY
Bond
SciTegic.value.DoubleValue
0.078

@<SCITEGIC>MOL_PROPERTY
Angle
SciTegic.value.DoubleValue
2.651

@<SCITEGIC>MOL_PROPERTY
Pdih
SciTegic.value.DoubleValue
0.050

@<SCITEGIC>MOL_PROPERTY
Idih
SciTegic.value.DoubleValue
0.000

@<SCITEGIC>MOL_PROPERTY
Tether
SciTegic.value.DoubleValue
0.000

@<TRIPOS>MOLECULE
guest-s19_confgen4.mol2 : confsearch ligand conformer 724
          17          16           1
SMALL
USER_CHARGES
 
@<TRIPOS>ATOM
       1    C1      19.630015   16.651332   23.809862 C.2        1 MOL1         0.6173
       2    O1      20.104806   15.539382   23.683683 O.co2      1 MOL1        -0.6755
       3    O2      18.635836   16.873244   24.475302 O.co2      1 MOL1        -0.6755
       4    C2      20.314288   17.774005   23.113121 C.2        1 MOL1        -0.1504
       5    H1      21.196382   17.506321   22.536093 H          1 MOL1         0.0814
       6    C3      19.895811   19.059266   23.163765 C.2        1 MOL1        -0.1394
       7    H2      19.010890   19.335585   23.736549 H          1 MOL1         0.0817
       8    C4      20.592989   20.199610   22.451098 C.3        1 MOL1        -0.1849
       9    H3      21.612723   19.909628   22.163358 H          1 MOL1         0.0736
      10    H4      20.700118   21.043892   23.145160 H          1 MOL1         0.0736
      11    C5      19.816391   20.672886   21.202871 C.3        1 MOL1        -0.1866
      12    H5      18.795339   20.960663   21.489396 H          1 MOL1         0.0738
      13    H6      20.296658   21.576677   20.803242 H          1 MOL1         0.0738
      14    C6      19.762899   19.599874   20.094442 C.3        1 MOL1        -0.2879
      15    H7      19.231274   18.702609   20.436996 H          1 MOL1         0.0750
      16    H8      19.238587   19.984248   19.210010 H          1 MOL1         0.0750
      17    H9      20.773873   19.302499   19.786884 H          1 MOL1         0.0750
@<TRIPOS>BOND
    1     1     2    1
    2     1     3    2
    3     1     4    1
    4     4     5    1
    5     4     6    2
    6     6     7    1
    7     6     8    1
    8     8     9    1
    9     8    10    1
   10     8    11    1
   11    11    12    1
   12    11    13    1
   13    11    14    1
   14    14    15    1
   15    14    16    1
   16    14    17    1
@<TRIPOS>SUBSTRUCTURE
       1 MOL1            1 RESIDUE      1      MOL     
@<SCITEGIC>MOL_PROPERTY
VConf Rank
SciTegic.value.IntegerValue
724

@<SCITEGIC>MOL_PROPERTY
Conf_Id
SciTegic.value.IntegerValue
45

@<SCITEGIC>MOL_PROPERTY
Delta U+W
SciTegic.value.DoubleValue
0.562

@<SCITEGIC>MOL_PROPERTY
U+W
SciTegic.value.DoubleValue
-52.846

@<SCITEGIC>MOL_PROPERTY
Grad RMS
SciTegic.value.DoubleValue
0.000000

@<SCITEGIC>MOL_PROPERTY
U
SciTegic.value.DoubleValue
10.243

@<SCITEGIC>MOL_PROPERTY
W
SciTegic.value.DoubleValue
-63.089

@<SCITEGIC>MOL_PROPERTY
W(PB)
SciTegic.value.DoubleValue
-65.116

@<SCITEGIC>MOL_PROPERTY
W(SA)
SciTegic.value.DoubleValue
2.026

@<SCITEGIC>MOL_PROPERTY
Valence
SciTegic.value.DoubleValue
2.822

@<SCITEGIC>MOL_PROPERTY
Coulomb
SciTegic.value.DoubleValue
6.637

@<SCITEGIC>MOL_PROPERTY
VdW
SciTegic.value.DoubleValue
0.785

@<SCITEGIC>MOL_PROPERTY
VdW6
SciTegic.value.DoubleValue
-5.216

@<SCITEGIC>MOL_PROPERTY
VdW12
SciTegic.value.DoubleValue
6.001

@<SCITEGIC>MOL_PROPERTY
Bond
SciTegic.value.DoubleValue
0.080

@<SCITEGIC>MOL_PROPERTY
Angle
SciTegic.value.DoubleValue
2.678

@<SCITEGIC>MOL_PROPERTY
Pdih
SciTegic.value.DoubleValue
0.064

@<SCITEGIC>MOL_PROPERTY
Idih
SciTegic.value.DoubleValue
0.000

@<SCITEGIC>MOL_PROPERTY
Tether
SciTegic.value.DoubleValue
0.000

@<TRIPOS>MOLECULE
guest-s19_confgen4.mol2 : confsearch ligand conformer 725
          17          16           1
SMALL
USER_CHARGES
 
@<TRIPOS>ATOM
       1    C1      18.711554   16.309341   20.553899 C.2        1 MOL1         0.6173
       2    O1      19.100515   15.672157   19.594519 O.co2      1 MOL1        -0.6755
       3    O2      17.618243   16.139923   21.060222 O.co2      1 MOL1        -0.6755
       4    C2      19.631212   17.334750   21.116862 C.2        1 MOL1        -0.1504
       5    H1      20.592321   17.435439   20.617823 H          1 MOL1         0.0814
       6    C3      19.329848   18.115539   22.179233 C.2        1 MOL1        -0.1394
       7    H2      18.368861   18.024626   22.685209 H          1 MOL1         0.0817
       8    C4      20.270078   19.157641   22.744238 C.3        1 MOL1        -0.1849
       9    H3      21.303512   18.786168   22.715389 H          1 MOL1         0.0736
      10    H4      20.030911   19.334154   23.801606 H          1 MOL1         0.0736
      11    C5      20.172019   20.484753   21.964385 C.3        1 MOL1        -0.1866
      12    H5      20.415141   20.310653   20.906963 H          1 MOL1         0.0738
      13    H6      19.137985   20.855316   21.996406 H          1 MOL1         0.0738
      14    C6      21.120615   21.555390   22.540083 C.3        1 MOL1        -0.2879
      15    H7      20.878525   21.771922   23.588862 H          1 MOL1         0.0750
      16    H8      22.165466   21.221741   22.491095 H          1 MOL1         0.0750
      17    H9      21.036948   22.491525   21.972826 H          1 MOL1         0.0750
@<TRIPOS>BOND
    1     1     2    1
    2     1     3    2
    3     1     4    1
    4     4     5    1
    5     4     6    2
    6     6     7    1
    7     6     8    1
    8     8     9    1
    9     8    10    1
   10     8    11    1
   11    11    12    1
   12    11    13    1
   13    11    14    1
   14    14    15    1
   15    14    16    1
   16    14    17    1
@<TRIPOS>SUBSTRUCTURE
       1 MOL1            1 RESIDUE      1      MOL     
@<SCITEGIC>MOL_PROPERTY
VConf Rank
SciTegic.value.IntegerValue
725

@<SCITEGIC>MOL_PROPERTY
Conf_Id
SciTegic.value.IntegerValue
36

@<SCITEGIC>MOL_PROPERTY
Delta U+W
SciTegic.value.DoubleValue
0.000

@<SCITEGIC>MOL_PROPERTY
U+W
SciTegic.value.DoubleValue
-53.409

@<SCITEGIC>MOL_PROPERTY
Grad RMS
SciTegic.value.DoubleValue
0.000000

@<SCITEGIC>MOL_PROPERTY
U
SciTegic.value.DoubleValue
9.048

@<SCITEGIC>MOL_PROPERTY
W
SciTegic.value.DoubleValue
-62.457

@<SCITEGIC>MOL_PROPERTY
W(PB)
SciTegic.value.DoubleValue
-64.540

@<SCITEGIC>MOL_PROPERTY
W(SA)
SciTegic.value.DoubleValue
2.084

@<SCITEGIC>MOL_PROPERTY
Valence
SciTegic.value.DoubleValue
2.652

@<SCITEGIC>MOL_PROPERTY
Coulomb
SciTegic.value.DoubleValue
5.578

@<SCITEGIC>MOL_PROPERTY
VdW
SciTegic.value.DoubleValue
0.818

@<SCITEGIC>MOL_PROPERTY
VdW6
SciTegic.value.DoubleValue
-4.534

@<SCITEGIC>MOL_PROPERTY
VdW12
SciTegic.value.DoubleValue
5.352

@<SCITEGIC>MOL_PROPERTY
Bond
SciTegic.value.DoubleValue
0.063

@<SCITEGIC>MOL_PROPERTY
Angle
SciTegic.value.DoubleValue
2.579

@<SCITEGIC>MOL_PROPERTY
Pdih
SciTegic.value.DoubleValue
0.010

@<SCITEGIC>MOL_PROPERTY
Idih
SciTegic.value.DoubleValue
0.000

@<SCITEGIC>MOL_PROPERTY
Tether
SciTegic.value.DoubleValue
0.000

@<TRIPOS>MOLECULE
guest-s19_confgen4.mol2 : confsearch ligand conformer 726
          17          16           1
SMALL
USER_CHARGES
 
@<TRIPOS>ATOM
       1    C1      21.780979   16.983096   23.863697 C.2        1 MOL1         0.6173
       2    O1      22.627582   17.650120   24.428263 O.co2      1 MOL1        -0.6755
       3    O2      21.778044   15.767624   23.881710 O.co2      1 MOL1        -0.6755
       4    C2      20.690417   17.662203   23.112929 C.2        1 MOL1        -0.1504
       5    H1      19.966773   17.008150   22.631825 H          1 MOL1         0.0814
       6    C3      20.570466   19.005227   23.008116 C.2        1 MOL1        -0.1394
       7    H2      21.291120   19.669787   23.484341 H          1 MOL1         0.0817
       8    C4      19.459266   19.687903   22.241027 C.3        1 MOL1        -0.1849
       9    H3      19.302095   20.698170   22.642331 H          1 MOL1         0.0736
      10    H4      18.515314   19.144485   22.384062 H          1 MOL1         0.0736
      11    C5      19.786646   19.775438   20.736308 C.3        1 MOL1        -0.1866
      12    H5      20.730000   20.321219   20.595692 H          1 MOL1         0.0738
      13    H6      19.940174   18.765114   20.332287 H          1 MOL1         0.0738
      14    C6      18.662846   20.478405   19.948630 C.3        1 MOL1        -0.2879
      15    H7      18.510005   21.503146   20.311915 H          1 MOL1         0.0750
      16    H8      18.913465   20.531234   18.881142 H          1 MOL1         0.0750
      17    H9      17.714300   19.934413   20.047469 H          1 MOL1         0.0750
@<TRIPOS>BOND
    1     1     2    1
    2     1     3    2
    3     1     4    1
    4     4     5    1
    5     4     6    2
    6     6     7    1
    7     6     8    1
    8     8     9    1
    9     8    10    1
   10     8    11    1
   11    11    12    1
   12    11    13    1
   13    11    14    1
   14    14    15    1
   15    14    16    1
   16    14    17    1
@<TRIPOS>SUBSTRUCTURE
       1 MOL1            1 RESIDUE      1      MOL     
@<SCITEGIC>MOL_PROPERTY
VConf Rank
SciTegic.value.IntegerValue
726

@<SCITEGIC>MOL_PROPERTY
Conf_Id
SciTegic.value.IntegerValue
1

@<SCITEGIC>MOL_PROPERTY
Delta U+W
SciTegic.value.DoubleValue
0.030

@<SCITEGIC>MOL_PROPERTY
U+W
SciTegic.value.DoubleValue
-53.378

@<SCITEGIC>MOL_PROPERTY
Grad RMS
SciTegic.value.DoubleValue
0.000000

@<SCITEGIC>MOL_PROPERTY
U
SciTegic.value.DoubleValue
9.048

@<SCITEGIC>MOL_PROPERTY
W
SciTegic.value.DoubleValue
-62.426

@<SCITEGIC>MOL_PROPERTY
W(PB)
SciTegic.value.DoubleValue
-64.506

@<SCITEGIC>MOL_PROPERTY
W(SA)
SciTegic.value.DoubleValue
2.080

@<SCITEGIC>MOL_PROPERTY
Valence
SciTegic.value.DoubleValue
2.652

@<SCITEGIC>MOL_PROPERTY
Coulomb
SciTegic.value.DoubleValue
5.578

@<SCITEGIC>MOL_PROPERTY
VdW
SciTegic.value.DoubleValue
0.818

@<SCITEGIC>MOL_PROPERTY
VdW6
SciTegic.value.DoubleValue
-4.535

@<SCITEGIC>MOL_PROPERTY
VdW12
SciTegic.value.DoubleValue
5.352

@<SCITEGIC>MOL_PROPERTY
Bond
SciTegic.value.DoubleValue
0.063

@<SCITEGIC>MOL_PROPERTY
Angle
SciTegic.value.DoubleValue
2.579

@<SCITEGIC>MOL_PROPERTY
Pdih
SciTegic.value.DoubleValue
0.010

@<SCITEGIC>MOL_PROPERTY
Idih
SciTegic.value.DoubleValue
0.000

@<SCITEGIC>MOL_PROPERTY
Tether
SciTegic.value.DoubleValue
0.000

@<TRIPOS>MOLECULE
guest-s19_confgen4.mol2 : confsearch ligand conformer 727
          17          16           1
SMALL
USER_CHARGES
 
@<TRIPOS>ATOM
       1    C1      17.277045   18.231670   23.173786 C.2        1 MOL1         0.6173
       2    O1      16.571646   19.118303   22.730239 O.co2      1 MOL1        -0.6755
       3    O2      16.829344   17.193678   23.620942 O.co2      1 MOL1        -0.6755
       4    C2      18.755071   18.403247   23.183385 C.2        1 MOL1        -0.1504
       5    H1      19.326571   17.574085   23.594042 H          1 MOL1         0.0814
       6    C3      19.389120   19.503204   22.717487 C.2        1 MOL1        -0.1394
       7    H2      18.826494   20.338348   22.300851 H          1 MOL1         0.0817
       8    C4      20.894244   19.669111   22.726975 C.3        1 MOL1        -0.1849
       9    H3      21.301814   19.279287   23.669551 H          1 MOL1         0.0736
      10    H4      21.151919   20.736436   22.700212 H          1 MOL1         0.0736
      11    C5      21.572812   18.944284   21.543872 C.3        1 MOL1        -0.1866
      12    H5      22.663360   19.009401   21.660569 H          1 MOL1         0.0738
      13    H6      21.317809   17.875741   21.568688 H          1 MOL1         0.0738
      14    C6      21.175096   19.542064   20.177419 C.3        1 MOL1        -0.2879
      15    H7      21.432500   20.607972   20.125197 H          1 MOL1         0.0750
      16    H8      21.700180   19.026290   19.363066 H          1 MOL1         0.0750
      17    H9      20.096530   19.440677   19.999552 H          1 MOL1         0.0750
@<TRIPOS>BOND
    1     1     2    1
    2     1     3    2
    3     1     4    1
    4     4     5    1
    5     4     6    2
    6     6     7    1
    7     6     8    1
    8     8     9    1
    9     8    10    1
   10     8    11    1
   11    11    12    1
   12    11    13    1
   13    11    14    1
   14    14    15    1
   15    14    16    1
   16    14    17    1
@<TRIPOS>SUBSTRUCTURE
       1 MOL1            1 RESIDUE      1      MOL     
@<SCITEGIC>MOL_PROPERTY
VConf Rank
SciTegic.value.IntegerValue
727

@<SCITEGIC>MOL_PROPERTY
Conf_Id
SciTegic.value.IntegerValue
3

@<SCITEGIC>MOL_PROPERTY
Delta U+W
SciTegic.value.DoubleValue
0.531

@<SCITEGIC>MOL_PROPERTY
U+W
SciTegic.value.DoubleValue
-52.878

@<SCITEGIC>MOL_PROPERTY
Grad RMS
SciTegic.value.DoubleValue
0.000000

@<SCITEGIC>MOL_PROPERTY
U
SciTegic.value.DoubleValue
10.067

@<SCITEGIC>MOL_PROPERTY
W
SciTegic.value.DoubleValue
-62.945

@<SCITEGIC>MOL_PROPERTY
W(PB)
SciTegic.value.DoubleValue
-64.982

@<SCITEGIC>MOL_PROPERTY
W(SA)
SciTegic.value.DoubleValue
2.037

@<SCITEGIC>MOL_PROPERTY
Valence
SciTegic.value.DoubleValue
2.779

@<SCITEGIC>MOL_PROPERTY
Coulomb
SciTegic.value.DoubleValue
6.474

@<SCITEGIC>MOL_PROPERTY
VdW
SciTegic.value.DoubleValue
0.815

@<SCITEGIC>MOL_PROPERTY
VdW6
SciTegic.value.DoubleValue
-5.088

@<SCITEGIC>MOL_PROPERTY
VdW12
SciTegic.value.DoubleValue
5.902

@<SCITEGIC>MOL_PROPERTY
Bond
SciTegic.value.DoubleValue
0.078

@<SCITEGIC>MOL_PROPERTY
Angle
SciTegic.value.DoubleValue
2.651

@<SCITEGIC>MOL_PROPERTY
Pdih
SciTegic.value.DoubleValue
0.050

@<SCITEGIC>MOL_PROPERTY
Idih
SciTegic.value.DoubleValue
0.000

@<SCITEGIC>MOL_PROPERTY
Tether
SciTegic.value.DoubleValue
0.000

@<TRIPOS>MOLECULE
guest-s19_confgen4.mol2 : confsearch ligand conformer 728
          17          16           1
SMALL
USER_CHARGES
 
@<TRIPOS>ATOM
       1    C1      22.958133   19.481791   21.785162 C.2        1 MOL1         0.6173
       2    O1      23.600201   19.860891   20.825052 O.co2      1 MOL1        -0.6755
       3    O2      23.449383   18.845510   22.698545 O.co2      1 MOL1        -0.6755
       4    C2      21.511043   19.826060   21.823635 C.2        1 MOL1        -0.1504
       5    H1      21.136813   20.395862   20.976295 H          1 MOL1         0.0814
       6    C3      20.677705   19.468107   22.827129 C.2        1 MOL1        -0.1394
       7    H2      21.043604   18.894020   23.678046 H          1 MOL1         0.0817
       8    C4      19.204314   19.817725   22.862116 C.3        1 MOL1        -0.1849
       9    H3      18.983304   20.631003   22.157507 H          1 MOL1         0.0736
      10    H4      18.950444   20.200645   23.859579 H          1 MOL1         0.0736
      11    C5      18.305666   18.601358   22.548987 C.3        1 MOL1        -0.1866
      12    H5      18.527971   17.786376   23.251727 H          1 MOL1         0.0738
      13    H6      17.255575   18.879725   22.713362 H          1 MOL1         0.0738
      14    C6      18.471438   18.097997   21.099167 C.3        1 MOL1        -0.2879
      15    H7      19.496074   17.749496   20.915530 H          1 MOL1         0.0750
      16    H8      17.790697   17.259974   20.901241 H          1 MOL1         0.0750
      17    H9      18.246515   18.895182   20.378752 H          1 MOL1         0.0750
@<TRIPOS>BOND
    1     1     2    1
    2     1     3    2
    3     1     4    1
    4     4     5    1
    5     4     6    2
    6     6     7    1
    7     6     8    1
    8     8     9    1
    9     8    10    1
   10     8    11    1
   11    11    12    1
   12    11    13    1
   13    11    14    1
   14    14    15    1
   15    14    16    1
   16    14    17    1
@<TRIPOS>SUBSTRUCTURE
       1 MOL1            1 RESIDUE      1      MOL     
@<SCITEGIC>MOL_PROPERTY
VConf Rank
SciTegic.value.IntegerValue
728

@<SCITEGIC>MOL_PROPERTY
Conf_Id
SciTegic.value.IntegerValue
45

@<SCITEGIC>MOL_PROPERTY
Delta U+W
SciTegic.value.DoubleValue
0.562

@<SCITEGIC>MOL_PROPERTY
U+W
SciTegic.value.DoubleValue
-52.846

@<SCITEGIC>MOL_PROPERTY
Grad RMS
SciTegic.value.DoubleValue
0.000000

@<SCITEGIC>MOL_PROPERTY
U
SciTegic.value.DoubleValue
10.243

@<SCITEGIC>MOL_PROPERTY
W
SciTegic.value.DoubleValue
-63.089

@<SCITEGIC>MOL_PROPERTY
W(PB)
SciTegic.value.DoubleValue
-65.116

@<SCITEGIC>MOL_PROPERTY
W(SA)
SciTegic.value.DoubleValue
2.026

@<SCITEGIC>MOL_PROPERTY
Valence
SciTegic.value.DoubleValue
2.822

@<SCITEGIC>MOL_PROPERTY
Coulomb
SciTegic.value.DoubleValue
6.637

@<SCITEGIC>MOL_PROPERTY
VdW
SciTegic.value.DoubleValue
0.785

@<SCITEGIC>MOL_PROPERTY
VdW6
SciTegic.value.DoubleValue
-5.216

@<SCITEGIC>MOL_PROPERTY
VdW12
SciTegic.value.DoubleValue
6.001

@<SCITEGIC>MOL_PROPERTY
Bond
SciTegic.value.DoubleValue
0.080

@<SCITEGIC>MOL_PROPERTY
Angle
SciTegic.value.DoubleValue
2.678

@<SCITEGIC>MOL_PROPERTY
Pdih
SciTegic.value.DoubleValue
0.064

@<SCITEGIC>MOL_PROPERTY
Idih
SciTegic.value.DoubleValue
0.000

@<SCITEGIC>MOL_PROPERTY
Tether
SciTegic.value.DoubleValue
0.000

@<TRIPOS>MOLECULE
guest-s19_confgen4.mol2 : confsearch ligand conformer 729
          17          16           1
SMALL
USER_CHARGES
 
@<TRIPOS>ATOM
       1    C1      22.022125   21.768081   22.400142 C.2        1 MOL1         0.6173
       2    O1      21.772238   22.954555   22.313309 O.co2      1 MOL1        -0.6755
       3    O2      23.157253   21.335223   22.467310 O.co2      1 MOL1        -0.6755
       4    C2      20.872715   20.823410   22.424936 C.2        1 MOL1        -0.1504
       5    H1      19.885488   21.275373   22.361510 H          1 MOL1         0.0814
       6    C3      21.002733   19.480387   22.516971 C.2        1 MOL1        -0.1394
       7    H2      21.987182   19.016893   22.578658 H          1 MOL1         0.0817
       8    C4      19.828536   18.526449   22.539368 C.3        1 MOL1        -0.1849
       9    H3      19.005482   18.957609   23.125450 H          1 MOL1         0.0736
      10    H4      20.119631   17.596686   23.046508 H          1 MOL1         0.0736
      11    C5      19.338752   18.204606   21.112643 C.3        1 MOL1        -0.1866
      12    H5      19.043123   19.133440   20.605266 H          1 MOL1         0.0738
      13    H6      20.163093   17.771627   20.529069 H          1 MOL1         0.0738
      14    C6      18.147842   17.225285   21.126381 C.3        1 MOL1        -0.2879
      15    H7      18.426031   16.274882   21.600487 H          1 MOL1         0.0750
      16    H8      17.297972   17.648002   21.678167 H          1 MOL1         0.0750
      17    H9      17.813556   17.008528   20.103443 H          1 MOL1         0.0750
@<TRIPOS>BOND
    1     1     2    1
    2     1     3    2
    3     1     4    1
    4     4     5    1
    5     4     6    2
    6     6     7    1
    7     6     8    1
    8     8     9    1
    9     8    10    1
   10     8    11    1
   11    11    12    1
   12    11    13    1
   13    11    14    1
   14    14    15    1
   15    14    16    1
   16    14    17    1
@<TRIPOS>SUBSTRUCTURE
       1 MOL1            1 RESIDUE      1      MOL     
@<SCITEGIC>MOL_PROPERTY
VConf Rank
SciTegic.value.IntegerValue
729

@<SCITEGIC>MOL_PROPERTY
Conf_Id
SciTegic.value.IntegerValue
36

@<SCITEGIC>MOL_PROPERTY
Delta U+W
SciTegic.value.DoubleValue
0.000

@<SCITEGIC>MOL_PROPERTY
U+W
SciTegic.value.DoubleValue
-53.409

@<SCITEGIC>MOL_PROPERTY
Grad RMS
SciTegic.value.DoubleValue
0.000000

@<SCITEGIC>MOL_PROPERTY
U
SciTegic.value.DoubleValue
9.048

@<SCITEGIC>MOL_PROPERTY
W
SciTegic.value.DoubleValue
-62.457

@<SCITEGIC>MOL_PROPERTY
W(PB)
SciTegic.value.DoubleValue
-64.540

@<SCITEGIC>MOL_PROPERTY
W(SA)
SciTegic.value.DoubleValue
2.084

@<SCITEGIC>MOL_PROPERTY
Valence
SciTegic.value.DoubleValue
2.652

@<SCITEGIC>MOL_PROPERTY
Coulomb
SciTegic.value.DoubleValue
5.578

@<SCITEGIC>MOL_PROPERTY
VdW
SciTegic.value.DoubleValue
0.818

@<SCITEGIC>MOL_PROPERTY
VdW6
SciTegic.value.DoubleValue
-4.534

@<SCITEGIC>MOL_PROPERTY
VdW12
SciTegic.value.DoubleValue
5.352

@<SCITEGIC>MOL_PROPERTY
Bond
SciTegic.value.DoubleValue
0.063

@<SCITEGIC>MOL_PROPERTY
Angle
SciTegic.value.DoubleValue
2.579

@<SCITEGIC>MOL_PROPERTY
Pdih
SciTegic.value.DoubleValue
0.010

@<SCITEGIC>MOL_PROPERTY
Idih
SciTegic.value.DoubleValue
0.000

@<SCITEGIC>MOL_PROPERTY
Tether
SciTegic.value.DoubleValue
0.000

@<TRIPOS>MOLECULE
guest-s19_confgen4.mol2 : confsearch ligand conformer 730
          17          16           1
SMALL
USER_CHARGES
 
@<TRIPOS>ATOM
       1    C1      17.708026   18.019892   19.698356 C.2        1 MOL1         0.6173
       2    O1      16.617853   18.297711   20.161749 O.co2      1 MOL1        -0.6755
       3    O2      17.849163   17.300511   18.728678 O.co2      1 MOL1        -0.6755
       4    C2      18.937086   18.574068   20.328009 C.2        1 MOL1        -0.1504
       5    H1      19.878375   18.286959   19.864917 H          1 MOL1         0.0814
       6    C3      18.929480   19.385310   21.410097 C.2        1 MOL1        -0.1394
       7    H2      17.992186   19.677480   21.883268 H          1 MOL1         0.0817
       8    C4      20.184207   19.943141   22.045489 C.3        1 MOL1        -0.1849
       9    H3      19.944138   20.872389   22.579578 H          1 MOL1         0.0736
      10    H4      20.912776   20.209139   21.267517 H          1 MOL1         0.0736
      11    C5      20.814746   18.932722   23.025536 C.3        1 MOL1        -0.1866
      12    H5      20.084912   18.669894   23.803887 H          1 MOL1         0.0738
      13    H6      21.059333   18.003802   22.491829 H          1 MOL1         0.0738
      14    C6      22.089272   19.497425   23.684490 C.3        1 MOL1        -0.2879
      15    H7      21.866746   20.410649   24.251882 H          1 MOL1         0.0750
      16    H8      22.523195   18.765128   24.377729 H          1 MOL1         0.0750
      17    H9      22.847997   19.739512   22.928734 H          1 MOL1         0.0750
@<TRIPOS>BOND
    1     1     2    1
    2     1     3    2
    3     1     4    1
    4     4     5    1
    5     4     6    2
    6     6     7    1
    7     6     8    1
    8     8     9    1
    9     8    10    1
   10     8    11    1
   11    11    12    1
   12    11    13    1
   13    11    14    1
   14    14    15    1
   15    14    16    1
   16    14    17    1
@<TRIPOS>SUBSTRUCTURE
       1 MOL1            1 RESIDUE      1      MOL     
@<SCITEGIC>MOL_PROPERTY
VConf Rank
SciTegic.value.IntegerValue
730

@<SCITEGIC>MOL_PROPERTY
Conf_Id
SciTegic.value.IntegerValue
1

@<SCITEGIC>MOL_PROPERTY
Delta U+W
SciTegic.value.DoubleValue
0.030

@<SCITEGIC>MOL_PROPERTY
U+W
SciTegic.value.DoubleValue
-53.378

@<SCITEGIC>MOL_PROPERTY
Grad RMS
SciTegic.value.DoubleValue
0.000000

@<SCITEGIC>MOL_PROPERTY
U
SciTegic.value.DoubleValue
9.048

@<SCITEGIC>MOL_PROPERTY
W
SciTegic.value.DoubleValue
-62.426

@<SCITEGIC>MOL_PROPERTY
W(PB)
SciTegic.value.DoubleValue
-64.506

@<SCITEGIC>MOL_PROPERTY
W(SA)
SciTegic.value.DoubleValue
2.080

@<SCITEGIC>MOL_PROPERTY
Valence
SciTegic.value.DoubleValue
2.652

@<SCITEGIC>MOL_PROPERTY
Coulomb
SciTegic.value.DoubleValue
5.578

@<SCITEGIC>MOL_PROPERTY
VdW
SciTegic.value.DoubleValue
0.818

@<SCITEGIC>MOL_PROPERTY
VdW6
SciTegic.value.DoubleValue
-4.535

@<SCITEGIC>MOL_PROPERTY
VdW12
SciTegic.value.DoubleValue
5.352

@<SCITEGIC>MOL_PROPERTY
Bond
SciTegic.value.DoubleValue
0.063

@<SCITEGIC>MOL_PROPERTY
Angle
SciTegic.value.DoubleValue
2.579

@<SCITEGIC>MOL_PROPERTY
Pdih
SciTegic.value.DoubleValue
0.010

@<SCITEGIC>MOL_PROPERTY
Idih
SciTegic.value.DoubleValue
0.000

@<SCITEGIC>MOL_PROPERTY
Tether
SciTegic.value.DoubleValue
0.000

@<TRIPOS>MOLECULE
guest-s19_confgen4.mol2 : confsearch ligand conformer 731
          17          16           1
SMALL
USER_CHARGES
 
@<TRIPOS>ATOM
       1    C1      21.057895   16.187680   21.981939 C.2        1 MOL1         0.6173
       2    O1      22.165091   16.363630   21.509076 O.co2      1 MOL1        -0.6755
       3    O2      20.733619   15.155617   22.536467 O.co2      1 MOL1        -0.6755
       4    C2      20.037711   17.266695   21.886855 C.2        1 MOL1        -0.1504
       5    H1      19.069097   17.044464   22.328626 H          1 MOL1         0.0814
       6    C3      20.260136   18.464535   21.299749 C.2        1 MOL1        -0.1394
       7    H2      21.227929   18.698959   20.857009 H          1 MOL1         0.0817
       8    C4      19.218011   19.559509   21.210182 C.3        1 MOL1        -0.1849
       9    H3      18.239332   19.118375   20.977557 H          1 MOL1         0.0736
      10    H4      19.456023   20.233502   20.376289 H          1 MOL1         0.0736
      11    C5      19.108067   20.374482   22.517581 C.3        1 MOL1        -0.1866
      12    H5      18.269959   21.079727   22.431797 H          1 MOL1         0.0738
      13    H6      18.868726   19.702879   23.353698 H          1 MOL1         0.0738
      14    C6      20.398197   21.160344   22.834909 C.3        1 MOL1        -0.2879
      15    H7      20.650187   21.848161   22.017257 H          1 MOL1         0.0750
      16    H8      20.273596   21.753196   23.750283 H          1 MOL1         0.0750
      17    H9      21.247980   20.482043   22.986560 H          1 MOL1         0.0750
@<TRIPOS>BOND
    1     1     2    1
    2     1     3    2
    3     1     4    1
    4     4     5    1
    5     4     6    2
    6     6     7    1
    7     6     8    1
    8     8     9    1
    9     8    10    1
   10     8    11    1
   11    11    12    1
   12    11    13    1
   13    11    14    1
   14    14    15    1
   15    14    16    1
   16    14    17    1
@<TRIPOS>SUBSTRUCTURE
       1 MOL1            1 RESIDUE      1      MOL     
@<SCITEGIC>MOL_PROPERTY
VConf Rank
SciTegic.value.IntegerValue
731

@<SCITEGIC>MOL_PROPERTY
Conf_Id
SciTegic.value.IntegerValue
3

@<SCITEGIC>MOL_PROPERTY
Delta U+W
SciTegic.value.DoubleValue
0.531

@<SCITEGIC>MOL_PROPERTY
U+W
SciTegic.value.DoubleValue
-52.878

@<SCITEGIC>MOL_PROPERTY
Grad RMS
SciTegic.value.DoubleValue
0.000000

@<SCITEGIC>MOL_PROPERTY
U
SciTegic.value.DoubleValue
10.067

@<SCITEGIC>MOL_PROPERTY
W
SciTegic.value.DoubleValue
-62.945

@<SCITEGIC>MOL_PROPERTY
W(PB)
SciTegic.value.DoubleValue
-64.982

@<SCITEGIC>MOL_PROPERTY
W(SA)
SciTegic.value.DoubleValue
2.037

@<SCITEGIC>MOL_PROPERTY
Valence
SciTegic.value.DoubleValue
2.779

@<SCITEGIC>MOL_PROPERTY
Coulomb
SciTegic.value.DoubleValue
6.474

@<SCITEGIC>MOL_PROPERTY
VdW
SciTegic.value.DoubleValue
0.815

@<SCITEGIC>MOL_PROPERTY
VdW6
SciTegic.value.DoubleValue
-5.088

@<SCITEGIC>MOL_PROPERTY
VdW12
SciTegic.value.DoubleValue
5.902

@<SCITEGIC>MOL_PROPERTY
Bond
SciTegic.value.DoubleValue
0.078

@<SCITEGIC>MOL_PROPERTY
Angle
SciTegic.value.DoubleValue
2.651

@<SCITEGIC>MOL_PROPERTY
Pdih
SciTegic.value.DoubleValue
0.050

@<SCITEGIC>MOL_PROPERTY
Idih
SciTegic.value.DoubleValue
0.000

@<SCITEGIC>MOL_PROPERTY
Tether
SciTegic.value.DoubleValue
0.000

@<TRIPOS>MOLECULE
guest-s19_confgen4.mol2 : confsearch ligand conformer 732
          17          16           1
SMALL
USER_CHARGES
 
@<TRIPOS>ATOM
       1    C1      20.464060   17.114637   19.853677 C.2        1 MOL1         0.6173
       2    O1      21.132368   17.230160   18.844817 O.co2      1 MOL1        -0.6755
       3    O2      19.578668   16.287947   19.968193 O.co2      1 MOL1        -0.6755
       4    C2      20.762979   18.033610   20.985140 C.2        1 MOL1        -0.1504
       5    H1      21.565807   18.747537   20.816377 H          1 MOL1         0.0814
       6    C3      20.099034   18.018895   22.163506 C.2        1 MOL1        -0.1394
       7    H2      19.290923   17.309339   22.339587 H          1 MOL1         0.0817
       8    C4      20.403837   18.957597   23.312537 C.3        1 MOL1        -0.1849
       9    H3      21.394702   19.414599   23.185745 H          1 MOL1         0.0736
      10    H4      20.451521   18.379190   24.244836 H          1 MOL1         0.0736
      11    C5      19.337455   20.064435   23.463869 C.3        1 MOL1        -0.1866
      12    H5      18.345573   19.608153   23.588107 H          1 MOL1         0.0738
      13    H6      19.538637   20.632842   24.382367 H          1 MOL1         0.0738
      14    C6      19.316442   21.036821   22.265180 C.3        1 MOL1        -0.2879
      15    H7      19.054440   20.514485   21.335894 H          1 MOL1         0.0750
      16    H8      18.575487   21.830734   22.425039 H          1 MOL1         0.0750
      17    H9      20.296946   21.510739   22.126957 H          1 MOL1         0.0750
@<TRIPOS>BOND
    1     1     2    1
    2     1     3    2
    3     1     4    1
    4     4     5    1
    5     4     6    2
    6     6     7    1
    7     6     8    1
    8     8     9    1
    9     8    10    1
   10     8    11    1
   11    11    12    1
   12    11    13    1
   13    11    14    1
   14    14    15    1
   15    14    16    1
   16    14    17    1
@<TRIPOS>SUBSTRUCTURE
       1 MOL1            1 RESIDUE      1      MOL     
@<SCITEGIC>MOL_PROPERTY
VConf Rank
SciTegic.value.IntegerValue
732

@<SCITEGIC>MOL_PROPERTY
Conf_Id
SciTegic.value.IntegerValue
45

@<SCITEGIC>MOL_PROPERTY
Delta U+W
SciTegic.value.DoubleValue
0.562

@<SCITEGIC>MOL_PROPERTY
U+W
SciTegic.value.DoubleValue
-52.846

@<SCITEGIC>MOL_PROPERTY
Grad RMS
SciTegic.value.DoubleValue
0.000000

@<SCITEGIC>MOL_PROPERTY
U
SciTegic.value.DoubleValue
10.243

@<SCITEGIC>MOL_PROPERTY
W
SciTegic.value.DoubleValue
-63.089

@<SCITEGIC>MOL_PROPERTY
W(PB)
SciTegic.value.DoubleValue
-65.116

@<SCITEGIC>MOL_PROPERTY
W(SA)
SciTegic.value.DoubleValue
2.026

@<SCITEGIC>MOL_PROPERTY
Valence
SciTegic.value.DoubleValue
2.822

@<SCITEGIC>MOL_PROPERTY
Coulomb
SciTegic.value.DoubleValue
6.637

@<SCITEGIC>MOL_PROPERTY
VdW
SciTegic.value.DoubleValue
0.785

@<SCITEGIC>MOL_PROPERTY
VdW6
SciTegic.value.DoubleValue
-5.216

@<SCITEGIC>MOL_PROPERTY
VdW12
SciTegic.value.DoubleValue
6.001

@<SCITEGIC>MOL_PROPERTY
Bond
SciTegic.value.DoubleValue
0.080

@<SCITEGIC>MOL_PROPERTY
Angle
SciTegic.value.DoubleValue
2.678

@<SCITEGIC>MOL_PROPERTY
Pdih
SciTegic.value.DoubleValue
0.064

@<SCITEGIC>MOL_PROPERTY
Idih
SciTegic.value.DoubleValue
0.000

@<SCITEGIC>MOL_PROPERTY
Tether
SciTegic.value.DoubleValue
0.000

@<TRIPOS>MOLECULE
guest-s19_confgen4.mol2 : confsearch ligand conformer 733
          17          16           1
SMALL
USER_CHARGES
 
@<TRIPOS>ATOM
       1    C1      17.464731   17.810190   23.723317 C.2        1 MOL1         0.6173
       2    O1      16.341036   17.509560   23.370279 O.co2      1 MOL1        -0.6755
       3    O2      17.790690   17.889654   24.892860 O.co2      1 MOL1        -0.6755
       4    C2      18.468383   18.087159   22.660241 C.2        1 MOL1        -0.1504
       5    H1      18.112099   17.998480   21.636470 H          1 MOL1         0.0814
       6    C3      19.752301   18.432882   22.907457 C.2        1 MOL1        -0.1394
       7    H2      20.119155   18.526910   23.929391 H          1 MOL1         0.0817
       8    C4      20.766188   18.715024   21.820412 C.3        1 MOL1        -0.1849
       9    H3      20.622598   18.018661   20.982993 H          1 MOL1         0.0736
      10    H4      21.778720   18.535208   22.206199 H          1 MOL1         0.0736
      11    C5      20.657323   20.167801   21.313852 C.3        1 MOL1        -0.1866
      12    H5      19.646005   20.348124   20.923622 H          1 MOL1         0.0738
      13    H6      20.803314   20.862379   22.152789 H          1 MOL1         0.0738
      14    C6      21.693895   20.466260   20.212051 C.3        1 MOL1        -0.2879
      15    H7      22.716484   20.324323   20.585677 H          1 MOL1         0.0750
      16    H8      21.549728   19.804998   19.347537 H          1 MOL1         0.0750
      17    H9      21.601099   21.503423   19.864471 H          1 MOL1         0.0750
@<TRIPOS>BOND
    1     1     2    1
    2     1     3    2
    3     1     4    1
    4     4     5    1
    5     4     6    2
    6     6     7    1
    7     6     8    1
    8     8     9    1
    9     8    10    1
   10     8    11    1
   11    11    12    1
   12    11    13    1
   13    11    14    1
   14    14    15    1
   15    14    16    1
   16    14    17    1
@<TRIPOS>SUBSTRUCTURE
       1 MOL1            1 RESIDUE      1      MOL     
@<SCITEGIC>MOL_PROPERTY
VConf Rank
SciTegic.value.IntegerValue
733

@<SCITEGIC>MOL_PROPERTY
Conf_Id
SciTegic.value.IntegerValue
36

@<SCITEGIC>MOL_PROPERTY
Delta U+W
SciTegic.value.DoubleValue
0.000

@<SCITEGIC>MOL_PROPERTY
U+W
SciTegic.value.DoubleValue
-53.409

@<SCITEGIC>MOL_PROPERTY
Grad RMS
SciTegic.value.DoubleValue
0.000000

@<SCITEGIC>MOL_PROPERTY
U
SciTegic.value.DoubleValue
9.048

@<SCITEGIC>MOL_PROPERTY
W
SciTegic.value.DoubleValue
-62.457

@<SCITEGIC>MOL_PROPERTY
W(PB)
SciTegic.value.DoubleValue
-64.540

@<SCITEGIC>MOL_PROPERTY
W(SA)
SciTegic.value.DoubleValue
2.084

@<SCITEGIC>MOL_PROPERTY
Valence
SciTegic.value.DoubleValue
2.652

@<SCITEGIC>MOL_PROPERTY
Coulomb
SciTegic.value.DoubleValue
5.578

@<SCITEGIC>MOL_PROPERTY
VdW
SciTegic.value.DoubleValue
0.818

@<SCITEGIC>MOL_PROPERTY
VdW6
SciTegic.value.DoubleValue
-4.534

@<SCITEGIC>MOL_PROPERTY
VdW12
SciTegic.value.DoubleValue
5.352

@<SCITEGIC>MOL_PROPERTY
Bond
SciTegic.value.DoubleValue
0.063

@<SCITEGIC>MOL_PROPERTY
Angle
SciTegic.value.DoubleValue
2.579

@<SCITEGIC>MOL_PROPERTY
Pdih
SciTegic.value.DoubleValue
0.010

@<SCITEGIC>MOL_PROPERTY
Idih
SciTegic.value.DoubleValue
0.000

@<SCITEGIC>MOL_PROPERTY
Tether
SciTegic.value.DoubleValue
0.000

@<TRIPOS>MOLECULE
guest-s19_confgen4.mol2 : confsearch ligand conformer 734
          17          16           1
SMALL
USER_CHARGES
 
@<TRIPOS>ATOM
       1    C1      20.360592   15.837082   21.104531 C.2        1 MOL1         0.6173
       2    O1      19.238488   15.382560   20.983339 O.co2      1 MOL1        -0.6755
       3    O2      21.355962   15.139741   21.130198 O.co2      1 MOL1        -0.6755
       4    C2      20.548358   17.308101   21.227040 C.2        1 MOL1        -0.1504
       5    H1      21.576044   17.648235   21.332303 H          1 MOL1         0.0814
       6    C3      19.532773   18.201149   21.215315 C.2        1 MOL1        -0.1394
       7    H2      18.499189   17.871117   21.112568 H          1 MOL1         0.0817
       8    C4      19.732232   19.695579   21.342332 C.3        1 MOL1        -0.1849
       9    H3      18.885859   20.220306   20.878973 H          1 MOL1         0.0736
      10    H4      20.630691   20.002841   20.789913 H          1 MOL1         0.0736
      11    C5      19.857947   20.122205   22.819222 C.3        1 MOL1        -0.1866
      12    H5      18.957266   19.815734   23.369145 H          1 MOL1         0.0738
      13    H6      20.706908   19.601152   23.283257 H          1 MOL1         0.0738
      14    C6      20.052256   21.645553   22.957710 C.3        1 MOL1        -0.2879
      15    H7      19.201023   22.190860   22.529373 H          1 MOL1         0.0750
      16    H8      20.139581   21.929805   24.014453 H          1 MOL1         0.0750
      17    H9      20.964322   21.973712   22.442072 H          1 MOL1         0.0750
@<TRIPOS>BOND
    1     1     2    1
    2     1     3    2
    3     1     4    1
    4     4     5    1
    5     4     6    2
    6     6     7    1
    7     6     8    1
    8     8     9    1
    9     8    10    1
   10     8    11    1
   11    11    12    1
   12    11    13    1
   13    11    14    1
   14    14    15    1
   15    14    16    1
   16    14    17    1
@<TRIPOS>SUBSTRUCTURE
       1 MOL1            1 RESIDUE      1      MOL     
@<SCITEGIC>MOL_PROPERTY
VConf Rank
SciTegic.value.IntegerValue
734

@<SCITEGIC>MOL_PROPERTY
Conf_Id
SciTegic.value.IntegerValue
1

@<SCITEGIC>MOL_PROPERTY
Delta U+W
SciTegic.value.DoubleValue
0.030

@<SCITEGIC>MOL_PROPERTY
U+W
SciTegic.value.DoubleValue
-53.378

@<SCITEGIC>MOL_PROPERTY
Grad RMS
SciTegic.value.DoubleValue
0.000000

@<SCITEGIC>MOL_PROPERTY
U
SciTegic.value.DoubleValue
9.048

@<SCITEGIC>MOL_PROPERTY
W
SciTegic.value.DoubleValue
-62.426

@<SCITEGIC>MOL_PROPERTY
W(PB)
SciTegic.value.DoubleValue
-64.506

@<SCITEGIC>MOL_PROPERTY
W(SA)
SciTegic.value.DoubleValue
2.080

@<SCITEGIC>MOL_PROPERTY
Valence
SciTegic.value.DoubleValue
2.652

@<SCITEGIC>MOL_PROPERTY
Coulomb
SciTegic.value.DoubleValue
5.578

@<SCITEGIC>MOL_PROPERTY
VdW
SciTegic.value.DoubleValue
0.818

@<SCITEGIC>MOL_PROPERTY
VdW6
SciTegic.value.DoubleValue
-4.535

@<SCITEGIC>MOL_PROPERTY
VdW12
SciTegic.value.DoubleValue
5.352

@<SCITEGIC>MOL_PROPERTY
Bond
SciTegic.value.DoubleValue
0.063

@<SCITEGIC>MOL_PROPERTY
Angle
SciTegic.value.DoubleValue
2.579

@<SCITEGIC>MOL_PROPERTY
Pdih
SciTegic.value.DoubleValue
0.010

@<SCITEGIC>MOL_PROPERTY
Idih
SciTegic.value.DoubleValue
0.000

@<SCITEGIC>MOL_PROPERTY
Tether
SciTegic.value.DoubleValue
0.000

@<TRIPOS>MOLECULE
guest-s19_confgen4.mol2 : confsearch ligand conformer 735
          17          16           1
SMALL
USER_CHARGES
 
@<TRIPOS>ATOM
       1    C1      21.898945   17.012854   23.335294 C.2        1 MOL1         0.6173
       2    O1      22.348968   16.478804   22.338945 O.co2      1 MOL1        -0.6755
       3    O2      22.402345   16.888958   24.434862 O.co2      1 MOL1        -0.6755
       4    C2      20.677878   17.856596   23.229529 C.2        1 MOL1        -0.1504
       5    H1      20.327925   18.303607   24.157147 H          1 MOL1         0.0814
       6    C3      20.015846   18.082489   22.072087 C.2        1 MOL1        -0.1394
       7    H2      20.359711   17.642341   21.136339 H          1 MOL1         0.0817
       8    C4      18.775771   18.945685   21.971491 C.3        1 MOL1        -0.1849
       9    H3      18.123137   18.754737   22.834123 H          1 MOL1         0.0736
      10    H4      18.196899   18.664495   21.081472 H          1 MOL1         0.0736
      11    C5      19.111489   20.452201   21.914365 C.3        1 MOL1        -0.1866
      12    H5      18.177545   21.029870   21.948989 H          1 MOL1         0.0738
      13    H6      19.689710   20.736854   22.804344 H          1 MOL1         0.0738
      14    C6      19.894937   20.835683   20.640841 C.3        1 MOL1        -0.2879
      15    H7      19.329694   20.571508   19.737593 H          1 MOL1         0.0750
      16    H8      20.086935   21.916172   20.616614 H          1 MOL1         0.0750
      17    H9      20.863823   20.320944   20.601796 H          1 MOL1         0.0750
@<TRIPOS>BOND
    1     1     2    1
    2     1     3    2
    3     1     4    1
    4     4     5    1
    5     4     6    2
    6     6     7    1
    7     6     8    1
    8     8     9    1
    9     8    10    1
   10     8    11    1
   11    11    12    1
   12    11    13    1
   13    11    14    1
   14    14    15    1
   15    14    16    1
   16    14    17    1
@<TRIPOS>SUBSTRUCTURE
       1 MOL1            1 RESIDUE      1      MOL     
@<SCITEGIC>MOL_PROPERTY
VConf Rank
SciTegic.value.IntegerValue
735

@<SCITEGIC>MOL_PROPERTY
Conf_Id
SciTegic.value.IntegerValue
3

@<SCITEGIC>MOL_PROPERTY
Delta U+W
SciTegic.value.DoubleValue
0.531

@<SCITEGIC>MOL_PROPERTY
U+W
SciTegic.value.DoubleValue
-52.878

@<SCITEGIC>MOL_PROPERTY
Grad RMS
SciTegic.value.DoubleValue
0.000000

@<SCITEGIC>MOL_PROPERTY
U
SciTegic.value.DoubleValue
10.067

@<SCITEGIC>MOL_PROPERTY
W
SciTegic.value.DoubleValue
-62.945

@<SCITEGIC>MOL_PROPERTY
W(PB)
SciTegic.value.DoubleValue
-64.982

@<SCITEGIC>MOL_PROPERTY
W(SA)
SciTegic.value.DoubleValue
2.037

@<SCITEGIC>MOL_PROPERTY
Valence
SciTegic.value.DoubleValue
2.779

@<SCITEGIC>MOL_PROPERTY
Coulomb
SciTegic.value.DoubleValue
6.474

@<SCITEGIC>MOL_PROPERTY
VdW
SciTegic.value.DoubleValue
0.815

@<SCITEGIC>MOL_PROPERTY
VdW6
SciTegic.value.DoubleValue
-5.088

@<SCITEGIC>MOL_PROPERTY
VdW12
SciTegic.value.DoubleValue
5.902

@<SCITEGIC>MOL_PROPERTY
Bond
SciTegic.value.DoubleValue
0.078

@<SCITEGIC>MOL_PROPERTY
Angle
SciTegic.value.DoubleValue
2.651

@<SCITEGIC>MOL_PROPERTY
Pdih
SciTegic.value.DoubleValue
0.050

@<SCITEGIC>MOL_PROPERTY
Idih
SciTegic.value.DoubleValue
0.000

@<SCITEGIC>MOL_PROPERTY
Tether
SciTegic.value.DoubleValue
0.000

@<TRIPOS>MOLECULE
guest-s19_confgen4.mol2 : confsearch ligand conformer 736
          17          16           1
SMALL
USER_CHARGES
 
@<TRIPOS>ATOM
       1    C1      21.558692   20.089460   19.702449 C.2        1 MOL1         0.6173
       2    O1      22.762050   20.184500   19.558661 O.co2      1 MOL1        -0.6755
       3    O2      20.761774   20.717854   19.031263 O.co2      1 MOL1        -0.6755
       4    C2      21.063199   19.155058   20.749088 C.2        1 MOL1        -0.1504
       5    H1      21.828190   18.625337   21.312019 H          1 MOL1         0.0814
       6    C3      19.753442   18.951939   21.019019 C.2        1 MOL1        -0.1394
       7    H2      18.980570   19.481304   20.462278 H          1 MOL1         0.0817
       8    C4      19.252167   18.002040   22.087078 C.3        1 MOL1        -0.1849
       9    H3      20.043292   17.298860   22.381015 H          1 MOL1         0.0736
      10    H4      18.440022   17.391156   21.670845 H          1 MOL1         0.0736
      11    C5      18.729657   18.746525   23.335234 C.3        1 MOL1        -0.1866
      12    H5      17.940038   19.452079   23.041711 H          1 MOL1         0.0738
      13    H6      18.264661   18.021009   24.016852 H          1 MOL1         0.0738
      14    C6      19.846799   19.499776   24.088518 C.3        1 MOL1        -0.2879
      15    H7      20.293313   20.279751   23.458187 H          1 MOL1         0.0750
      16    H8      19.446919   19.983308   24.989162 H          1 MOL1         0.0750
      17    H9      20.644092   18.811766   24.398453 H          1 MOL1         0.0750
@<TRIPOS>BOND
    1     1     2    1
    2     1     3    2
    3     1     4    1
    4     4     5    1
    5     4     6    2
    6     6     7    1
    7     6     8    1
    8     8     9    1
    9     8    10    1
   10     8    11    1
   11    11    12    1
   12    11    13    1
   13    11    14    1
   14    14    15    1
   15    14    16    1
   16    14    17    1
@<TRIPOS>SUBSTRUCTURE
       1 MOL1            1 RESIDUE      1      MOL     
@<SCITEGIC>MOL_PROPERTY
VConf Rank
SciTegic.value.IntegerValue
736

@<SCITEGIC>MOL_PROPERTY
Conf_Id
SciTegic.value.IntegerValue
45

@<SCITEGIC>MOL_PROPERTY
Delta U+W
SciTegic.value.DoubleValue
0.562

@<SCITEGIC>MOL_PROPERTY
U+W
SciTegic.value.DoubleValue
-52.846

@<SCITEGIC>MOL_PROPERTY
Grad RMS
SciTegic.value.DoubleValue
0.000000

@<SCITEGIC>MOL_PROPERTY
U
SciTegic.value.DoubleValue
10.243

@<SCITEGIC>MOL_PROPERTY
W
SciTegic.value.DoubleValue
-63.089

@<SCITEGIC>MOL_PROPERTY
W(PB)
SciTegic.value.DoubleValue
-65.116

@<SCITEGIC>MOL_PROPERTY
W(SA)
SciTegic.value.DoubleValue
2.026

@<SCITEGIC>MOL_PROPERTY
Valence
SciTegic.value.DoubleValue
2.822

@<SCITEGIC>MOL_PROPERTY
Coulomb
SciTegic.value.DoubleValue
6.637

@<SCITEGIC>MOL_PROPERTY
VdW
SciTegic.value.DoubleValue
0.785

@<SCITEGIC>MOL_PROPERTY
VdW6
SciTegic.value.DoubleValue
-5.216

@<SCITEGIC>MOL_PROPERTY
VdW12
SciTegic.value.DoubleValue
6.001

@<SCITEGIC>MOL_PROPERTY
Bond
SciTegic.value.DoubleValue
0.080

@<SCITEGIC>MOL_PROPERTY
Angle
SciTegic.value.DoubleValue
2.678

@<SCITEGIC>MOL_PROPERTY
Pdih
SciTegic.value.DoubleValue
0.064

@<SCITEGIC>MOL_PROPERTY
Idih
SciTegic.value.DoubleValue
0.000

@<SCITEGIC>MOL_PROPERTY
Tether
SciTegic.value.DoubleValue
0.000

@<TRIPOS>MOLECULE
guest-s19_confgen4.mol2 : confsearch ligand conformer 737
          17          16           1
SMALL
USER_CHARGES
 
@<TRIPOS>ATOM
       1    C1      18.629093   20.548087   19.180137 C.2        1 MOL1         0.6173
       2    O1      17.674551   20.188560   18.518854 O.co2      1 MOL1        -0.6755
       3    O2      19.407391   21.404891   18.805259 O.co2      1 MOL1        -0.6755
       4    C2      18.832895   19.898213   20.503122 C.2        1 MOL1        -0.1504
       5    H1      18.101825   19.141203   20.777677 H          1 MOL1         0.0814
       6    C3      19.850954   20.198163   21.341377 C.2        1 MOL1        -0.1394
       7    H2      20.590365   20.953283   21.075223 H          1 MOL1         0.0817
       8    C4      20.052285   19.530921   22.684318 C.3        1 MOL1        -0.1849
       9    H3      19.081163   19.363131   23.169682 H          1 MOL1         0.0736
      10    H4      20.620711   20.198947   23.345393 H          1 MOL1         0.0736
      11    C5      20.800166   18.189820   22.538933 C.3        1 MOL1        -0.1866
      12    H5      20.230611   17.518683   21.881102 H          1 MOL1         0.0738
      13    H6      21.771947   18.360510   22.055121 H          1 MOL1         0.0738
      14    C6      21.017735   17.507764   23.904579 C.3        1 MOL1        -0.2879
      15    H7      21.612708   18.145115   24.571828 H          1 MOL1         0.0750
      16    H8      20.058667   17.297733   24.396019 H          1 MOL1         0.0750
      17    H9      21.550683   16.556016   23.780995 H          1 MOL1         0.0750
@<TRIPOS>BOND
    1     1     2    1
    2     1     3    2
    3     1     4    1
    4     4     5    1
    5     4     6    2
    6     6     7    1
    7     6     8    1
    8     8     9    1
    9     8    10    1
   10     8    11    1
   11    11    12    1
   12    11    13    1
   13    11    14    1
   14    14    15    1
   15    14    16    1
   16    14    17    1
@<TRIPOS>SUBSTRUCTURE
       1 MOL1            1 RESIDUE      1      MOL     
@<SCITEGIC>MOL_PROPERTY
VConf Rank
SciTegic.value.IntegerValue
737

@<SCITEGIC>MOL_PROPERTY
Conf_Id
SciTegic.value.IntegerValue
36

@<SCITEGIC>MOL_PROPERTY
Delta U+W
SciTegic.value.DoubleValue
0.000

@<SCITEGIC>MOL_PROPERTY
U+W
SciTegic.value.DoubleValue
-53.409

@<SCITEGIC>MOL_PROPERTY
Grad RMS
SciTegic.value.DoubleValue
0.000000

@<SCITEGIC>MOL_PROPERTY
U
SciTegic.value.DoubleValue
9.048

@<SCITEGIC>MOL_PROPERTY
W
SciTegic.value.DoubleValue
-62.457

@<SCITEGIC>MOL_PROPERTY
W(PB)
SciTegic.value.DoubleValue
-64.540

@<SCITEGIC>MOL_PROPERTY
W(SA)
SciTegic.value.DoubleValue
2.084

@<SCITEGIC>MOL_PROPERTY
Valence
SciTegic.value.DoubleValue
2.652

@<SCITEGIC>MOL_PROPERTY
Coulomb
SciTegic.value.DoubleValue
5.578

@<SCITEGIC>MOL_PROPERTY
VdW
SciTegic.value.DoubleValue
0.818

@<SCITEGIC>MOL_PROPERTY
VdW6
SciTegic.value.DoubleValue
-4.534

@<SCITEGIC>MOL_PROPERTY
VdW12
SciTegic.value.DoubleValue
5.352

@<SCITEGIC>MOL_PROPERTY
Bond
SciTegic.value.DoubleValue
0.063

@<SCITEGIC>MOL_PROPERTY
Angle
SciTegic.value.DoubleValue
2.579

@<SCITEGIC>MOL_PROPERTY
Pdih
SciTegic.value.DoubleValue
0.010

@<SCITEGIC>MOL_PROPERTY
Idih
SciTegic.value.DoubleValue
0.000

@<SCITEGIC>MOL_PROPERTY
Tether
SciTegic.value.DoubleValue
0.000

@<TRIPOS>MOLECULE
guest-s19_confgen4.mol2 : confsearch ligand conformer 738
          17          16           1
SMALL
USER_CHARGES
 
@<TRIPOS>ATOM
       1    C1      17.531685   17.565002   20.216702 C.2        1 MOL1         0.6173
       2    O1      17.924837   16.445008   19.949420 O.co2      1 MOL1        -0.6755
       3    O2      16.519455   18.040422   19.740181 O.co2      1 MOL1        -0.6755
       4    C2      18.306093   18.408404   21.167032 C.2        1 MOL1        -0.1504
       5    H1      17.900080   19.398281   21.362500 H          1 MOL1         0.0814
       6    C3      19.448837   18.009239   21.770263 C.2        1 MOL1        -0.1394
       7    H2      19.865620   17.020386   21.579906 H          1 MOL1         0.0817
       8    C4      20.231386   18.873963   22.734165 C.3        1 MOL1        -0.1849
       9    H3      20.820735   18.235372   23.405922 H          1 MOL1         0.0736
      10    H4      19.542071   19.445105   23.370913 H          1 MOL1         0.0736
      11    C5      21.170980   19.841334   21.985583 C.3        1 MOL1        -0.1866
      12    H5      21.860836   19.267666   21.351100 H          1 MOL1         0.0738
      13    H6      20.582413   20.483838   21.316003 H          1 MOL1         0.0738
      14    C6      21.979152   20.720018   22.961440 C.3        1 MOL1        -0.2879
      15    H7      22.601664   20.102883   23.622541 H          1 MOL1         0.0750
      16    H8      22.641279   21.400999   22.411000 H          1 MOL1         0.0750
      17    H9      21.312368   21.327814   23.587074 H          1 MOL1         0.0750
@<TRIPOS>BOND
    1     1     2    1
    2     1     3    2
    3     1     4    1
    4     4     5    1
    5     4     6    2
    6     6     7    1
    7     6     8    1
    8     8     9    1
    9     8    10    1
   10     8    11    1
   11    11    12    1
   12    11    13    1
   13    11    14    1
   14    14    15    1
   15    14    16    1
   16    14    17    1
@<TRIPOS>SUBSTRUCTURE
       1 MOL1            1 RESIDUE      1      MOL     
@<SCITEGIC>MOL_PROPERTY
VConf Rank
SciTegic.value.IntegerValue
738

@<SCITEGIC>MOL_PROPERTY
Conf_Id
SciTegic.value.IntegerValue
1

@<SCITEGIC>MOL_PROPERTY
Delta U+W
SciTegic.value.DoubleValue
0.030

@<SCITEGIC>MOL_PROPERTY
U+W
SciTegic.value.DoubleValue
-53.378

@<SCITEGIC>MOL_PROPERTY
Grad RMS
SciTegic.value.DoubleValue
0.000000

@<SCITEGIC>MOL_PROPERTY
U
SciTegic.value.DoubleValue
9.048

@<SCITEGIC>MOL_PROPERTY
W
SciTegic.value.DoubleValue
-62.426

@<SCITEGIC>MOL_PROPERTY
W(PB)
SciTegic.value.DoubleValue
-64.506

@<SCITEGIC>MOL_PROPERTY
W(SA)
SciTegic.value.DoubleValue
2.080

@<SCITEGIC>MOL_PROPERTY
Valence
SciTegic.value.DoubleValue
2.652

@<SCITEGIC>MOL_PROPERTY
Coulomb
SciTegic.value.DoubleValue
5.578

@<SCITEGIC>MOL_PROPERTY
VdW
SciTegic.value.DoubleValue
0.818

@<SCITEGIC>MOL_PROPERTY
VdW6
SciTegic.value.DoubleValue
-4.535

@<SCITEGIC>MOL_PROPERTY
VdW12
SciTegic.value.DoubleValue
5.352

@<SCITEGIC>MOL_PROPERTY
Bond
SciTegic.value.DoubleValue
0.063

@<SCITEGIC>MOL_PROPERTY
Angle
SciTegic.value.DoubleValue
2.579

@<SCITEGIC>MOL_PROPERTY
Pdih
SciTegic.value.DoubleValue
0.010

@<SCITEGIC>MOL_PROPERTY
Idih
SciTegic.value.DoubleValue
0.000

@<SCITEGIC>MOL_PROPERTY
Tether
SciTegic.value.DoubleValue
0.000

@<TRIPOS>MOLECULE
guest-s19_confgen4.mol2 : confsearch ligand conformer 739
          17          16           1
SMALL
USER_CHARGES
 
@<TRIPOS>ATOM
       1    C1      18.577131   21.719411   21.340983 C.2        1 MOL1         0.6173
       2    O1      17.425291   21.411184   21.583267 O.co2      1 MOL1        -0.6755
       3    O2      18.935928   22.872288   21.199745 O.co2      1 MOL1        -0.6755
       4    C2      19.609393   20.656579   21.203454 C.2        1 MOL1        -0.1504
       5    H1      20.618151   20.999863   20.985911 H          1 MOL1         0.0814
       6    C3      19.353091   19.335352   21.336323 C.2        1 MOL1        -0.1394
       7    H2      18.346707   18.980637   21.557603 H          1 MOL1         0.0817
       8    C4      20.409766   18.259462   21.198798 C.3        1 MOL1        -0.1849
       9    H3      21.080866   18.506765   20.365136 H          1 MOL1         0.0736
      10    H4      19.936614   17.303315   20.937643 H          1 MOL1         0.0736
      11    C5      21.244595   18.087654   22.486861 C.3        1 MOL1        -0.1866
      12    H5      22.057885   17.374209   22.295266 H          1 MOL1         0.0738
      13    H6      21.720336   19.042550   22.750055 H          1 MOL1         0.0738
      14    C6      20.400033   17.582427   23.676052 C.3        1 MOL1        -0.2879
      15    H7      19.924506   16.621580   23.439846 H          1 MOL1         0.0750
      16    H8      21.029910   17.439747   24.563635 H          1 MOL1         0.0750
      17    H9      19.611354   18.300773   23.935255 H          1 MOL1         0.0750
@<TRIPOS>BOND
    1     1     2    1
    2     1     3    2
    3     1     4    1
    4     4     5    1
    5     4     6    2
    6     6     7    1
    7     6     8    1
    8     8     9    1
    9     8    10    1
   10     8    11    1
   11    11    12    1
   12    11    13    1
   13    11    14    1
   14    14    15    1
   15    14    16    1
   16    14    17    1
@<TRIPOS>SUBSTRUCTURE
       1 MOL1            1 RESIDUE      1      MOL     
@<SCITEGIC>MOL_PROPERTY
VConf Rank
SciTegic.value.IntegerValue
739

@<SCITEGIC>MOL_PROPERTY
Conf_Id
SciTegic.value.IntegerValue
3

@<SCITEGIC>MOL_PROPERTY
Delta U+W
SciTegic.value.DoubleValue
0.531

@<SCITEGIC>MOL_PROPERTY
U+W
SciTegic.value.DoubleValue
-52.878

@<SCITEGIC>MOL_PROPERTY
Grad RMS
SciTegic.value.DoubleValue
0.000000

@<SCITEGIC>MOL_PROPERTY
U
SciTegic.value.DoubleValue
10.067

@<SCITEGIC>MOL_PROPERTY
W
SciTegic.value.DoubleValue
-62.945

@<SCITEGIC>MOL_PROPERTY
W(PB)
SciTegic.value.DoubleValue
-64.982

@<SCITEGIC>MOL_PROPERTY
W(SA)
SciTegic.value.DoubleValue
2.037

@<SCITEGIC>MOL_PROPERTY
Valence
SciTegic.value.DoubleValue
2.779

@<SCITEGIC>MOL_PROPERTY
Coulomb
SciTegic.value.DoubleValue
6.474

@<SCITEGIC>MOL_PROPERTY
VdW
SciTegic.value.DoubleValue
0.815

@<SCITEGIC>MOL_PROPERTY
VdW6
SciTegic.value.DoubleValue
-5.088

@<SCITEGIC>MOL_PROPERTY
VdW12
SciTegic.value.DoubleValue
5.902

@<SCITEGIC>MOL_PROPERTY
Bond
SciTegic.value.DoubleValue
0.078

@<SCITEGIC>MOL_PROPERTY
Angle
SciTegic.value.DoubleValue
2.651

@<SCITEGIC>MOL_PROPERTY
Pdih
SciTegic.value.DoubleValue
0.050

@<SCITEGIC>MOL_PROPERTY
Idih
SciTegic.value.DoubleValue
0.000

@<SCITEGIC>MOL_PROPERTY
Tether
SciTegic.value.DoubleValue
0.000

@<TRIPOS>MOLECULE
guest-s19_confgen4.mol2 : confsearch ligand conformer 740
          17          16           1
SMALL
USER_CHARGES
 
@<TRIPOS>ATOM
       1    C1      18.077790   21.363038   21.453891 C.2        1 MOL1         0.6173
       2    O1      18.164059   22.237628   20.613991 O.co2      1 MOL1        -0.6755
       3    O2      17.367388   21.459368   22.436996 O.co2      1 MOL1        -0.6755
       4    C2      18.883318   20.129236   21.246695 C.2        1 MOL1        -0.1504
       5    H1      19.495919   20.108557   20.348364 H          1 MOL1         0.0814
       6    C3      18.886464   19.079279   22.099435 C.2        1 MOL1        -0.1394
       7    H2      18.278450   19.093275   23.003670 H          1 MOL1         0.0817
       8    C4      19.709742   17.825688   21.887164 C.3        1 MOL1        -0.1849
       9    H3      20.041253   17.753406   20.842359 H          1 MOL1         0.0736
      10    H4      19.077047   16.946513   22.068151 H          1 MOL1         0.0736
      11    C5      20.934634   17.762956   22.825712 C.3        1 MOL1        -0.1866
      12    H5      20.604115   17.837858   23.870990 H          1 MOL1         0.0738
      13    H6      21.418108   16.782106   22.719016 H          1 MOL1         0.0738
      14    C6      21.969297   18.868785   22.526636 C.3        1 MOL1        -0.2879
      15    H7      21.539922   19.866501   22.685548 H          1 MOL1         0.0750
      16    H8      22.841819   18.769431   23.185195 H          1 MOL1         0.0750
      17    H9      22.319554   18.808097   21.488017 H          1 MOL1         0.0750
@<TRIPOS>BOND
    1     1     2    1
    2     1     3    2
    3     1     4    1
    4     4     5    1
    5     4     6    2
    6     6     7    1
    7     6     8    1
    8     8     9    1
    9     8    10    1
   10     8    11    1
   11    11    12    1
   12    11    13    1
   13    11    14    1
   14    14    15    1
   15    14    16    1
   16    14    17    1
@<TRIPOS>SUBSTRUCTURE
       1 MOL1            1 RESIDUE      1      MOL     
@<SCITEGIC>MOL_PROPERTY
VConf Rank
SciTegic.value.IntegerValue
740

@<SCITEGIC>MOL_PROPERTY
Conf_Id
SciTegic.value.IntegerValue
45

@<SCITEGIC>MOL_PROPERTY
Delta U+W
SciTegic.value.DoubleValue
0.562

@<SCITEGIC>MOL_PROPERTY
U+W
SciTegic.value.DoubleValue
-52.846

@<SCITEGIC>MOL_PROPERTY
Grad RMS
SciTegic.value.DoubleValue
0.000000

@<SCITEGIC>MOL_PROPERTY
U
SciTegic.value.DoubleValue
10.243

@<SCITEGIC>MOL_PROPERTY
W
SciTegic.value.DoubleValue
-63.089

@<SCITEGIC>MOL_PROPERTY
W(PB)
SciTegic.value.DoubleValue
-65.116

@<SCITEGIC>MOL_PROPERTY
W(SA)
SciTegic.value.DoubleValue
2.026

@<SCITEGIC>MOL_PROPERTY
Valence
SciTegic.value.DoubleValue
2.822

@<SCITEGIC>MOL_PROPERTY
Coulomb
SciTegic.value.DoubleValue
6.637

@<SCITEGIC>MOL_PROPERTY
VdW
SciTegic.value.DoubleValue
0.785

@<SCITEGIC>MOL_PROPERTY
VdW6
SciTegic.value.DoubleValue
-5.216

@<SCITEGIC>MOL_PROPERTY
VdW12
SciTegic.value.DoubleValue
6.001

@<SCITEGIC>MOL_PROPERTY
Bond
SciTegic.value.DoubleValue
0.080

@<SCITEGIC>MOL_PROPERTY
Angle
SciTegic.value.DoubleValue
2.678

@<SCITEGIC>MOL_PROPERTY
Pdih
SciTegic.value.DoubleValue
0.064

@<SCITEGIC>MOL_PROPERTY
Idih
SciTegic.value.DoubleValue
0.000

@<SCITEGIC>MOL_PROPERTY
Tether
SciTegic.value.DoubleValue
0.000

@<TRIPOS>MOLECULE
guest-s19_confgen4.mol2 : confsearch ligand conformer 741
          17          16           1
SMALL
USER_CHARGES
 
@<TRIPOS>ATOM
       1    C1      21.608918   16.857414   23.826197 C.2        1 MOL1         0.6173
       2    O1      22.775455   16.831569   24.167117 O.co2      1 MOL1        -0.6755
       3    O2      20.862450   15.904948   23.952637 O.co2      1 MOL1        -0.6755
       4    C2      21.094079   18.120821   23.232139 C.2        1 MOL1        -0.1504
       5    H1      21.812641   18.932881   23.147667 H          1 MOL1         0.0814
       6    C3      19.820950   18.290576   22.808568 C.2        1 MOL1        -0.1394
       7    H2      19.093441   17.482828   22.886326 H          1 MOL1         0.0817
       8    C4      19.305931   19.578159   22.203487 C.3        1 MOL1        -0.1849
       9    H3      19.743656   20.439923   22.725568 H          1 MOL1         0.0736
      10    H4      18.219199   19.643903   22.348670 H          1 MOL1         0.0736
      11    C5      19.631489   19.661236   20.698122 C.3        1 MOL1        -0.1866
      12    H5      20.718808   19.599826   20.551408 H          1 MOL1         0.0738
      13    H6      19.190927   18.799395   20.177830 H          1 MOL1         0.0738
      14    C6      19.101504   20.966710   20.071720 C.3        1 MOL1        -0.2879
      15    H7      18.010948   21.038416   20.176485 H          1 MOL1         0.0750
      16    H8      19.550878   21.844625   20.554178 H          1 MOL1         0.0750
      17    H9      19.342478   21.007806   19.001499 H          1 MOL1         0.0750
@<TRIPOS>BOND
    1     1     2    1
    2     1     3    2
    3     1     4    1
    4     4     5    1
    5     4     6    2
    6     6     7    1
    7     6     8    1
    8     8     9    1
    9     8    10    1
   10     8    11    1
   11    11    12    1
   12    11    13    1
   13    11    14    1
   14    14    15    1
   15    14    16    1
   16    14    17    1
@<TRIPOS>SUBSTRUCTURE
       1 MOL1            1 RESIDUE      1      MOL     
@<SCITEGIC>MOL_PROPERTY
VConf Rank
SciTegic.value.IntegerValue
741

@<SCITEGIC>MOL_PROPERTY
Conf_Id
SciTegic.value.IntegerValue
36

@<SCITEGIC>MOL_PROPERTY
Delta U+W
SciTegic.value.DoubleValue
0.000

@<SCITEGIC>MOL_PROPERTY
U+W
SciTegic.value.DoubleValue
-53.409

@<SCITEGIC>MOL_PROPERTY
Grad RMS
SciTegic.value.DoubleValue
0.000000

@<SCITEGIC>MOL_PROPERTY
U
SciTegic.value.DoubleValue
9.048

@<SCITEGIC>MOL_PROPERTY
W
SciTegic.value.DoubleValue
-62.457

@<SCITEGIC>MOL_PROPERTY
W(PB)
SciTegic.value.DoubleValue
-64.540

@<SCITEGIC>MOL_PROPERTY
W(SA)
SciTegic.value.DoubleValue
2.084

@<SCITEGIC>MOL_PROPERTY
Valence
SciTegic.value.DoubleValue
2.652

@<SCITEGIC>MOL_PROPERTY
Coulomb
SciTegic.value.DoubleValue
5.578

@<SCITEGIC>MOL_PROPERTY
VdW
SciTegic.value.DoubleValue
0.818

@<SCITEGIC>MOL_PROPERTY
VdW6
SciTegic.value.DoubleValue
-4.534

@<SCITEGIC>MOL_PROPERTY
VdW12
SciTegic.value.DoubleValue
5.352

@<SCITEGIC>MOL_PROPERTY
Bond
SciTegic.value.DoubleValue
0.063

@<SCITEGIC>MOL_PROPERTY
Angle
SciTegic.value.DoubleValue
2.579

@<SCITEGIC>MOL_PROPERTY
Pdih
SciTegic.value.DoubleValue
0.010

@<SCITEGIC>MOL_PROPERTY
Idih
SciTegic.value.DoubleValue
0.000

@<SCITEGIC>MOL_PROPERTY
Tether
SciTegic.value.DoubleValue
0.000

@<TRIPOS>MOLECULE
guest-s19_confgen4.mol2 : confsearch ligand conformer 742
          17          16           1
SMALL
USER_CHARGES
 
@<TRIPOS>ATOM
       1    C1      18.901437   20.977381   19.346593 C.2        1 MOL1         0.6173
       2    O1      19.636298   21.944431   19.274572 O.co2      1 MOL1        -0.6755
       3    O2      17.861826   20.890485   18.722602 O.co2      1 MOL1        -0.6755
       4    C2      19.270739   19.837876   20.229376 C.2        1 MOL1        -0.1504
       5    H1      18.570920   19.005513   20.247690 H          1 MOL1         0.0814
       6    C3      20.394921   19.799681   20.980269 C.2        1 MOL1        -0.1394
       7    H2      21.101839   20.629113   20.971130 H          1 MOL1         0.0817
       8    C4      20.762173   18.637632   21.876933 C.3        1 MOL1        -0.1849
       9    H3      21.850639   18.614846   22.022224 H          1 MOL1         0.0736
      10    H4      20.491633   17.689445   21.392623 H          1 MOL1         0.0736
      11    C5      20.060706   18.741214   23.246689 C.3        1 MOL1        -0.1866
      12    H5      20.334544   19.689343   23.730043 H          1 MOL1         0.0738
      13    H6      18.971364   18.759996   23.103363 H          1 MOL1         0.0738
      14    C6      20.437164   17.565102   24.170033 C.3        1 MOL1        -0.2879
      15    H7      21.519024   17.541920   24.355696 H          1 MOL1         0.0750
      16    H8      19.929019   17.656036   25.138873 H          1 MOL1         0.0750
      17    H9      20.145245   16.605720   23.723037 H          1 MOL1         0.0750
@<TRIPOS>BOND
    1     1     2    1
    2     1     3    2
    3     1     4    1
    4     4     5    1
    5     4     6    2
    6     6     7    1
    7     6     8    1
    8     8     9    1
    9     8    10    1
   10     8    11    1
   11    11    12    1
   12    11    13    1
   13    11    14    1
   14    14    15    1
   15    14    16    1
   16    14    17    1
@<TRIPOS>SUBSTRUCTURE
       1 MOL1            1 RESIDUE      1      MOL     
@<SCITEGIC>MOL_PROPERTY
VConf Rank
SciTegic.value.IntegerValue
742

@<SCITEGIC>MOL_PROPERTY
Conf_Id
SciTegic.value.IntegerValue
1

@<SCITEGIC>MOL_PROPERTY
Delta U+W
SciTegic.value.DoubleValue
0.030

@<SCITEGIC>MOL_PROPERTY
U+W
SciTegic.value.DoubleValue
-53.378

@<SCITEGIC>MOL_PROPERTY
Grad RMS
SciTegic.value.DoubleValue
0.000000

@<SCITEGIC>MOL_PROPERTY
U
SciTegic.value.DoubleValue
9.048

@<SCITEGIC>MOL_PROPERTY
W
SciTegic.value.DoubleValue
-62.426

@<SCITEGIC>MOL_PROPERTY
W(PB)
SciTegic.value.DoubleValue
-64.506

@<SCITEGIC>MOL_PROPERTY
W(SA)
SciTegic.value.DoubleValue
2.080

@<SCITEGIC>MOL_PROPERTY
Valence
SciTegic.value.DoubleValue
2.652

@<SCITEGIC>MOL_PROPERTY
Coulomb
SciTegic.value.DoubleValue
5.578

@<SCITEGIC>MOL_PROPERTY
VdW
SciTegic.value.DoubleValue
0.818

@<SCITEGIC>MOL_PROPERTY
VdW6
SciTegic.value.DoubleValue
-4.535

@<SCITEGIC>MOL_PROPERTY
VdW12
SciTegic.value.DoubleValue
5.352

@<SCITEGIC>MOL_PROPERTY
Bond
SciTegic.value.DoubleValue
0.063

@<SCITEGIC>MOL_PROPERTY
Angle
SciTegic.value.DoubleValue
2.579

@<SCITEGIC>MOL_PROPERTY
Pdih
SciTegic.value.DoubleValue
0.010

@<SCITEGIC>MOL_PROPERTY
Idih
SciTegic.value.DoubleValue
0.000

@<SCITEGIC>MOL_PROPERTY
Tether
SciTegic.value.DoubleValue
0.000

@<TRIPOS>MOLECULE
guest-s19_confgen4.mol2 : confsearch ligand conformer 743
          17          16           1
SMALL
USER_CHARGES
 
@<TRIPOS>ATOM
       1    C1      22.844236   20.282417   21.771992 C.2        1 MOL1         0.6173
       2    O1      22.617425   21.208162   21.015690 O.co2      1 MOL1        -0.6755
       3    O2      23.870977   20.193468   22.416742 O.co2      1 MOL1        -0.6755
       4    C2      21.837851   19.197706   21.929102 C.2        1 MOL1        -0.1504
       5    H1      22.103205   18.400287   22.619369 H          1 MOL1         0.0814
       6    C3      20.653717   19.167987   21.276469 C.2        1 MOL1        -0.1394
       7    H2      20.376299   19.963470   20.585207 H          1 MOL1         0.0817
       8    C4      19.632599   18.062487   21.444407 C.3        1 MOL1        -0.1849
       9    H3      20.144970   17.092100   21.492885 H          1 MOL1         0.0736
      10    H4      18.980061   18.020394   20.561958 H          1 MOL1         0.0736
      11    C5      18.772579   18.244847   22.714317 C.3        1 MOL1        -0.1866
      12    H5      18.126790   17.364920   22.840168 H          1 MOL1         0.0738
      13    H6      19.422728   18.286080   23.599210 H          1 MOL1         0.0738
      14    C6      17.892964   19.511964   22.655993 C.3        1 MOL1        -0.2879
      15    H7      17.225068   19.486615   21.785121 H          1 MOL1         0.0750
      16    H8      17.271696   19.592240   23.557375 H          1 MOL1         0.0750
      17    H9      18.508393   20.418656   22.589830 H          1 MOL1         0.0750
@<TRIPOS>BOND
    1     1     2    1
    2     1     3    2
    3     1     4    1
    4     4     5    1
    5     4     6    2
    6     6     7    1
    7     6     8    1
    8     8     9    1
    9     8    10    1
   10     8    11    1
   11    11    12    1
   12    11    13    1
   13    11    14    1
   14    14    15    1
   15    14    16    1
   16    14    17    1
@<TRIPOS>SUBSTRUCTURE
       1 MOL1            1 RESIDUE      1      MOL     
@<SCITEGIC>MOL_PROPERTY
VConf Rank
SciTegic.value.IntegerValue
743

@<SCITEGIC>MOL_PROPERTY
Conf_Id
SciTegic.value.IntegerValue
3

@<SCITEGIC>MOL_PROPERTY
Delta U+W
SciTegic.value.DoubleValue
0.531

@<SCITEGIC>MOL_PROPERTY
U+W
SciTegic.value.DoubleValue
-52.878

@<SCITEGIC>MOL_PROPERTY
Grad RMS
SciTegic.value.DoubleValue
0.000000

@<SCITEGIC>MOL_PROPERTY
U
SciTegic.value.DoubleValue
10.067

@<SCITEGIC>MOL_PROPERTY
W
SciTegic.value.DoubleValue
-62.945

@<SCITEGIC>MOL_PROPERTY
W(PB)
SciTegic.value.DoubleValue
-64.982

@<SCITEGIC>MOL_PROPERTY
W(SA)
SciTegic.value.DoubleValue
2.037

@<SCITEGIC>MOL_PROPERTY
Valence
SciTegic.value.DoubleValue
2.779

@<SCITEGIC>MOL_PROPERTY
Coulomb
SciTegic.value.DoubleValue
6.474

@<SCITEGIC>MOL_PROPERTY
VdW
SciTegic.value.DoubleValue
0.815

@<SCITEGIC>MOL_PROPERTY
VdW6
SciTegic.value.DoubleValue
-5.088

@<SCITEGIC>MOL_PROPERTY
VdW12
SciTegic.value.DoubleValue
5.902

@<SCITEGIC>MOL_PROPERTY
Bond
SciTegic.value.DoubleValue
0.078

@<SCITEGIC>MOL_PROPERTY
Angle
SciTegic.value.DoubleValue
2.651

@<SCITEGIC>MOL_PROPERTY
Pdih
SciTegic.value.DoubleValue
0.050

@<SCITEGIC>MOL_PROPERTY
Idih
SciTegic.value.DoubleValue
0.000

@<SCITEGIC>MOL_PROPERTY
Tether
SciTegic.value.DoubleValue
0.000

@<TRIPOS>MOLECULE
guest-s19_confgen4.mol2 : confsearch ligand conformer 744
          17          16           1
SMALL
USER_CHARGES
 
@<TRIPOS>ATOM
       1    C1      22.475073   19.025368   23.771380 C.2        1 MOL1         0.6173
       2    O1      22.930006   18.118598   24.441144 O.co2      1 MOL1        -0.6755
       3    O2      22.768984   20.192062   23.952739 O.co2      1 MOL1        -0.6755
       4    C2      21.521754   18.667218   22.686491 C.2        1 MOL1        -0.1504
       5    H1      21.302787   17.607422   22.578832 H          1 MOL1         0.0814
       6    C3      20.938023   19.571554   21.867333 C.2        1 MOL1        -0.1394
       7    H2      21.149016   20.635657   21.970700 H          1 MOL1         0.0817
       8    C4      19.965748   19.204090   20.765522 C.3        1 MOL1        -0.1849
       9    H3      20.039424   18.134543   20.525977 H          1 MOL1         0.0736
      10    H4      20.242783   19.741934   19.849016 H          1 MOL1         0.0736
      11    C5      18.506614   19.554803   21.130345 C.3        1 MOL1        -0.1866
      12    H5      18.432534   20.624029   21.372685 H          1 MOL1         0.0738
      13    H6      17.867416   19.386994   20.252584 H          1 MOL1         0.0738
      14    C6      17.971225   18.715567   22.310121 C.3        1 MOL1        -0.2879
      15    H7      18.546919   18.906027   23.225192 H          1 MOL1         0.0750
      16    H8      16.921805   18.963477   22.515367 H          1 MOL1         0.0750
      17    H9      18.028766   17.642379   22.086403 H          1 MOL1         0.0750
@<TRIPOS>BOND
    1     1     2    1
    2     1     3    2
    3     1     4    1
    4     4     5    1
    5     4     6    2
    6     6     7    1
    7     6     8    1
    8     8     9    1
    9     8    10    1
   10     8    11    1
   11    11    12    1
   12    11    13    1
   13    11    14    1
   14    14    15    1
   15    14    16    1
   16    14    17    1
@<TRIPOS>SUBSTRUCTURE
       1 MOL1            1 RESIDUE      1      MOL     
@<SCITEGIC>MOL_PROPERTY
VConf Rank
SciTegic.value.IntegerValue
744

@<SCITEGIC>MOL_PROPERTY
Conf_Id
SciTegic.value.IntegerValue
45

@<SCITEGIC>MOL_PROPERTY
Delta U+W
SciTegic.value.DoubleValue
0.562

@<SCITEGIC>MOL_PROPERTY
U+W
SciTegic.value.DoubleValue
-52.846

@<SCITEGIC>MOL_PROPERTY
Grad RMS
SciTegic.value.DoubleValue
0.000000

@<SCITEGIC>MOL_PROPERTY
U
SciTegic.value.DoubleValue
10.243

@<SCITEGIC>MOL_PROPERTY
W
SciTegic.value.DoubleValue
-63.089

@<SCITEGIC>MOL_PROPERTY
W(PB)
SciTegic.value.DoubleValue
-65.116

@<SCITEGIC>MOL_PROPERTY
W(SA)
SciTegic.value.DoubleValue
2.026

@<SCITEGIC>MOL_PROPERTY
Valence
SciTegic.value.DoubleValue
2.822

@<SCITEGIC>MOL_PROPERTY
Coulomb
SciTegic.value.DoubleValue
6.637

@<SCITEGIC>MOL_PROPERTY
VdW
SciTegic.value.DoubleValue
0.785

@<SCITEGIC>MOL_PROPERTY
VdW6
SciTegic.value.DoubleValue
-5.216

@<SCITEGIC>MOL_PROPERTY
VdW12
SciTegic.value.DoubleValue
6.001

@<SCITEGIC>MOL_PROPERTY
Bond
SciTegic.value.DoubleValue
0.080

@<SCITEGIC>MOL_PROPERTY
Angle
SciTegic.value.DoubleValue
2.678

@<SCITEGIC>MOL_PROPERTY
Pdih
SciTegic.value.DoubleValue
0.064

@<SCITEGIC>MOL_PROPERTY
Idih
SciTegic.value.DoubleValue
0.000

@<SCITEGIC>MOL_PROPERTY
Tether
SciTegic.value.DoubleValue
0.000

@<TRIPOS>MOLECULE
guest-s19_confgen4.mol2 : confsearch ligand conformer 745
          17          16           1
SMALL
USER_CHARGES
 
@<TRIPOS>ATOM
       1    C1      23.006222   17.894121   22.809210 C.2        1 MOL1         0.6173
       2    O1      23.830910   18.361088   23.570482 O.co2      1 MOL1        -0.6755
       3    O2      23.252653   16.974749   22.051303 O.co2      1 MOL1        -0.6755
       4    C2      21.642251   18.488696   22.824243 C.2        1 MOL1        -0.1504
       5    H1      21.488754   19.306601   23.524513 H          1 MOL1         0.0814
       6    C3      20.628955   18.070506   22.032136 C.2        1 MOL1        -0.1394
       7    H2      20.772461   17.253463   21.325298 H          1 MOL1         0.0817
       8    C4      19.245204   18.682119   22.052113 C.3        1 MOL1        -0.1849
       9    H3      18.959928   18.932125   23.083095 H          1 MOL1         0.0736
      10    H4      18.512494   17.945932   21.694968 H          1 MOL1         0.0736
      11    C5      19.177132   19.946899   21.171936 C.3        1 MOL1        -0.1866
      12    H5      19.906761   20.686213   21.530567 H          1 MOL1         0.0738
      13    H6      19.460883   19.693905   20.140894 H          1 MOL1         0.0738
      14    C6      17.767229   20.571114   21.179426 C.3        1 MOL1        -0.2879
      15    H7      17.021756   19.862703   20.794906 H          1 MOL1         0.0750
      16    H8      17.471717   20.861822   22.196086 H          1 MOL1         0.0750
      17    H9      17.738439   21.468979   20.548443 H          1 MOL1         0.0750
@<TRIPOS>BOND
    1     1     2    1
    2     1     3    2
    3     1     4    1
    4     4     5    1
    5     4     6    2
    6     6     7    1
    7     6     8    1
    8     8     9    1
    9     8    10    1
   10     8    11    1
   11    11    12    1
   12    11    13    1
   13    11    14    1
   14    14    15    1
   15    14    16    1
   16    14    17    1
@<TRIPOS>SUBSTRUCTURE
       1 MOL1            1 RESIDUE      1      MOL     
@<SCITEGIC>MOL_PROPERTY
VConf Rank
SciTegic.value.IntegerValue
745

@<SCITEGIC>MOL_PROPERTY
Conf_Id
SciTegic.value.IntegerValue
36

@<SCITEGIC>MOL_PROPERTY
Delta U+W
SciTegic.value.DoubleValue
0.000

@<SCITEGIC>MOL_PROPERTY
U+W
SciTegic.value.DoubleValue
-53.409

@<SCITEGIC>MOL_PROPERTY
Grad RMS
SciTegic.value.DoubleValue
0.000000

@<SCITEGIC>MOL_PROPERTY
U
SciTegic.value.DoubleValue
9.048

@<SCITEGIC>MOL_PROPERTY
W
SciTegic.value.DoubleValue
-62.457

@<SCITEGIC>MOL_PROPERTY
W(PB)
SciTegic.value.DoubleValue
-64.540

@<SCITEGIC>MOL_PROPERTY
W(SA)
SciTegic.value.DoubleValue
2.084

@<SCITEGIC>MOL_PROPERTY
Valence
SciTegic.value.DoubleValue
2.652

@<SCITEGIC>MOL_PROPERTY
Coulomb
SciTegic.value.DoubleValue
5.578

@<SCITEGIC>MOL_PROPERTY
VdW
SciTegic.value.DoubleValue
0.818

@<SCITEGIC>MOL_PROPERTY
VdW6
SciTegic.value.DoubleValue
-4.534

@<SCITEGIC>MOL_PROPERTY
VdW12
SciTegic.value.DoubleValue
5.352

@<SCITEGIC>MOL_PROPERTY
Bond
SciTegic.value.DoubleValue
0.063

@<SCITEGIC>MOL_PROPERTY
Angle
SciTegic.value.DoubleValue
2.579

@<SCITEGIC>MOL_PROPERTY
Pdih
SciTegic.value.DoubleValue
0.010

@<SCITEGIC>MOL_PROPERTY
Idih
SciTegic.value.DoubleValue
0.000

@<SCITEGIC>MOL_PROPERTY
Tether
SciTegic.value.DoubleValue
0.000

@<TRIPOS>MOLECULE
guest-s19_confgen4.mol2 : confsearch ligand conformer 746
          17          16           1
SMALL
USER_CHARGES
 
@<TRIPOS>ATOM
       1    C1      17.374322   18.240805   19.994661 C.2        1 MOL1         0.6173
       2    O1      17.822892   17.745037   18.978102 O.co2      1 MOL1        -0.6755
       3    O2      16.202369   18.537035   20.123033 O.co2      1 MOL1        -0.6755
       4    C2      18.280109   18.504291   21.145438 C.2        1 MOL1        -0.1504
       5    H1      17.815715   18.948346   22.022970 H          1 MOL1         0.0814
       6    C3      19.603733   18.226637   21.141786 C.2        1 MOL1        -0.1394
       7    H2      20.079690   17.783711   20.267111 H          1 MOL1         0.0817
       8    C4      20.518332   18.499482   22.315797 C.3        1 MOL1        -0.1849
       9    H3      21.384331   17.825316   22.271844 H          1 MOL1         0.0736
      10    H4      19.997290   18.277927   23.257198 H          1 MOL1         0.0736
      11    C5      21.003755   19.963500   22.321597 C.3        1 MOL1        -0.1866
      12    H5      21.526424   20.182038   21.379989 H          1 MOL1         0.0738
      13    H6      20.138606   20.639343   22.369689 H          1 MOL1         0.0738
      14    C6      21.944057   20.247322   23.510211 C.3        1 MOL1        -0.2879
      15    H7      22.834264   19.606029   23.468919 H          1 MOL1         0.0750
      16    H8      22.278744   21.292766   23.497508 H          1 MOL1         0.0750
      17    H9      21.434858   20.066146   24.465892 H          1 MOL1         0.0750
@<TRIPOS>BOND
    1     1     2    1
    2     1     3    2
    3     1     4    1
    4     4     5    1
    5     4     6    2
    6     6     7    1
    7     6     8    1
    8     8     9    1
    9     8    10    1
   10     8    11    1
   11    11    12    1
   12    11    13    1
   13    11    14    1
   14    14    15    1
   15    14    16    1
   16    14    17    1
@<TRIPOS>SUBSTRUCTURE
       1 MOL1            1 RESIDUE      1      MOL     
@<SCITEGIC>MOL_PROPERTY
VConf Rank
SciTegic.value.IntegerValue
746

@<SCITEGIC>MOL_PROPERTY
Conf_Id
SciTegic.value.IntegerValue
1

@<SCITEGIC>MOL_PROPERTY
Delta U+W
SciTegic.value.DoubleValue
0.030

@<SCITEGIC>MOL_PROPERTY
U+W
SciTegic.value.DoubleValue
-53.378

@<SCITEGIC>MOL_PROPERTY
Grad RMS
SciTegic.value.DoubleValue
0.000000

@<SCITEGIC>MOL_PROPERTY
U
SciTegic.value.DoubleValue
9.048

@<SCITEGIC>MOL_PROPERTY
W
SciTegic.value.DoubleValue
-62.426

@<SCITEGIC>MOL_PROPERTY
W(PB)
SciTegic.value.DoubleValue
-64.506

@<SCITEGIC>MOL_PROPERTY
W(SA)
SciTegic.value.DoubleValue
2.080

@<SCITEGIC>MOL_PROPERTY
Valence
SciTegic.value.DoubleValue
2.652

@<SCITEGIC>MOL_PROPERTY
Coulomb
SciTegic.value.DoubleValue
5.578

@<SCITEGIC>MOL_PROPERTY
VdW
SciTegic.value.DoubleValue
0.818

@<SCITEGIC>MOL_PROPERTY
VdW6
SciTegic.value.DoubleValue
-4.535

@<SCITEGIC>MOL_PROPERTY
VdW12
SciTegic.value.DoubleValue
5.352

@<SCITEGIC>MOL_PROPERTY
Bond
SciTegic.value.DoubleValue
0.063

@<SCITEGIC>MOL_PROPERTY
Angle
SciTegic.value.DoubleValue
2.579

@<SCITEGIC>MOL_PROPERTY
Pdih
SciTegic.value.DoubleValue
0.010

@<SCITEGIC>MOL_PROPERTY
Idih
SciTegic.value.DoubleValue
0.000

@<SCITEGIC>MOL_PROPERTY
Tether
SciTegic.value.DoubleValue
0.000

@<TRIPOS>MOLECULE
guest-s19_confgen4.mol2 : confsearch ligand conformer 747
          17          16           1
SMALL
USER_CHARGES
 
@<TRIPOS>ATOM
       1    C1      22.604615   19.648907   20.473200 C.2        1 MOL1         0.6173
       2    O1      23.272835   18.685729   20.799101 O.co2      1 MOL1        -0.6755
       3    O2      22.884827   20.355963   19.524852 O.co2      1 MOL1        -0.6755
       4    C2      21.388628   19.999111   21.256031 C.2        1 MOL1        -0.1504
       5    H1      20.837652   20.871468   20.912261 H          1 MOL1         0.0814
       6    C3      20.958051   19.301627   22.331720 C.2        1 MOL1        -0.1394
       7    H2      21.500557   18.424058   22.682658 H          1 MOL1         0.0817
       8    C4      19.717141   19.661833   23.121283 C.3        1 MOL1        -0.1849
       9    H3      19.658836   20.752427   23.238465 H          1 MOL1         0.0736
      10    H4      19.787862   19.248214   24.136277 H          1 MOL1         0.0736
      11    C5      18.423539   19.155345   22.446283 C.3        1 MOL1        -0.1866
      12    H5      17.555654   19.534222   23.003402 H          1 MOL1         0.0738
      13    H6      18.349346   19.568580   21.430823 H          1 MOL1         0.0738
      14    C6      18.351540   17.614559   22.387079 C.3        1 MOL1        -0.2879
      15    H7      18.411222   17.179694   23.393297 H          1 MOL1         0.0750
      16    H8      17.406533   17.289599   21.932908 H          1 MOL1         0.0750
      17    H9      19.172718   17.202463   21.786192 H          1 MOL1         0.0750
@<TRIPOS>BOND
    1     1     2    1
    2     1     3    2
    3     1     4    1
    4     4     5    1
    5     4     6    2
    6     6     7    1
    7     6     8    1
    8     8     9    1
    9     8    10    1
   10     8    11    1
   11    11    12    1
   12    11    13    1
   13    11    14    1
   14    14    15    1
   15    14    16    1
   16    14    17    1
@<TRIPOS>SUBSTRUCTURE
       1 MOL1            1 RESIDUE      1      MOL     
@<SCITEGIC>MOL_PROPERTY
VConf Rank
SciTegic.value.IntegerValue
747

@<SCITEGIC>MOL_PROPERTY
Conf_Id
SciTegic.value.IntegerValue
3

@<SCITEGIC>MOL_PROPERTY
Delta U+W
SciTegic.value.DoubleValue
0.531

@<SCITEGIC>MOL_PROPERTY
U+W
SciTegic.value.DoubleValue
-52.878

@<SCITEGIC>MOL_PROPERTY
Grad RMS
SciTegic.value.DoubleValue
0.000000

@<SCITEGIC>MOL_PROPERTY
U
SciTegic.value.DoubleValue
10.067

@<SCITEGIC>MOL_PROPERTY
W
SciTegic.value.DoubleValue
-62.945

@<SCITEGIC>MOL_PROPERTY
W(PB)
SciTegic.value.DoubleValue
-64.982

@<SCITEGIC>MOL_PROPERTY
W(SA)
SciTegic.value.DoubleValue
2.037

@<SCITEGIC>MOL_PROPERTY
Valence
SciTegic.value.DoubleValue
2.779

@<SCITEGIC>MOL_PROPERTY
Coulomb
SciTegic.value.DoubleValue
6.474

@<SCITEGIC>MOL_PROPERTY
VdW
SciTegic.value.DoubleValue
0.815

@<SCITEGIC>MOL_PROPERTY
VdW6
SciTegic.value.DoubleValue
-5.088

@<SCITEGIC>MOL_PROPERTY
VdW12
SciTegic.value.DoubleValue
5.902

@<SCITEGIC>MOL_PROPERTY
Bond
SciTegic.value.DoubleValue
0.078

@<SCITEGIC>MOL_PROPERTY
Angle
SciTegic.value.DoubleValue
2.651

@<SCITEGIC>MOL_PROPERTY
Pdih
SciTegic.value.DoubleValue
0.050

@<SCITEGIC>MOL_PROPERTY
Idih
SciTegic.value.DoubleValue
0.000

@<SCITEGIC>MOL_PROPERTY
Tether
SciTegic.value.DoubleValue
0.000

@<TRIPOS>MOLECULE
guest-s19_confgen4.mol2 : confsearch ligand conformer 748
          17          16           1
SMALL
USER_CHARGES
 
@<TRIPOS>ATOM
       1    C1      21.470072   19.735528   19.530119 C.2        1 MOL1         0.6173
       2    O1      21.083657   19.706682   18.377890 O.co2      1 MOL1        -0.6755
       3    O2      22.647446   19.686641   19.833185 O.co2      1 MOL1        -0.6755
       4    C2      20.439385   19.838580   20.598359 C.2        1 MOL1        -0.1504
       5    H1      19.407066   19.878210   20.258574 H          1 MOL1         0.0814
       6    C3      20.725084   19.877966   21.919876 C.2        1 MOL1        -0.1394
       7    H2      21.756455   19.835068   22.269094 H          1 MOL1         0.0817
       8    C4      19.673401   19.980126   23.005170 C.3        1 MOL1        -0.1849
       9    H3      18.717182   20.321413   22.585758 H          1 MOL1         0.0736
      10    H4      19.979600   20.746267   23.729932 H          1 MOL1         0.0736
      11    C5      19.466055   18.642214   23.748248 C.3        1 MOL1        -0.1866
      12    H5      20.422657   18.298754   24.165869 H          1 MOL1         0.0738
      13    H6      18.792405   18.806232   24.600593 H          1 MOL1         0.0738
      14    C6      18.870583   17.544771   22.840579 C.3        1 MOL1        -0.2879
      15    H7      19.547887   17.306944   22.010066 H          1 MOL1         0.0750
      16    H8      18.700822   16.622293   23.410738 H          1 MOL1         0.0750
      17    H9      17.909122   17.864032   22.417780 H          1 MOL1         0.0750
@<TRIPOS>BOND
    1     1     2    1
    2     1     3    2
    3     1     4    1
    4     4     5    1
    5     4     6    2
    6     6     7    1
    7     6     8    1
    8     8     9    1
    9     8    10    1
   10     8    11    1
   11    11    12    1
   12    11    13    1
   13    11    14    1
   14    14    15    1
   15    14    16    1
   16    14    17    1
@<TRIPOS>SUBSTRUCTURE
       1 MOL1            1 RESIDUE      1      MOL     
@<SCITEGIC>MOL_PROPERTY
VConf Rank
SciTegic.value.IntegerValue
748

@<SCITEGIC>MOL_PROPERTY
Conf_Id
SciTegic.value.IntegerValue
45

@<SCITEGIC>MOL_PROPERTY
Delta U+W
SciTegic.value.DoubleValue
0.562

@<SCITEGIC>MOL_PROPERTY
U+W
SciTegic.value.DoubleValue
-52.846

@<SCITEGIC>MOL_PROPERTY
Grad RMS
SciTegic.value.DoubleValue
0.000000

@<SCITEGIC>MOL_PROPERTY
U
SciTegic.value.DoubleValue
10.243

@<SCITEGIC>MOL_PROPERTY
W
SciTegic.value.DoubleValue
-63.089

@<SCITEGIC>MOL_PROPERTY
W(PB)
SciTegic.value.DoubleValue
-65.116

@<SCITEGIC>MOL_PROPERTY
W(SA)
SciTegic.value.DoubleValue
2.026

@<SCITEGIC>MOL_PROPERTY
Valence
SciTegic.value.DoubleValue
2.822

@<SCITEGIC>MOL_PROPERTY
Coulomb
SciTegic.value.DoubleValue
6.637

@<SCITEGIC>MOL_PROPERTY
VdW
SciTegic.value.DoubleValue
0.785

@<SCITEGIC>MOL_PROPERTY
VdW6
SciTegic.value.DoubleValue
-5.216

@<SCITEGIC>MOL_PROPERTY
VdW12
SciTegic.value.DoubleValue
6.001

@<SCITEGIC>MOL_PROPERTY
Bond
SciTegic.value.DoubleValue
0.080

@<SCITEGIC>MOL_PROPERTY
Angle
SciTegic.value.DoubleValue
2.678

@<SCITEGIC>MOL_PROPERTY
Pdih
SciTegic.value.DoubleValue
0.064

@<SCITEGIC>MOL_PROPERTY
Idih
SciTegic.value.DoubleValue
0.000

@<SCITEGIC>MOL_PROPERTY
Tether
SciTegic.value.DoubleValue
0.000

@<TRIPOS>MOLECULE
guest-s19_confgen4.mol2 : confsearch ligand conformer 749
          17          16           1
SMALL
USER_CHARGES
 
@<TRIPOS>ATOM
       1    C1      18.787617   20.200086   18.954943 C.2        1 MOL1         0.6173
       2    O1      17.770551   20.823073   18.720063 O.co2      1 MOL1        -0.6755
       3    O2      19.445929   19.658465   18.086803 O.co2      1 MOL1        -0.6755
       4    C2      19.227280   20.111244   20.373733 C.2        1 MOL1        -0.1504
       5    H1      18.594381   20.617131   21.099285 H          1 MOL1         0.0814
       6    C3      20.335852   19.451238   20.779373 C.2        1 MOL1        -0.1394
       7    H2      20.975765   18.938956   20.061145 H          1 MOL1         0.0817
       8    C4      20.774805   19.363863   22.224684 C.3        1 MOL1        -0.1849
       9    H3      20.588067   20.319997   22.732371 H          1 MOL1         0.0736
      10    H4      21.858749   19.192438   22.270151 H          1 MOL1         0.0736
      11    C5      20.041091   18.228301   22.967095 C.3        1 MOL1        -0.1866
      12    H5      18.956557   18.400549   22.926150 H          1 MOL1         0.0738
      13    H6      20.231039   17.272797   22.458665 H          1 MOL1         0.0738
      14    C6      20.489890   18.126499   24.438741 C.3        1 MOL1        -0.2879
      15    H7      21.566466   17.922516   24.508072 H          1 MOL1         0.0750
      16    H8      20.282218   19.059907   24.978238 H          1 MOL1         0.0750
      17    H9      19.957495   17.313977   24.950106 H          1 MOL1         0.0750
@<TRIPOS>BOND
    1     1     2    1
    2     1     3    2
    3     1     4    1
    4     4     5    1
    5     4     6    2
    6     6     7    1
    7     6     8    1
    8     8     9    1
    9     8    10    1
   10     8    11    1
   11    11    12    1
   12    11    13    1
   13    11    14    1
   14    14    15    1
   15    14    16    1
   16    14    17    1
@<TRIPOS>SUBSTRUCTURE
       1 MOL1            1 RESIDUE      1      MOL     
@<SCITEGIC>MOL_PROPERTY
VConf Rank
SciTegic.value.IntegerValue
749

@<SCITEGIC>MOL_PROPERTY
Conf_Id
SciTegic.value.IntegerValue
36

@<SCITEGIC>MOL_PROPERTY
Delta U+W
SciTegic.value.DoubleValue
0.000

@<SCITEGIC>MOL_PROPERTY
U+W
SciTegic.value.DoubleValue
-53.409

@<SCITEGIC>MOL_PROPERTY
Grad RMS
SciTegic.value.DoubleValue
0.000000

@<SCITEGIC>MOL_PROPERTY
U
SciTegic.value.DoubleValue
9.048

@<SCITEGIC>MOL_PROPERTY
W
SciTegic.value.DoubleValue
-62.457

@<SCITEGIC>MOL_PROPERTY
W(PB)
SciTegic.value.DoubleValue
-64.540

@<SCITEGIC>MOL_PROPERTY
W(SA)
SciTegic.value.DoubleValue
2.084

@<SCITEGIC>MOL_PROPERTY
Valence
SciTegic.value.DoubleValue
2.652

@<SCITEGIC>MOL_PROPERTY
Coulomb
SciTegic.value.DoubleValue
5.578

@<SCITEGIC>MOL_PROPERTY
VdW
SciTegic.value.DoubleValue
0.818

@<SCITEGIC>MOL_PROPERTY
VdW6
SciTegic.value.DoubleValue
-4.534

@<SCITEGIC>MOL_PROPERTY
VdW12
SciTegic.value.DoubleValue
5.352

@<SCITEGIC>MOL_PROPERTY
Bond
SciTegic.value.DoubleValue
0.063

@<SCITEGIC>MOL_PROPERTY
Angle
SciTegic.value.DoubleValue
2.579

@<SCITEGIC>MOL_PROPERTY
Pdih
SciTegic.value.DoubleValue
0.010

@<SCITEGIC>MOL_PROPERTY
Idih
SciTegic.value.DoubleValue
0.000

@<SCITEGIC>MOL_PROPERTY
Tether
SciTegic.value.DoubleValue
0.000

@<TRIPOS>MOLECULE
guest-s19_confgen4.mol2 : confsearch ligand conformer 750
          17          16           1
SMALL
USER_CHARGES
 
@<TRIPOS>ATOM
       1    C1      16.802744   19.595562   22.815026 C.2        1 MOL1         0.6173
       2    O1      16.686943   20.781519   23.060968 O.co2      1 MOL1        -0.6755
       3    O2      15.941117   18.779607   23.078695 O.co2      1 MOL1        -0.6755
       4    C2      18.043788   19.098251   22.161837 C.2        1 MOL1        -0.1504
       5    H1      18.083093   18.028432   21.969866 H          1 MOL1         0.0814
       6    C3      19.082435   19.891609   21.814156 C.2        1 MOL1        -0.1394
       7    H2      19.054480   20.964458   22.003860 H          1 MOL1         0.0817
       8    C4      20.341895   19.377498   21.151822 C.3        1 MOL1        -0.1849
       9    H3      20.815738   20.188795   20.582913 H          1 MOL1         0.0736
      10    H4      20.090735   18.592112   20.425947 H          1 MOL1         0.0736
      11    C5      21.338599   18.825807   22.191648 C.3        1 MOL1        -0.1866
      12    H5      21.589925   19.613740   22.915225 H          1 MOL1         0.0738
      13    H6      20.867415   18.011164   22.759013 H          1 MOL1         0.0738
      14    C6      22.629129   18.308197   21.525212 C.3        1 MOL1        -0.2879
      15    H7      23.137673   19.111813   20.976564 H          1 MOL1         0.0750
      16    H8      23.325348   17.920090   22.280051 H          1 MOL1         0.0750
      17    H9      22.408434   17.497079   20.818942 H          1 MOL1         0.0750
@<TRIPOS>BOND
    1     1     2    1
    2     1     3    2
    3     1     4    1
    4     4     5    1
    5     4     6    2
    6     6     7    1
    7     6     8    1
    8     8     9    1
    9     8    10    1
   10     8    11    1
   11    11    12    1
   12    11    13    1
   13    11    14    1
   14    14    15    1
   15    14    16    1
   16    14    17    1
@<TRIPOS>SUBSTRUCTURE
       1 MOL1            1 RESIDUE      1      MOL     
@<SCITEGIC>MOL_PROPERTY
VConf Rank
SciTegic.value.IntegerValue
750

@<SCITEGIC>MOL_PROPERTY
Conf_Id
SciTegic.value.IntegerValue
1

@<SCITEGIC>MOL_PROPERTY
Delta U+W
SciTegic.value.DoubleValue
0.030

@<SCITEGIC>MOL_PROPERTY
U+W
SciTegic.value.DoubleValue
-53.378

@<SCITEGIC>MOL_PROPERTY
Grad RMS
SciTegic.value.DoubleValue
0.000000

@<SCITEGIC>MOL_PROPERTY
U
SciTegic.value.DoubleValue
9.048

@<SCITEGIC>MOL_PROPERTY
W
SciTegic.value.DoubleValue
-62.426

@<SCITEGIC>MOL_PROPERTY
W(PB)
SciTegic.value.DoubleValue
-64.506

@<SCITEGIC>MOL_PROPERTY
W(SA)
SciTegic.value.DoubleValue
2.080

@<SCITEGIC>MOL_PROPERTY
Valence
SciTegic.value.DoubleValue
2.652

@<SCITEGIC>MOL_PROPERTY
Coulomb
SciTegic.value.DoubleValue
5.578

@<SCITEGIC>MOL_PROPERTY
VdW
SciTegic.value.DoubleValue
0.818

@<SCITEGIC>MOL_PROPERTY
VdW6
SciTegic.value.DoubleValue
-4.535

@<SCITEGIC>MOL_PROPERTY
VdW12
SciTegic.value.DoubleValue
5.352

@<SCITEGIC>MOL_PROPERTY
Bond
SciTegic.value.DoubleValue
0.063

@<SCITEGIC>MOL_PROPERTY
Angle
SciTegic.value.DoubleValue
2.579

@<SCITEGIC>MOL_PROPERTY
Pdih
SciTegic.value.DoubleValue
0.010

@<SCITEGIC>MOL_PROPERTY
Idih
SciTegic.value.DoubleValue
0.000

@<SCITEGIC>MOL_PROPERTY
Tether
SciTegic.value.DoubleValue
0.000

@<TRIPOS>MOLECULE
guest-s19_confgen4.mol2 : confsearch ligand conformer 751
          17          16           1
SMALL
USER_CHARGES
 
@<TRIPOS>ATOM
       1    C1      17.590529   18.134833   20.405278 C.2        1 MOL1         0.6173
       2    O1      16.697547   18.753145   20.953653 O.co2      1 MOL1        -0.6755
       3    O2      17.455985   17.605124   19.319406 O.co2      1 MOL1        -0.6755
       4    C2      18.913113   18.004375   21.074489 C.2        1 MOL1        -0.1504
       5    H1      19.666400   17.438742   20.531001 H          1 MOL1         0.0814
       6    C3      19.203729   18.542442   22.280727 C.2        1 MOL1        -0.1394
       7    H2      18.457553   19.113878   22.832342 H          1 MOL1         0.0817
       8    C4      20.553518   18.408760   22.953938 C.3        1 MOL1        -0.1849
       9    H3      20.937099   17.389481   22.810890 H          1 MOL1         0.0736
      10    H4      20.444588   18.545506   24.038248 H          1 MOL1         0.0736
      11    C5      21.585579   19.419418   22.407145 C.3        1 MOL1        -0.1866
      12    H5      22.567112   19.207158   22.852893 H          1 MOL1         0.0738
      13    H6      21.697669   19.284182   21.322445 H          1 MOL1         0.0738
      14    C6      21.199109   20.882553   22.711428 C.3        1 MOL1        -0.2879
      15    H7      21.093802   21.044281   23.792122 H          1 MOL1         0.0750
      16    H8      21.969267   21.570472   22.339229 H          1 MOL1         0.0750
      17    H9      20.248957   21.149450   22.230598 H          1 MOL1         0.0750
@<TRIPOS>BOND
    1     1     2    1
    2     1     3    2
    3     1     4    1
    4     4     5    1
    5     4     6    2
    6     6     7    1
    7     6     8    1
    8     8     9    1
    9     8    10    1
   10     8    11    1
   11    11    12    1
   12    11    13    1
   13    11    14    1
   14    14    15    1
   15    14    16    1
   16    14    17    1
@<TRIPOS>SUBSTRUCTURE
       1 MOL1            1 RESIDUE      1      MOL     
@<SCITEGIC>MOL_PROPERTY
VConf Rank
SciTegic.value.IntegerValue
751

@<SCITEGIC>MOL_PROPERTY
Conf_Id
SciTegic.value.IntegerValue
3

@<SCITEGIC>MOL_PROPERTY
Delta U+W
SciTegic.value.DoubleValue
0.531

@<SCITEGIC>MOL_PROPERTY
U+W
SciTegic.value.DoubleValue
-52.878

@<SCITEGIC>MOL_PROPERTY
Grad RMS
SciTegic.value.DoubleValue
0.000000

@<SCITEGIC>MOL_PROPERTY
U
SciTegic.value.DoubleValue
10.067

@<SCITEGIC>MOL_PROPERTY
W
SciTegic.value.DoubleValue
-62.945

@<SCITEGIC>MOL_PROPERTY
W(PB)
SciTegic.value.DoubleValue
-64.982

@<SCITEGIC>MOL_PROPERTY
W(SA)
SciTegic.value.DoubleValue
2.037

@<SCITEGIC>MOL_PROPERTY
Valence
SciTegic.value.DoubleValue
2.779

@<SCITEGIC>MOL_PROPERTY
Coulomb
SciTegic.value.DoubleValue
6.474

@<SCITEGIC>MOL_PROPERTY
VdW
SciTegic.value.DoubleValue
0.815

@<SCITEGIC>MOL_PROPERTY
VdW6
SciTegic.value.DoubleValue
-5.088

@<SCITEGIC>MOL_PROPERTY
VdW12
SciTegic.value.DoubleValue
5.902

@<SCITEGIC>MOL_PROPERTY
Bond
SciTegic.value.DoubleValue
0.078

@<SCITEGIC>MOL_PROPERTY
Angle
SciTegic.value.DoubleValue
2.651

@<SCITEGIC>MOL_PROPERTY
Pdih
SciTegic.value.DoubleValue
0.050

@<SCITEGIC>MOL_PROPERTY
Idih
SciTegic.value.DoubleValue
0.000

@<SCITEGIC>MOL_PROPERTY
Tether
SciTegic.value.DoubleValue
0.000

@<TRIPOS>MOLECULE
guest-s19_confgen4.mol2 : confsearch ligand conformer 752
          17          16           1
SMALL
USER_CHARGES
 
@<TRIPOS>ATOM
       1    C1      19.200346   16.999032   24.102179 C.2        1 MOL1         0.6173
       2    O1      18.424664   17.072243   25.035312 O.co2      1 MOL1        -0.6755
       3    O2      20.075672   16.156521   24.035638 O.co2      1 MOL1        -0.6755
       4    C2      19.050564   17.992181   23.004320 C.2        1 MOL1        -0.1504
       5    H1      18.248772   18.716635   23.126809 H          1 MOL1         0.0814
       6    C3      19.843190   18.029853   21.908917 C.2        1 MOL1        -0.1394
       7    H2      20.651149   17.310054   21.780036 H          1 MOL1         0.0817
       8    C4      19.689961   19.043905   20.794217 C.3        1 MOL1        -0.1849
       9    H3      18.700806   19.519720   20.837949 H          1 MOL1         0.0736
      10    H4      19.736140   18.524042   19.827977 H          1 MOL1         0.0736
      11    C5      20.789346   20.127895   20.832724 C.3        1 MOL1        -0.1866
      12    H5      21.779238   19.652618   20.791683 H          1 MOL1         0.0738
      13    H6      20.705270   20.755757   19.934995 H          1 MOL1         0.0738
      14    C6      20.694687   21.025625   22.084903 C.3        1 MOL1        -0.2879
      15    H7      20.838912   20.441402   23.003018 H          1 MOL1         0.0750
      16    H8      21.465282   21.806892   22.058961 H          1 MOL1         0.0750
      17    H9      19.714880   21.517345   22.142191 H          1 MOL1         0.0750
@<TRIPOS>BOND
    1     1     2    1
    2     1     3    2
    3     1     4    1
    4     4     5    1
    5     4     6    2
    6     6     7    1
    7     6     8    1
    8     8     9    1
    9     8    10    1
   10     8    11    1
   11    11    12    1
   12    11    13    1
   13    11    14    1
   14    14    15    1
   15    14    16    1
   16    14    17    1
@<TRIPOS>SUBSTRUCTURE
       1 MOL1            1 RESIDUE      1      MOL     
@<SCITEGIC>MOL_PROPERTY
VConf Rank
SciTegic.value.IntegerValue
752

@<SCITEGIC>MOL_PROPERTY
Conf_Id
SciTegic.value.IntegerValue
45

@<SCITEGIC>MOL_PROPERTY
Delta U+W
SciTegic.value.DoubleValue
0.562

@<SCITEGIC>MOL_PROPERTY
U+W
SciTegic.value.DoubleValue
-52.846

@<SCITEGIC>MOL_PROPERTY
Grad RMS
SciTegic.value.DoubleValue
0.000000

@<SCITEGIC>MOL_PROPERTY
U
SciTegic.value.DoubleValue
10.243

@<SCITEGIC>MOL_PROPERTY
W
SciTegic.value.DoubleValue
-63.089

@<SCITEGIC>MOL_PROPERTY
W(PB)
SciTegic.value.DoubleValue
-65.116

@<SCITEGIC>MOL_PROPERTY
W(SA)
SciTegic.value.DoubleValue
2.026

@<SCITEGIC>MOL_PROPERTY
Valence
SciTegic.value.DoubleValue
2.822

@<SCITEGIC>MOL_PROPERTY
Coulomb
SciTegic.value.DoubleValue
6.637

@<SCITEGIC>MOL_PROPERTY
VdW
SciTegic.value.DoubleValue
0.785

@<SCITEGIC>MOL_PROPERTY
VdW6
SciTegic.value.DoubleValue
-5.216

@<SCITEGIC>MOL_PROPERTY
VdW12
SciTegic.value.DoubleValue
6.001

@<SCITEGIC>MOL_PROPERTY
Bond
SciTegic.value.DoubleValue
0.080

@<SCITEGIC>MOL_PROPERTY
Angle
SciTegic.value.DoubleValue
2.678

@<SCITEGIC>MOL_PROPERTY
Pdih
SciTegic.value.DoubleValue
0.064

@<SCITEGIC>MOL_PROPERTY
Idih
SciTegic.value.DoubleValue
0.000

@<SCITEGIC>MOL_PROPERTY
Tether
SciTegic.value.DoubleValue
0.000

@<TRIPOS>MOLECULE
guest-s19_confgen4.mol2 : confsearch ligand conformer 753
          17          16           1
SMALL
USER_CHARGES
 
@<TRIPOS>ATOM
       1    C1      19.913828   22.272042   23.105926 C.2        1 MOL1         0.6173
       2    O1      18.976518   23.042292   23.182530 O.co2      1 MOL1        -0.6755
       3    O2      21.069660   22.620986   23.256540 O.co2      1 MOL1        -0.6755
       4    C2      19.608916   20.844808   22.815768 C.2        1 MOL1        -0.1504
       5    H1      18.556433   20.599947   22.692350 H          1 MOL1         0.0814
       6    C3      20.550749   19.880927   22.701879 C.2        1 MOL1        -0.1394
       7    H2      21.608293   20.115678   22.821313 H          1 MOL1         0.0817
       8    C4      20.232322   18.432008   22.404433 C.3        1 MOL1        -0.1849
       9    H3      19.318126   18.131907   22.934522 H          1 MOL1         0.0736
      10    H4      21.039262   17.792189   22.786358 H          1 MOL1         0.0736
      11    C5      20.057955   18.194372   20.890452 C.3        1 MOL1        -0.1866
      12    H5      19.248063   18.830764   20.507518 H          1 MOL1         0.0738
      13    H6      20.974283   18.493333   20.362689 H          1 MOL1         0.0738
      14    C6      19.742425   16.717763   20.578055 C.3        1 MOL1        -0.2879
      15    H7      20.552364   16.061436   20.922532 H          1 MOL1         0.0750
      16    H8      18.812750   16.402224   21.069560 H          1 MOL1         0.0750
      17    H9      19.621806   16.568360   19.497193 H          1 MOL1         0.0750
@<TRIPOS>BOND
    1     1     2    1
    2     1     3    2
    3     1     4    1
    4     4     5    1
    5     4     6    2
    6     6     7    1
    7     6     8    1
    8     8     9    1
    9     8    10    1
   10     8    11    1
   11    11    12    1
   12    11    13    1
   13    11    14    1
   14    14    15    1
   15    14    16    1
   16    14    17    1
@<TRIPOS>SUBSTRUCTURE
       1 MOL1            1 RESIDUE      1      MOL     
@<SCITEGIC>MOL_PROPERTY
VConf Rank
SciTegic.value.IntegerValue
753

@<SCITEGIC>MOL_PROPERTY
Conf_Id
SciTegic.value.IntegerValue
36

@<SCITEGIC>MOL_PROPERTY
Delta U+W
SciTegic.value.DoubleValue
0.000

@<SCITEGIC>MOL_PROPERTY
U+W
SciTegic.value.DoubleValue
-53.409

@<SCITEGIC>MOL_PROPERTY
Grad RMS
SciTegic.value.DoubleValue
0.000000

@<SCITEGIC>MOL_PROPERTY
U
SciTegic.value.DoubleValue
9.048

@<SCITEGIC>MOL_PROPERTY
W
SciTegic.value.DoubleValue
-62.457

@<SCITEGIC>MOL_PROPERTY
W(PB)
SciTegic.value.DoubleValue
-64.540

@<SCITEGIC>MOL_PROPERTY
W(SA)
SciTegic.value.DoubleValue
2.084

@<SCITEGIC>MOL_PROPERTY
Valence
SciTegic.value.DoubleValue
2.652

@<SCITEGIC>MOL_PROPERTY
Coulomb
SciTegic.value.DoubleValue
5.578

@<SCITEGIC>MOL_PROPERTY
VdW
SciTegic.value.DoubleValue
0.818

@<SCITEGIC>MOL_PROPERTY
VdW6
SciTegic.value.DoubleValue
-4.534

@<SCITEGIC>MOL_PROPERTY
VdW12
SciTegic.value.DoubleValue
5.352

@<SCITEGIC>MOL_PROPERTY
Bond
SciTegic.value.DoubleValue
0.063

@<SCITEGIC>MOL_PROPERTY
Angle
SciTegic.value.DoubleValue
2.579

@<SCITEGIC>MOL_PROPERTY
Pdih
SciTegic.value.DoubleValue
0.010

@<SCITEGIC>MOL_PROPERTY
Idih
SciTegic.value.DoubleValue
0.000

@<SCITEGIC>MOL_PROPERTY
Tether
SciTegic.value.DoubleValue
0.000

@<TRIPOS>MOLECULE
guest-s19_confgen4.mol2 : confsearch ligand conformer 754
          17          16           1
SMALL
USER_CHARGES
 
@<TRIPOS>ATOM
       1    C1      23.081420   20.066525   22.924468 C.2        1 MOL1         0.6173
       2    O1      23.759971   20.190874   21.922221 O.co2      1 MOL1        -0.6755
       3    O2      23.549762   20.091817   24.045950 O.co2      1 MOL1        -0.6755
       4    C2      21.611217   19.875344   22.797523 C.2        1 MOL1        -0.1504
       5    H1      21.063807   19.770909   23.731517 H          1 MOL1         0.0814
       6    C3      20.956854   19.826207   21.614949 C.2        1 MOL1        -0.1394
       7    H2      21.495782   19.927536   20.673109 H          1 MOL1         0.0817
       8    C4      19.461502   19.629576   21.494554 C.3        1 MOL1        -0.1849
       9    H3      19.110322   20.052352   20.543596 H          1 MOL1         0.0736
      10    H4      18.944777   20.181371   22.291627 H          1 MOL1         0.0736
      11    C5      19.083567   18.135905   21.566172 C.3        1 MOL1        -0.1866
      12    H5      19.599885   17.586527   20.766693 H          1 MOL1         0.0738
      13    H6      19.430636   17.712318   22.518893 H          1 MOL1         0.0738
      14    C6      17.561606   17.926315   21.434891 C.3        1 MOL1        -0.2879
      15    H7      17.192935   18.313026   20.475743 H          1 MOL1         0.0750
      16    H8      17.312247   16.858549   21.488049 H          1 MOL1         0.0750
      17    H9      17.023202   18.440584   22.241788 H          1 MOL1         0.0750
@<TRIPOS>BOND
    1     1     2    1
    2     1     3    2
    3     1     4    1
    4     4     5    1
    5     4     6    2
    6     6     7    1
    7     6     8    1
    8     8     9    1
    9     8    10    1
   10     8    11    1
   11    11    12    1
   12    11    13    1
   13    11    14    1
   14    14    15    1
   15    14    16    1
   16    14    17    1
@<TRIPOS>SUBSTRUCTURE
       1 MOL1            1 RESIDUE      1      MOL     
@<SCITEGIC>MOL_PROPERTY
VConf Rank
SciTegic.value.IntegerValue
754

@<SCITEGIC>MOL_PROPERTY
Conf_Id
SciTegic.value.IntegerValue
1

@<SCITEGIC>MOL_PROPERTY
Delta U+W
SciTegic.value.DoubleValue
0.030

@<SCITEGIC>MOL_PROPERTY
U+W
SciTegic.value.DoubleValue
-53.378

@<SCITEGIC>MOL_PROPERTY
Grad RMS
SciTegic.value.DoubleValue
0.000000

@<SCITEGIC>MOL_PROPERTY
U
SciTegic.value.DoubleValue
9.048

@<SCITEGIC>MOL_PROPERTY
W
SciTegic.value.DoubleValue
-62.426

@<SCITEGIC>MOL_PROPERTY
W(PB)
SciTegic.value.DoubleValue
-64.506

@<SCITEGIC>MOL_PROPERTY
W(SA)
SciTegic.value.DoubleValue
2.080

@<SCITEGIC>MOL_PROPERTY
Valence
SciTegic.value.DoubleValue
2.652

@<SCITEGIC>MOL_PROPERTY
Coulomb
SciTegic.value.DoubleValue
5.578

@<SCITEGIC>MOL_PROPERTY
VdW
SciTegic.value.DoubleValue
0.818

@<SCITEGIC>MOL_PROPERTY
VdW6
SciTegic.value.DoubleValue
-4.535

@<SCITEGIC>MOL_PROPERTY
VdW12
SciTegic.value.DoubleValue
5.352

@<SCITEGIC>MOL_PROPERTY
Bond
SciTegic.value.DoubleValue
0.063

@<SCITEGIC>MOL_PROPERTY
Angle
SciTegic.value.DoubleValue
2.579

@<SCITEGIC>MOL_PROPERTY
Pdih
SciTegic.value.DoubleValue
0.010

@<SCITEGIC>MOL_PROPERTY
Idih
SciTegic.value.DoubleValue
0.000

@<SCITEGIC>MOL_PROPERTY
Tether
SciTegic.value.DoubleValue
0.000

@<TRIPOS>MOLECULE
guest-s19_confgen4.mol2 : confsearch ligand conformer 755
          17          16           1
SMALL
USER_CHARGES
 
@<TRIPOS>ATOM
       1    C1      20.962810   21.878676   21.146917 C.2        1 MOL1         0.6173
       2    O1      20.397160   22.577679   21.966596 O.co2      1 MOL1        -0.6755
       3    O2      21.875674   22.282475   20.453060 O.co2      1 MOL1        -0.6755
       4    C2      20.534345   20.465390   20.964896 C.2        1 MOL1        -0.1504
       5    H1      21.080422   19.896489   20.215955 H          1 MOL1         0.0814
       6    C3      19.535903   19.884080   21.667874 C.2        1 MOL1        -0.1394
       7    H2      18.984482   20.443840   22.422991 H          1 MOL1         0.0817
       8    C4      19.107909   18.443777   21.479824 C.3        1 MOL1        -0.1849
       9    H3      19.109308   18.195855   20.409750 H          1 MOL1         0.0736
      10    H4      18.072487   18.314660   21.822639 H          1 MOL1         0.0736
      11    C5      20.027239   17.454857   22.229778 C.3        1 MOL1        -0.1866
      12    H5      19.734855   16.427366   21.973013 H          1 MOL1         0.0738
      13    H6      21.063920   17.580833   21.887946 H          1 MOL1         0.0738
      14    C6      19.960048   17.630547   23.761878 C.3        1 MOL1        -0.2879
      15    H7      18.933823   17.496279   24.127912 H          1 MOL1         0.0750
      16    H8      20.598189   16.891504   24.263374 H          1 MOL1         0.0750
      17    H9      20.302981   18.629491   24.061428 H          1 MOL1         0.0750
@<TRIPOS>BOND
    1     1     2    1
    2     1     3    2
    3     1     4    1
    4     4     5    1
    5     4     6    2
    6     6     7    1
    7     6     8    1
    8     8     9    1
    9     8    10    1
   10     8    11    1
   11    11    12    1
   12    11    13    1
   13    11    14    1
   14    14    15    1
   15    14    16    1
   16    14    17    1
@<TRIPOS>SUBSTRUCTURE
       1 MOL1            1 RESIDUE      1      MOL     
@<SCITEGIC>MOL_PROPERTY
VConf Rank
SciTegic.value.IntegerValue
755

@<SCITEGIC>MOL_PROPERTY
Conf_Id
SciTegic.value.IntegerValue
3

@<SCITEGIC>MOL_PROPERTY
Delta U+W
SciTegic.value.DoubleValue
0.531

@<SCITEGIC>MOL_PROPERTY
U+W
SciTegic.value.DoubleValue
-52.878

@<SCITEGIC>MOL_PROPERTY
Grad RMS
SciTegic.value.DoubleValue
0.000000

@<SCITEGIC>MOL_PROPERTY
U
SciTegic.value.DoubleValue
10.067

@<SCITEGIC>MOL_PROPERTY
W
SciTegic.value.DoubleValue
-62.945

@<SCITEGIC>MOL_PROPERTY
W(PB)
SciTegic.value.DoubleValue
-64.982

@<SCITEGIC>MOL_PROPERTY
W(SA)
SciTegic.value.DoubleValue
2.037

@<SCITEGIC>MOL_PROPERTY
Valence
SciTegic.value.DoubleValue
2.779

@<SCITEGIC>MOL_PROPERTY
Coulomb
SciTegic.value.DoubleValue
6.474

@<SCITEGIC>MOL_PROPERTY
VdW
SciTegic.value.DoubleValue
0.815

@<SCITEGIC>MOL_PROPERTY
VdW6
SciTegic.value.DoubleValue
-5.088

@<SCITEGIC>MOL_PROPERTY
VdW12
SciTegic.value.DoubleValue
5.902

@<SCITEGIC>MOL_PROPERTY
Bond
SciTegic.value.DoubleValue
0.078

@<SCITEGIC>MOL_PROPERTY
Angle
SciTegic.value.DoubleValue
2.651

@<SCITEGIC>MOL_PROPERTY
Pdih
SciTegic.value.DoubleValue
0.050

@<SCITEGIC>MOL_PROPERTY
Idih
SciTegic.value.DoubleValue
0.000

@<SCITEGIC>MOL_PROPERTY
Tether
SciTegic.value.DoubleValue
0.000

@<TRIPOS>MOLECULE
guest-s19_confgen4.mol2 : confsearch ligand conformer 756
          17          16           1
SMALL
USER_CHARGES
 
@<TRIPOS>ATOM
       1    C1      17.194207   18.328610   22.959793 C.2        1 MOL1         0.6173
       2    O1      16.290146   19.029496   23.371149 O.co2      1 MOL1        -0.6755
       3    O2      17.249124   17.131271   23.169100 O.co2      1 MOL1        -0.6755
       4    C2      18.266897   18.986281   22.165515 C.2        1 MOL1        -0.1504
       5    H1      18.156453   20.057777   22.015831 H          1 MOL1         0.0814
       6    C3      19.331480   18.330985   21.648955 C.2        1 MOL1        -0.1394
       7    H2      19.451767   17.258119   21.797306 H          1 MOL1         0.0817
       8    C4      20.423368   19.003801   20.843080 C.3        1 MOL1        -0.1849
       9    H3      20.088099   19.985726   20.482304 H          1 MOL1         0.0736
      10    H4      20.629108   18.403319   19.946920 H          1 MOL1         0.0736
      11    C5      21.731134   19.165753   21.648489 C.3        1 MOL1        -0.1866
      12    H5      22.065803   18.184269   22.012007 H          1 MOL1         0.0738
      13    H6      22.519743   19.538504   20.980394 H          1 MOL1         0.0738
      14    C6      21.579395   20.137285   22.838418 C.3        1 MOL1        -0.2879
      15    H7      20.843485   19.764645   23.562732 H          1 MOL1         0.0750
      16    H8      22.536117   20.257790   23.362850 H          1 MOL1         0.0750
      17    H9      21.252554   21.128089   22.496988 H          1 MOL1         0.0750
@<TRIPOS>BOND
    1     1     2    1
    2     1     3    2
    3     1     4    1
    4     4     5    1
    5     4     6    2
    6     6     7    1
    7     6     8    1
    8     8     9    1
    9     8    10    1
   10     8    11    1
   11    11    12    1
   12    11    13    1
   13    11    14    1
   14    14    15    1
   15    14    16    1
   16    14    17    1
@<TRIPOS>SUBSTRUCTURE
       1 MOL1            1 RESIDUE      1      MOL     
@<SCITEGIC>MOL_PROPERTY
VConf Rank
SciTegic.value.IntegerValue
756

@<SCITEGIC>MOL_PROPERTY
Conf_Id
SciTegic.value.IntegerValue
45

@<SCITEGIC>MOL_PROPERTY
Delta U+W
SciTegic.value.DoubleValue
0.562

@<SCITEGIC>MOL_PROPERTY
U+W
SciTegic.value.DoubleValue
-52.846

@<SCITEGIC>MOL_PROPERTY
Grad RMS
SciTegic.value.DoubleValue
0.000000

@<SCITEGIC>MOL_PROPERTY
U
SciTegic.value.DoubleValue
10.243

@<SCITEGIC>MOL_PROPERTY
W
SciTegic.value.DoubleValue
-63.089

@<SCITEGIC>MOL_PROPERTY
W(PB)
SciTegic.value.DoubleValue
-65.116

@<SCITEGIC>MOL_PROPERTY
W(SA)
SciTegic.value.DoubleValue
2.026

@<SCITEGIC>MOL_PROPERTY
Valence
SciTegic.value.DoubleValue
2.822

@<SCITEGIC>MOL_PROPERTY
Coulomb
SciTegic.value.DoubleValue
6.637

@<SCITEGIC>MOL_PROPERTY
VdW
SciTegic.value.DoubleValue
0.785

@<SCITEGIC>MOL_PROPERTY
VdW6
SciTegic.value.DoubleValue
-5.216

@<SCITEGIC>MOL_PROPERTY
VdW12
SciTegic.value.DoubleValue
6.001

@<SCITEGIC>MOL_PROPERTY
Bond
SciTegic.value.DoubleValue
0.080

@<SCITEGIC>MOL_PROPERTY
Angle
SciTegic.value.DoubleValue
2.678

@<SCITEGIC>MOL_PROPERTY
Pdih
SciTegic.value.DoubleValue
0.064

@<SCITEGIC>MOL_PROPERTY
Idih
SciTegic.value.DoubleValue
0.000

@<SCITEGIC>MOL_PROPERTY
Tether
SciTegic.value.DoubleValue
0.000

@<TRIPOS>MOLECULE
guest-s19_confgen4.mol2 : confsearch ligand conformer 757
          17          16           1
SMALL
USER_CHARGES
 
@<TRIPOS>ATOM
       1    C1      22.411956   20.314480   23.937156 C.2        1 MOL1         0.6173
       2    O1      22.996315   19.761317   24.848330 O.co2      1 MOL1        -0.6755
       3    O2      22.464083   21.515849   23.751715 O.co2      1 MOL1        -0.6755
       4    C2      21.605157   19.463775   23.020892 C.2        1 MOL1        -0.1504
       5    H1      21.601031   18.398965   23.242410 H          1 MOL1         0.0814
       6    C3      20.904036   19.943666   21.968647 C.2        1 MOL1        -0.1394
       7    H2      20.899309   21.009050   21.739067 H          1 MOL1         0.0817
       8    C4      20.084210   19.071844   21.042877 C.3        1 MOL1        -0.1849
       9    H3      20.604758   18.121278   20.863256 H          1 MOL1         0.0736
      10    H4      19.985799   19.563681   20.065739 H          1 MOL1         0.0736
      11    C5      18.682892   18.795965   21.625296 C.3        1 MOL1        -0.1866
      12    H5      18.779534   18.300044   22.601146 H          1 MOL1         0.0738
      13    H6      18.163482   19.748068   21.802160 H          1 MOL1         0.0738
      14    C6      17.837445   17.915592   20.683123 C.3        1 MOL1        -0.2879
      15    H7      17.698360   18.403094   19.709250 H          1 MOL1         0.0750
      16    H8      18.320456   16.944144   20.514527 H          1 MOL1         0.0750
      17    H9      16.844928   17.730225   21.114029 H          1 MOL1         0.0750
@<TRIPOS>BOND
    1     1     2    1
    2     1     3    2
    3     1     4    1
    4     4     5    1
    5     4     6    2
    6     6     7    1
    7     6     8    1
    8     8     9    1
    9     8    10    1
   10     8    11    1
   11    11    12    1
   12    11    13    1
   13    11    14    1
   14    14    15    1
   15    14    16    1
   16    14    17    1
@<TRIPOS>SUBSTRUCTURE
       1 MOL1            1 RESIDUE      1      MOL     
@<SCITEGIC>MOL_PROPERTY
VConf Rank
SciTegic.value.IntegerValue
757

@<SCITEGIC>MOL_PROPERTY
Conf_Id
SciTegic.value.IntegerValue
36

@<SCITEGIC>MOL_PROPERTY
Delta U+W
SciTegic.value.DoubleValue
0.000

@<SCITEGIC>MOL_PROPERTY
U+W
SciTegic.value.DoubleValue
-53.409

@<SCITEGIC>MOL_PROPERTY
Grad RMS
SciTegic.value.DoubleValue
0.000000

@<SCITEGIC>MOL_PROPERTY
U
SciTegic.value.DoubleValue
9.048

@<SCITEGIC>MOL_PROPERTY
W
SciTegic.value.DoubleValue
-62.457

@<SCITEGIC>MOL_PROPERTY
W(PB)
SciTegic.value.DoubleValue
-64.540

@<SCITEGIC>MOL_PROPERTY
W(SA)
SciTegic.value.DoubleValue
2.084

@<SCITEGIC>MOL_PROPERTY
Valence
SciTegic.value.DoubleValue
2.652

@<SCITEGIC>MOL_PROPERTY
Coulomb
SciTegic.value.DoubleValue
5.578

@<SCITEGIC>MOL_PROPERTY
VdW
SciTegic.value.DoubleValue
0.818

@<SCITEGIC>MOL_PROPERTY
VdW6
SciTegic.value.DoubleValue
-4.534

@<SCITEGIC>MOL_PROPERTY
VdW12
SciTegic.value.DoubleValue
5.352

@<SCITEGIC>MOL_PROPERTY
Bond
SciTegic.value.DoubleValue
0.063

@<SCITEGIC>MOL_PROPERTY
Angle
SciTegic.value.DoubleValue
2.579

@<SCITEGIC>MOL_PROPERTY
Pdih
SciTegic.value.DoubleValue
0.010

@<SCITEGIC>MOL_PROPERTY
Idih
SciTegic.value.DoubleValue
0.000

@<SCITEGIC>MOL_PROPERTY
Tether
SciTegic.value.DoubleValue
0.000

@<TRIPOS>MOLECULE
guest-s19_confgen4.mol2 : confsearch ligand conformer 758
          17          16           1
SMALL
USER_CHARGES
 
@<TRIPOS>ATOM
       1    C1      22.853667   17.365017   22.485847 C.2        1 MOL1         0.6173
       2    O1      23.777156   18.140275   22.322943 O.co2      1 MOL1        -0.6755
       3    O2      23.012525   16.166481   22.612258 O.co2      1 MOL1        -0.6755
       4    C2      21.459691   17.883019   22.537503 C.2        1 MOL1        -0.1504
       5    H1      20.681589   17.137661   22.685515 H          1 MOL1         0.0814
       6    C3      21.136093   19.190023   22.410572 C.2        1 MOL1        -0.1394
       7    H2      21.907551   19.944925   22.259746 H          1 MOL1         0.0817
       8    C4      19.715566   19.708341   22.462427 C.3        1 MOL1        -0.1849
       9    H3      19.719170   20.760268   22.778376 H          1 MOL1         0.0736
      10    H4      19.141882   19.156603   23.219578 H          1 MOL1         0.0736
      11    C5      19.021539   19.583855   21.090623 C.3        1 MOL1        -0.1866
      12    H5      19.595975   20.138265   20.335494 H          1 MOL1         0.0738
      13    H6      19.013435   18.531328   20.774898 H          1 MOL1         0.0738
      14    C6      17.575958   20.118686   21.132783 C.3        1 MOL1        -0.2879
      15    H7      17.557465   21.179434   21.415450 H          1 MOL1         0.0750
      16    H8      17.098937   20.021911   20.148803 H          1 MOL1         0.0750
      17    H9      16.971292   19.559642   21.858927 H          1 MOL1         0.0750
@<TRIPOS>BOND
    1     1     2    1
    2     1     3    2
    3     1     4    1
    4     4     5    1
    5     4     6    2
    6     6     7    1
    7     6     8    1
    8     8     9    1
    9     8    10    1
   10     8    11    1
   11    11    12    1
   12    11    13    1
   13    11    14    1
   14    14    15    1
   15    14    16    1
   16    14    17    1
@<TRIPOS>SUBSTRUCTURE
       1 MOL1            1 RESIDUE      1      MOL     
@<SCITEGIC>MOL_PROPERTY
VConf Rank
SciTegic.value.IntegerValue
758

@<SCITEGIC>MOL_PROPERTY
Conf_Id
SciTegic.value.IntegerValue
1

@<SCITEGIC>MOL_PROPERTY
Delta U+W
SciTegic.value.DoubleValue
0.030

@<SCITEGIC>MOL_PROPERTY
U+W
SciTegic.value.DoubleValue
-53.378

@<SCITEGIC>MOL_PROPERTY
Grad RMS
SciTegic.value.DoubleValue
0.000000

@<SCITEGIC>MOL_PROPERTY
U
SciTegic.value.DoubleValue
9.048

@<SCITEGIC>MOL_PROPERTY
W
SciTegic.value.DoubleValue
-62.426

@<SCITEGIC>MOL_PROPERTY
W(PB)
SciTegic.value.DoubleValue
-64.506

@<SCITEGIC>MOL_PROPERTY
W(SA)
SciTegic.value.DoubleValue
2.080

@<SCITEGIC>MOL_PROPERTY
Valence
SciTegic.value.DoubleValue
2.652

@<SCITEGIC>MOL_PROPERTY
Coulomb
SciTegic.value.DoubleValue
5.578

@<SCITEGIC>MOL_PROPERTY
VdW
SciTegic.value.DoubleValue
0.818

@<SCITEGIC>MOL_PROPERTY
VdW6
SciTegic.value.DoubleValue
-4.535

@<SCITEGIC>MOL_PROPERTY
VdW12
SciTegic.value.DoubleValue
5.352

@<SCITEGIC>MOL_PROPERTY
Bond
SciTegic.value.DoubleValue
0.063

@<SCITEGIC>MOL_PROPERTY
Angle
SciTegic.value.DoubleValue
2.579

@<SCITEGIC>MOL_PROPERTY
Pdih
SciTegic.value.DoubleValue
0.010

@<SCITEGIC>MOL_PROPERTY
Idih
SciTegic.value.DoubleValue
0.000

@<SCITEGIC>MOL_PROPERTY
Tether
SciTegic.value.DoubleValue
0.000

@<TRIPOS>MOLECULE
guest-s19_confgen4.mol2 : confsearch ligand conformer 759
          17          16           1
SMALL
USER_CHARGES
 
@<TRIPOS>ATOM
       1    C1      22.353120   17.743234   23.544535 C.2        1 MOL1         0.6173
       2    O1      23.034406   17.380066   22.604110 O.co2      1 MOL1        -0.6755
       3    O2      22.774494   17.794606   24.683664 O.co2      1 MOL1        -0.6755
       4    C2      20.938327   18.143715   23.316350 C.2        1 MOL1        -0.1504
       5    H1      20.385331   18.456797   24.198923 H          1 MOL1         0.0814
       6    C3      20.339355   18.136971   22.103844 C.2        1 MOL1        -0.1394
       7    H2      20.885081   17.828363   21.212473 H          1 MOL1         0.0817
       8    C4      18.899916   18.549692   21.878696 C.3        1 MOL1        -0.1849
       9    H3      18.273597   18.160788   22.692948 H          1 MOL1         0.0736
      10    H4      18.520741   18.091639   20.955275 H          1 MOL1         0.0736
      11    C5      18.733678   20.083249   21.800394 C.3        1 MOL1        -0.1866
      12    H5      17.663674   20.326075   21.743114 H          1 MOL1         0.0738
      13    H6      19.111121   20.544366   22.723614 H          1 MOL1         0.0738
      14    C6      19.455776   20.694926   20.580912 C.3        1 MOL1        -0.2879
      15    H7      19.085061   20.257334   19.644841 H          1 MOL1         0.0750
      16    H8      19.289157   21.779025   20.537600 H          1 MOL1         0.0750
      17    H9      20.538721   20.522952   20.634539 H          1 MOL1         0.0750
@<TRIPOS>BOND
    1     1     2    1
    2     1     3    2
    3     1     4    1
    4     4     5    1
    5     4     6    2
    6     6     7    1
    7     6     8    1
    8     8     9    1
    9     8    10    1
   10     8    11    1
   11    11    12    1
   12    11    13    1
   13    11    14    1
   14    14    15    1
   15    14    16    1
   16    14    17    1
@<TRIPOS>SUBSTRUCTURE
       1 MOL1            1 RESIDUE      1      MOL     
@<SCITEGIC>MOL_PROPERTY
VConf Rank
SciTegic.value.IntegerValue
759

@<SCITEGIC>MOL_PROPERTY
Conf_Id
SciTegic.value.IntegerValue
3

@<SCITEGIC>MOL_PROPERTY
Delta U+W
SciTegic.value.DoubleValue
0.531

@<SCITEGIC>MOL_PROPERTY
U+W
SciTegic.value.DoubleValue
-52.878

@<SCITEGIC>MOL_PROPERTY
Grad RMS
SciTegic.value.DoubleValue
0.000000

@<SCITEGIC>MOL_PROPERTY
U
SciTegic.value.DoubleValue
10.067

@<SCITEGIC>MOL_PROPERTY
W
SciTegic.value.DoubleValue
-62.945

@<SCITEGIC>MOL_PROPERTY
W(PB)
SciTegic.value.DoubleValue
-64.982

@<SCITEGIC>MOL_PROPERTY
W(SA)
SciTegic.value.DoubleValue
2.037

@<SCITEGIC>MOL_PROPERTY
Valence
SciTegic.value.DoubleValue
2.779

@<SCITEGIC>MOL_PROPERTY
Coulomb
SciTegic.value.DoubleValue
6.474

@<SCITEGIC>MOL_PROPERTY
VdW
SciTegic.value.DoubleValue
0.815

@<SCITEGIC>MOL_PROPERTY
VdW6
SciTegic.value.DoubleValue
-5.088

@<SCITEGIC>MOL_PROPERTY
VdW12
SciTegic.value.DoubleValue
5.902

@<SCITEGIC>MOL_PROPERTY
Bond
SciTegic.value.DoubleValue
0.078

@<SCITEGIC>MOL_PROPERTY
Angle
SciTegic.value.DoubleValue
2.651

@<SCITEGIC>MOL_PROPERTY
Pdih
SciTegic.value.DoubleValue
0.050

@<SCITEGIC>MOL_PROPERTY
Idih
SciTegic.value.DoubleValue
0.000

@<SCITEGIC>MOL_PROPERTY
Tether
SciTegic.value.DoubleValue
0.000

@<TRIPOS>MOLECULE
guest-s19_confgen4.mol2 : confsearch ligand conformer 760
          17          16           1
SMALL
USER_CHARGES
 
@<TRIPOS>ATOM
       1    C1      18.656350   18.987330   24.789800 C.2        1 MOL1         0.6173
       2    O1      17.478250   18.893456   25.074491 O.co2      1 MOL1        -0.6755
       3    O2      19.491378   19.412699   25.565840 O.co2      1 MOL1        -0.6755
       4    C2      19.071084   18.553816   23.428135 C.2        1 MOL1        -0.1504
       5    H1      18.275325   18.184143   22.785627 H          1 MOL1         0.0814
       6    C3      20.345063   18.604684   22.976497 C.2        1 MOL1        -0.1394
       7    H2      21.147839   18.977115   23.612393 H          1 MOL1         0.0817
       8    C4      20.763738   18.165185   21.588733 C.3        1 MOL1        -0.1849
       9    H3      19.988269   17.534811   21.132646 H          1 MOL1         0.0736
      10    H4      21.660841   17.536657   21.667283 H          1 MOL1         0.0736
      11    C5      21.070495   19.362259   20.662408 C.3        1 MOL1        -0.1866
      12    H5      21.844266   19.994819   21.119142 H          1 MOL1         0.0738
      13    H6      21.488956   18.986953   19.718356 H          1 MOL1         0.0738
      14    C6      19.818646   20.211546   20.355133 C.3        1 MOL1        -0.2879
      15    H7      19.408291   20.657822   21.270283 H          1 MOL1         0.0750
      16    H8      20.066072   21.028090   19.664552 H          1 MOL1         0.0750
      17    H9      19.034016   19.600338   19.890511 H          1 MOL1         0.0750
@<TRIPOS>BOND
    1     1     2    1
    2     1     3    2
    3     1     4    1
    4     4     5    1
    5     4     6    2
    6     6     7    1
    7     6     8    1
    8     8     9    1
    9     8    10    1
   10     8    11    1
   11    11    12    1
   12    11    13    1
   13    11    14    1
   14    14    15    1
   15    14    16    1
   16    14    17    1
@<TRIPOS>SUBSTRUCTURE
       1 MOL1            1 RESIDUE      1      MOL     
@<SCITEGIC>MOL_PROPERTY
VConf Rank
SciTegic.value.IntegerValue
760

@<SCITEGIC>MOL_PROPERTY
Conf_Id
SciTegic.value.IntegerValue
45

@<SCITEGIC>MOL_PROPERTY
Delta U+W
SciTegic.value.DoubleValue
0.562

@<SCITEGIC>MOL_PROPERTY
U+W
SciTegic.value.DoubleValue
-52.846

@<SCITEGIC>MOL_PROPERTY
Grad RMS
SciTegic.value.DoubleValue
0.000000

@<SCITEGIC>MOL_PROPERTY
U
SciTegic.value.DoubleValue
10.243

@<SCITEGIC>MOL_PROPERTY
W
SciTegic.value.DoubleValue
-63.089

@<SCITEGIC>MOL_PROPERTY
W(PB)
SciTegic.value.DoubleValue
-65.116

@<SCITEGIC>MOL_PROPERTY
W(SA)
SciTegic.value.DoubleValue
2.026

@<SCITEGIC>MOL_PROPERTY
Valence
SciTegic.value.DoubleValue
2.822

@<SCITEGIC>MOL_PROPERTY
Coulomb
SciTegic.value.DoubleValue
6.637

@<SCITEGIC>MOL_PROPERTY
VdW
SciTegic.value.DoubleValue
0.785

@<SCITEGIC>MOL_PROPERTY
VdW6
SciTegic.value.DoubleValue
-5.216

@<SCITEGIC>MOL_PROPERTY
VdW12
SciTegic.value.DoubleValue
6.001

@<SCITEGIC>MOL_PROPERTY
Bond
SciTegic.value.DoubleValue
0.080

@<SCITEGIC>MOL_PROPERTY
Angle
SciTegic.value.DoubleValue
2.678

@<SCITEGIC>MOL_PROPERTY
Pdih
SciTegic.value.DoubleValue
0.064

@<SCITEGIC>MOL_PROPERTY
Idih
SciTegic.value.DoubleValue
0.000

@<SCITEGIC>MOL_PROPERTY
Tether
SciTegic.value.DoubleValue
0.000

@<TRIPOS>MOLECULE
guest-s19_confgen4.mol2 : confsearch ligand conformer 761
          17          16           1
SMALL
USER_CHARGES
 
@<TRIPOS>ATOM
       1    C1      19.775524   18.946450   18.551769 C.2        1 MOL1         0.6173
       2    O1      18.818626   19.153271   17.831161 O.co2      1 MOL1        -0.6755
       3    O2      20.793466   18.407451   18.159764 O.co2      1 MOL1        -0.6755
       4    C2      19.674204   19.381790   19.971055 C.2        1 MOL1        -0.1504
       5    H1      18.738178   19.856640   20.256156 H          1 MOL1         0.0814
       6    C3      20.658969   19.214624   20.882854 C.2        1 MOL1        -0.1394
       7    H2      21.599895   18.737983   20.608546 H          1 MOL1         0.0817
       8    C4      20.547033   19.658336   22.325015 C.3        1 MOL1        -0.1849
       9    H3      20.014624   20.617520   22.382606 H          1 MOL1         0.0736
      10    H4      21.550891   19.833080   22.735041 H          1 MOL1         0.0736
      11    C5      19.815719   18.604802   23.181904 C.3        1 MOL1        -0.1866
      12    H5      18.809518   18.431871   22.775440 H          1 MOL1         0.0738
      13    H6      20.351212   17.646938   23.124340 H          1 MOL1         0.0738
      14    C6      19.705798   19.045388   24.655446 C.3        1 MOL1        -0.2879
      15    H7      20.700214   19.194657   25.096225 H          1 MOL1         0.0750
      16    H8      19.146852   19.986273   24.743494 H          1 MOL1         0.0750
      17    H9      19.183027   18.283962   25.248803 H          1 MOL1         0.0750
@<TRIPOS>BOND
    1     1     2    1
    2     1     3    2
    3     1     4    1
    4     4     5    1
    5     4     6    2
    6     6     7    1
    7     6     8    1
    8     8     9    1
    9     8    10    1
   10     8    11    1
   11    11    12    1
   12    11    13    1
   13    11    14    1
   14    14    15    1
   15    14    16    1
   16    14    17    1
@<TRIPOS>SUBSTRUCTURE
       1 MOL1            1 RESIDUE      1      MOL     
@<SCITEGIC>MOL_PROPERTY
VConf Rank
SciTegic.value.IntegerValue
761

@<SCITEGIC>MOL_PROPERTY
Conf_Id
SciTegic.value.IntegerValue
36

@<SCITEGIC>MOL_PROPERTY
Delta U+W
SciTegic.value.DoubleValue
0.000

@<SCITEGIC>MOL_PROPERTY
U+W
SciTegic.value.DoubleValue
-53.409

@<SCITEGIC>MOL_PROPERTY
Grad RMS
SciTegic.value.DoubleValue
0.000000

@<SCITEGIC>MOL_PROPERTY
U
SciTegic.value.DoubleValue
9.048

@<SCITEGIC>MOL_PROPERTY
W
SciTegic.value.DoubleValue
-62.457

@<SCITEGIC>MOL_PROPERTY
W(PB)
SciTegic.value.DoubleValue
-64.540

@<SCITEGIC>MOL_PROPERTY
W(SA)
SciTegic.value.DoubleValue
2.084

@<SCITEGIC>MOL_PROPERTY
Valence
SciTegic.value.DoubleValue
2.652

@<SCITEGIC>MOL_PROPERTY
Coulomb
SciTegic.value.DoubleValue
5.578

@<SCITEGIC>MOL_PROPERTY
VdW
SciTegic.value.DoubleValue
0.818

@<SCITEGIC>MOL_PROPERTY
VdW6
SciTegic.value.DoubleValue
-4.534

@<SCITEGIC>MOL_PROPERTY
VdW12
SciTegic.value.DoubleValue
5.352

@<SCITEGIC>MOL_PROPERTY
Bond
SciTegic.value.DoubleValue
0.063

@<SCITEGIC>MOL_PROPERTY
Angle
SciTegic.value.DoubleValue
2.579

@<SCITEGIC>MOL_PROPERTY
Pdih
SciTegic.value.DoubleValue
0.010

@<SCITEGIC>MOL_PROPERTY
Idih
SciTegic.value.DoubleValue
0.000

@<SCITEGIC>MOL_PROPERTY
Tether
SciTegic.value.DoubleValue
0.000

@<TRIPOS>MOLECULE
guest-s19_confgen4.mol2 : confsearch ligand conformer 762
          17          16           1
SMALL
USER_CHARGES
 
@<TRIPOS>ATOM
       1    C1      22.367539   17.860416   23.991814 C.2        1 MOL1         0.6173
       2    O1      22.333473   18.535782   25.003305 O.co2      1 MOL1        -0.6755
       3    O2      23.252151   17.058662   23.762993 O.co2      1 MOL1        -0.6755
       4    C2      21.289520   18.003281   22.976124 C.2        1 MOL1        -0.1504
       5    H1      21.379799   17.370674   22.096029 H          1 MOL1         0.0814
       6    C3      20.246478   18.855396   23.098795 C.2        1 MOL1        -0.1394
       7    H2      20.147423   19.495346   23.975394 H          1 MOL1         0.0817
       8    C4      19.155234   18.995909   22.060199 C.3        1 MOL1        -0.1849
       9    H3      18.239984   19.372008   22.536911 H          1 MOL1         0.0736
      10    H4      18.907145   18.011445   21.640570 H          1 MOL1         0.0736
      11    C5      19.577810   19.953257   20.927092 C.3        1 MOL1        -0.1866
      12    H5      19.823340   20.937771   21.349011 H          1 MOL1         0.0738
      13    H6      20.491200   19.576219   20.446342 H          1 MOL1         0.0738
      14    C6      18.467152   20.109107   19.868945 C.3        1 MOL1        -0.2879
      15    H7      17.551012   20.515027   20.317663 H          1 MOL1         0.0750
      16    H8      18.785790   20.793203   19.071692 H          1 MOL1         0.0750
      17    H9      18.224442   19.142230   19.408863 H          1 MOL1         0.0750
@<TRIPOS>BOND
    1     1     2    1
    2     1     3    2
    3     1     4    1
    4     4     5    1
    5     4     6    2
    6     6     7    1
    7     6     8    1
    8     8     9    1
    9     8    10    1
   10     8    11    1
   11    11    12    1
   12    11    13    1
   13    11    14    1
   14    14    15    1
   15    14    16    1
   16    14    17    1
@<TRIPOS>SUBSTRUCTURE
       1 MOL1            1 RESIDUE      1      MOL     
@<SCITEGIC>MOL_PROPERTY
VConf Rank
SciTegic.value.IntegerValue
762

@<SCITEGIC>MOL_PROPERTY
Conf_Id
SciTegic.value.IntegerValue
1

@<SCITEGIC>MOL_PROPERTY
Delta U+W
SciTegic.value.DoubleValue
0.030

@<SCITEGIC>MOL_PROPERTY
U+W
SciTegic.value.DoubleValue
-53.378

@<SCITEGIC>MOL_PROPERTY
Grad RMS
SciTegic.value.DoubleValue
0.000000

@<SCITEGIC>MOL_PROPERTY
U
SciTegic.value.DoubleValue
9.048

@<SCITEGIC>MOL_PROPERTY
W
SciTegic.value.DoubleValue
-62.426

@<SCITEGIC>MOL_PROPERTY
W(PB)
SciTegic.value.DoubleValue
-64.506

@<SCITEGIC>MOL_PROPERTY
W(SA)
SciTegic.value.DoubleValue
2.080

@<SCITEGIC>MOL_PROPERTY
Valence
SciTegic.value.DoubleValue
2.652

@<SCITEGIC>MOL_PROPERTY
Coulomb
SciTegic.value.DoubleValue
5.578

@<SCITEGIC>MOL_PROPERTY
VdW
SciTegic.value.DoubleValue
0.818

@<SCITEGIC>MOL_PROPERTY
VdW6
SciTegic.value.DoubleValue
-4.535

@<SCITEGIC>MOL_PROPERTY
VdW12
SciTegic.value.DoubleValue
5.352

@<SCITEGIC>MOL_PROPERTY
Bond
SciTegic.value.DoubleValue
0.063

@<SCITEGIC>MOL_PROPERTY
Angle
SciTegic.value.DoubleValue
2.579

@<SCITEGIC>MOL_PROPERTY
Pdih
SciTegic.value.DoubleValue
0.010

@<SCITEGIC>MOL_PROPERTY
Idih
SciTegic.value.DoubleValue
0.000

@<SCITEGIC>MOL_PROPERTY
Tether
SciTegic.value.DoubleValue
0.000

@<TRIPOS>MOLECULE
guest-s19_confgen4.mol2 : confsearch ligand conformer 763
          17          16           1
SMALL
USER_CHARGES
 
@<TRIPOS>ATOM
       1    C1      22.720945   20.225034   21.105181 C.2        1 MOL1         0.6173
       2    O1      22.356401   21.276194   20.612627 O.co2      1 MOL1        -0.6755
       3    O2      23.882329   19.992163   21.378622 O.co2      1 MOL1        -0.6755
       4    C2      21.720798   19.161166   21.391509 C.2        1 MOL1        -0.1504
       5    H1      22.112939   18.246716   21.830561 H          1 MOL1         0.0814
       6    C3      20.397544   19.283529   21.140488 C.2        1 MOL1        -0.1394
       7    H2      19.993477   20.196621   20.703922 H          1 MOL1         0.0817
       8    C4      19.384896   18.197753   21.438227 C.3        1 MOL1        -0.1849
       9    H3      19.805541   17.218698   21.171699 H          1 MOL1         0.0736
      10    H4      18.497236   18.332083   20.805528 H          1 MOL1         0.0736
      11    C5      18.962254   18.179720   22.923694 C.3        1 MOL1        -0.1866
      12    H5      18.312621   17.311724   23.101774 H          1 MOL1         0.0738
      13    H6      19.848302   18.044187   23.559286 H          1 MOL1         0.0738
      14    C6      18.214302   19.463768   23.341427 C.3        1 MOL1        -0.2879
      15    H7      17.316900   19.613003   22.726981 H          1 MOL1         0.0750
      16    H8      17.899920   19.402933   24.391365 H          1 MOL1         0.0750
      17    H9      18.855153   20.348507   23.232940 H          1 MOL1         0.0750
@<TRIPOS>BOND
    1     1     2    1
    2     1     3    2
    3     1     4    1
    4     4     5    1
    5     4     6    2
    6     6     7    1
    7     6     8    1
    8     8     9    1
    9     8    10    1
   10     8    11    1
   11    11    12    1
   12    11    13    1
   13    11    14    1
   14    14    15    1
   15    14    16    1
   16    14    17    1
@<TRIPOS>SUBSTRUCTURE
       1 MOL1            1 RESIDUE      1      MOL     
@<SCITEGIC>MOL_PROPERTY
VConf Rank
SciTegic.value.IntegerValue
763

@<SCITEGIC>MOL_PROPERTY
Conf_Id
SciTegic.value.IntegerValue
3

@<SCITEGIC>MOL_PROPERTY
Delta U+W
SciTegic.value.DoubleValue
0.531

@<SCITEGIC>MOL_PROPERTY
U+W
SciTegic.value.DoubleValue
-52.878

@<SCITEGIC>MOL_PROPERTY
Grad RMS
SciTegic.value.DoubleValue
0.000000

@<SCITEGIC>MOL_PROPERTY
U
SciTegic.value.DoubleValue
10.067

@<SCITEGIC>MOL_PROPERTY
W
SciTegic.value.DoubleValue
-62.945

@<SCITEGIC>MOL_PROPERTY
W(PB)
SciTegic.value.DoubleValue
-64.982

@<SCITEGIC>MOL_PROPERTY
W(SA)
SciTegic.value.DoubleValue
2.037

@<SCITEGIC>MOL_PROPERTY
Valence
SciTegic.value.DoubleValue
2.779

@<SCITEGIC>MOL_PROPERTY
Coulomb
SciTegic.value.DoubleValue
6.474

@<SCITEGIC>MOL_PROPERTY
VdW
SciTegic.value.DoubleValue
0.815

@<SCITEGIC>MOL_PROPERTY
VdW6
SciTegic.value.DoubleValue
-5.088

@<SCITEGIC>MOL_PROPERTY
VdW12
SciTegic.value.DoubleValue
5.902

@<SCITEGIC>MOL_PROPERTY
Bond
SciTegic.value.DoubleValue
0.078

@<SCITEGIC>MOL_PROPERTY
Angle
SciTegic.value.DoubleValue
2.651

@<SCITEGIC>MOL_PROPERTY
Pdih
SciTegic.value.DoubleValue
0.050

@<SCITEGIC>MOL_PROPERTY
Idih
SciTegic.value.DoubleValue
0.000

@<SCITEGIC>MOL_PROPERTY
Tether
SciTegic.value.DoubleValue
0.000

@<TRIPOS>MOLECULE
guest-s19_confgen4.mol2 : confsearch ligand conformer 764
          17          16           1
SMALL
USER_CHARGES
 
@<TRIPOS>ATOM
       1    C1      21.470106   17.102063   20.373914 C.2        1 MOL1         0.6173
       2    O1      22.115273   16.127775   20.709031 O.co2      1 MOL1        -0.6755
       3    O2      21.610289   17.647913   19.295562 O.co2      1 MOL1        -0.6755
       4    C2      20.469358   17.629471   21.340567 C.2        1 MOL1        -0.1504
       5    H1      20.395124   17.094981   22.284768 H          1 MOL1         0.0814
       6    C3      19.685489   18.705646   21.101858 C.2        1 MOL1        -0.1394
       7    H2      19.756009   19.249157   20.159977 H          1 MOL1         0.0817
       8    C4      18.669510   19.241857   22.089077 C.3        1 MOL1        -0.1849
       9    H3      18.440847   18.488935   22.855603 H          1 MOL1         0.0736
      10    H4      17.726077   19.437076   21.561977 H          1 MOL1         0.0736
      11    C5      19.143178   20.545849   22.767612 C.3        1 MOL1        -0.1866
      12    H5      19.374663   21.298721   22.001415 H          1 MOL1         0.0738
      13    H6      18.321243   20.954872   23.371201 H          1 MOL1         0.0738
      14    C6      20.373922   20.330531   23.674109 C.3        1 MOL1        -0.2879
      15    H7      21.237725   19.982105   23.093164 H          1 MOL1         0.0750
      16    H8      20.657701   21.268314   24.168982 H          1 MOL1         0.0750
      17    H9      20.162365   19.586458   24.453013 H          1 MOL1         0.0750
@<TRIPOS>BOND
    1     1     2    1
    2     1     3    2
    3     1     4    1
    4     4     5    1
    5     4     6    2
    6     6     7    1
    7     6     8    1
    8     8     9    1
    9     8    10    1
   10     8    11    1
   11    11    12    1
   12    11    13    1
   13    11    14    1
   14    14    15    1
   15    14    16    1
   16    14    17    1
@<TRIPOS>SUBSTRUCTURE
       1 MOL1            1 RESIDUE      1      MOL     
@<SCITEGIC>MOL_PROPERTY
VConf Rank
SciTegic.value.IntegerValue
764

@<SCITEGIC>MOL_PROPERTY
Conf_Id
SciTegic.value.IntegerValue
45

@<SCITEGIC>MOL_PROPERTY
Delta U+W
SciTegic.value.DoubleValue
0.562

@<SCITEGIC>MOL_PROPERTY
U+W
SciTegic.value.DoubleValue
-52.846

@<SCITEGIC>MOL_PROPERTY
Grad RMS
SciTegic.value.DoubleValue
0.000000

@<SCITEGIC>MOL_PROPERTY
U
SciTegic.value.DoubleValue
10.243

@<SCITEGIC>MOL_PROPERTY
W
SciTegic.value.DoubleValue
-63.089

@<SCITEGIC>MOL_PROPERTY
W(PB)
SciTegic.value.DoubleValue
-65.116

@<SCITEGIC>MOL_PROPERTY
W(SA)
SciTegic.value.DoubleValue
2.026

@<SCITEGIC>MOL_PROPERTY
Valence
SciTegic.value.DoubleValue
2.822

@<SCITEGIC>MOL_PROPERTY
Coulomb
SciTegic.value.DoubleValue
6.637

@<SCITEGIC>MOL_PROPERTY
VdW
SciTegic.value.DoubleValue
0.785

@<SCITEGIC>MOL_PROPERTY
VdW6
SciTegic.value.DoubleValue
-5.216

@<SCITEGIC>MOL_PROPERTY
VdW12
SciTegic.value.DoubleValue
6.001

@<SCITEGIC>MOL_PROPERTY
Bond
SciTegic.value.DoubleValue
0.080

@<SCITEGIC>MOL_PROPERTY
Angle
SciTegic.value.DoubleValue
2.678

@<SCITEGIC>MOL_PROPERTY
Pdih
SciTegic.value.DoubleValue
0.064

@<SCITEGIC>MOL_PROPERTY
Idih
SciTegic.value.DoubleValue
0.000

@<SCITEGIC>MOL_PROPERTY
Tether
SciTegic.value.DoubleValue
0.000

@<TRIPOS>MOLECULE
guest-s19_confgen4.mol2 : confsearch ligand conformer 765
          17          16           1
SMALL
USER_CHARGES
 
@<TRIPOS>ATOM
       1    C1      23.236325   19.925935   22.368087 C.2        1 MOL1         0.6173
       2    O1      24.169417   19.214371   22.685449 O.co2      1 MOL1        -0.6755
       3    O2      23.298410   21.141011   22.379472 O.co2      1 MOL1        -0.6755
       4    C2      21.973936   19.258474   21.949719 C.2        1 MOL1        -0.1504
       5    H1      21.985444   18.170988   21.961974 H          1 MOL1         0.0814
       6    C3      20.858511   19.923987   21.572884 C.2        1 MOL1        -0.1394
       7    H2      20.835272   21.013503   21.559223 H          1 MOL1         0.0817
       8    C4      19.577935   19.237503   21.150863 C.3        1 MOL1        -0.1849
       9    H3      19.809584   18.341109   20.559571 H          1 MOL1         0.0736
      10    H4      19.002097   19.904266   20.494947 H          1 MOL1         0.0736
      11    C5      18.720268   18.848109   22.372253 C.3        1 MOL1        -0.1866
      12    H5      19.293513   18.177567   23.027482 H          1 MOL1         0.0738
      13    H6      18.488175   19.746539   22.960916 H          1 MOL1         0.0738
      14    C6      17.408566   18.156166   21.950141 C.3        1 MOL1        -0.2879
      15    H7      16.800602   18.817806   21.319234 H          1 MOL1         0.0750
      16    H8      17.613313   17.236955   21.385723 H          1 MOL1         0.0750
      17    H9      16.812384   17.886748   22.831680 H          1 MOL1         0.0750
@<TRIPOS>BOND
    1     1     2    1
    2     1     3    2
    3     1     4    1
    4     4     5    1
    5     4     6    2
    6     6     7    1
    7     6     8    1
    8     8     9    1
    9     8    10    1
   10     8    11    1
   11    11    12    1
   12    11    13    1
   13    11    14    1
   14    14    15    1
   15    14    16    1
   16    14    17    1
@<TRIPOS>SUBSTRUCTURE
       1 MOL1            1 RESIDUE      1      MOL     
@<SCITEGIC>MOL_PROPERTY
VConf Rank
SciTegic.value.IntegerValue
765

@<SCITEGIC>MOL_PROPERTY
Conf_Id
SciTegic.value.IntegerValue
36

@<SCITEGIC>MOL_PROPERTY
Delta U+W
SciTegic.value.DoubleValue
0.000

@<SCITEGIC>MOL_PROPERTY
U+W
SciTegic.value.DoubleValue
-53.409

@<SCITEGIC>MOL_PROPERTY
Grad RMS
SciTegic.value.DoubleValue
0.000000

@<SCITEGIC>MOL_PROPERTY
U
SciTegic.value.DoubleValue
9.048

@<SCITEGIC>MOL_PROPERTY
W
SciTegic.value.DoubleValue
-62.457

@<SCITEGIC>MOL_PROPERTY
W(PB)
SciTegic.value.DoubleValue
-64.540

@<SCITEGIC>MOL_PROPERTY
W(SA)
SciTegic.value.DoubleValue
2.084

@<SCITEGIC>MOL_PROPERTY
Valence
SciTegic.value.DoubleValue
2.652

@<SCITEGIC>MOL_PROPERTY
Coulomb
SciTegic.value.DoubleValue
5.578

@<SCITEGIC>MOL_PROPERTY
VdW
SciTegic.value.DoubleValue
0.818

@<SCITEGIC>MOL_PROPERTY
VdW6
SciTegic.value.DoubleValue
-4.534

@<SCITEGIC>MOL_PROPERTY
VdW12
SciTegic.value.DoubleValue
5.352

@<SCITEGIC>MOL_PROPERTY
Bond
SciTegic.value.DoubleValue
0.063

@<SCITEGIC>MOL_PROPERTY
Angle
SciTegic.value.DoubleValue
2.579

@<SCITEGIC>MOL_PROPERTY
Pdih
SciTegic.value.DoubleValue
0.010

@<SCITEGIC>MOL_PROPERTY
Idih
SciTegic.value.DoubleValue
0.000

@<SCITEGIC>MOL_PROPERTY
Tether
SciTegic.value.DoubleValue
0.000

@<TRIPOS>MOLECULE
guest-s19_confgen4.mol2 : confsearch ligand conformer 766
          17          16           1
SMALL
USER_CHARGES
 
@<TRIPOS>ATOM
       1    C1      22.105354   16.515765   22.514093 C.2        1 MOL1         0.6173
       2    O1      22.869727   16.454475   21.569440 O.co2      1 MOL1        -0.6755
       3    O2      22.032430   15.647311   23.361546 O.co2      1 MOL1        -0.6755
       4    C2      21.211598   17.696369   22.660844 C.2        1 MOL1        -0.1504
       5    H1      20.553462   17.688683   23.526700 H          1 MOL1         0.0814
       6    C3      21.185434   18.734281   21.794161 C.2        1 MOL1        -0.1394
       7    H2      21.838999   18.751177   20.922185 H          1 MOL1         0.0817
       8    C4      20.272008   19.930397   21.949720 C.3        1 MOL1        -0.1849
       9    H3      20.709356   20.796568   21.435073 H          1 MOL1         0.0736
      10    H4      20.190566   20.205341   23.010183 H          1 MOL1         0.0736
      11    C5      18.868796   19.644133   21.376949 C.3        1 MOL1        -0.1866
      12    H5      18.952666   19.371496   20.315723 H          1 MOL1         0.0738
      13    H6      18.428085   18.780221   21.893659 H          1 MOL1         0.0738
      14    C6      17.934305   20.861846   21.523332 C.3        1 MOL1        -0.2879
      15    H7      18.336350   21.732309   20.988462 H          1 MOL1         0.0750
      16    H8      16.941668   20.639405   21.110633 H          1 MOL1         0.0750
      17    H9      17.808688   21.135957   22.579040 H          1 MOL1         0.0750
@<TRIPOS>BOND
    1     1     2    1
    2     1     3    2
    3     1     4    1
    4     4     5    1
    5     4     6    2
    6     6     7    1
    7     6     8    1
    8     8     9    1
    9     8    10    1
   10     8    11    1
   11    11    12    1
   12    11    13    1
   13    11    14    1
   14    14    15    1
   15    14    16    1
   16    14    17    1
@<TRIPOS>SUBSTRUCTURE
       1 MOL1            1 RESIDUE      1      MOL     
@<SCITEGIC>MOL_PROPERTY
VConf Rank
SciTegic.value.IntegerValue
766

@<SCITEGIC>MOL_PROPERTY
Conf_Id
SciTegic.value.IntegerValue
1

@<SCITEGIC>MOL_PROPERTY
Delta U+W
SciTegic.value.DoubleValue
0.030

@<SCITEGIC>MOL_PROPERTY
U+W
SciTegic.value.DoubleValue
-53.378

@<SCITEGIC>MOL_PROPERTY
Grad RMS
SciTegic.value.DoubleValue
0.000000

@<SCITEGIC>MOL_PROPERTY
U
SciTegic.value.DoubleValue
9.048

@<SCITEGIC>MOL_PROPERTY
W
SciTegic.value.DoubleValue
-62.426

@<SCITEGIC>MOL_PROPERTY
W(PB)
SciTegic.value.DoubleValue
-64.506

@<SCITEGIC>MOL_PROPERTY
W(SA)
SciTegic.value.DoubleValue
2.080

@<SCITEGIC>MOL_PROPERTY
Valence
SciTegic.value.DoubleValue
2.652

@<SCITEGIC>MOL_PROPERTY
Coulomb
SciTegic.value.DoubleValue
5.578

@<SCITEGIC>MOL_PROPERTY
VdW
SciTegic.value.DoubleValue
0.818

@<SCITEGIC>MOL_PROPERTY
VdW6
SciTegic.value.DoubleValue
-4.535

@<SCITEGIC>MOL_PROPERTY
VdW12
SciTegic.value.DoubleValue
5.352

@<SCITEGIC>MOL_PROPERTY
Bond
SciTegic.value.DoubleValue
0.063

@<SCITEGIC>MOL_PROPERTY
Angle
SciTegic.value.DoubleValue
2.579

@<SCITEGIC>MOL_PROPERTY
Pdih
SciTegic.value.DoubleValue
0.010

@<SCITEGIC>MOL_PROPERTY
Idih
SciTegic.value.DoubleValue
0.000

@<SCITEGIC>MOL_PROPERTY
Tether
SciTegic.value.DoubleValue
0.000

@<TRIPOS>MOLECULE
guest-s19_confgen4.mol2 : confsearch ligand conformer 767
          17          16           1
SMALL
USER_CHARGES
 
@<TRIPOS>ATOM
       1    C1      23.044598   19.559367   22.380268 C.2        1 MOL1         0.6173
       2    O1      23.472257   18.464521   22.065850 O.co2      1 MOL1        -0.6755
       3    O2      23.747922   20.548787   22.445042 O.co2      1 MOL1        -0.6755
       4    C2      21.601908   19.719005   22.707765 C.2        1 MOL1        -0.1504
       5    H1      21.285529   20.722834   22.981609 H          1 MOL1         0.0814
       6    C3      20.705437   18.706916   22.676115 C.2        1 MOL1        -0.1394
       7    H2      21.010937   17.697986   22.399841 H          1 MOL1         0.0817
       8    C4      19.237673   18.877791   23.007002 C.3        1 MOL1        -0.1849
       9    H3      19.130415   19.548026   23.870604 H          1 MOL1         0.0736
      10    H4      18.809645   17.913627   23.312736 H          1 MOL1         0.0736
      11    C5      18.430267   19.448101   21.820240 C.3        1 MOL1        -0.1866
      12    H5      17.401397   19.648894   22.149273 H          1 MOL1         0.0738
      13    H6      18.855480   20.413565   21.512833 H          1 MOL1         0.0738
      14    C6      18.395272   18.487319   20.612603 C.3        1 MOL1        -0.2879
      15    H7      17.961804   17.518729   20.893821 H          1 MOL1         0.0750
      16    H8      17.786669   18.908473   19.801962 H          1 MOL1         0.0750
      17    H9      19.404346   18.309858   20.218268 H          1 MOL1         0.0750
@<TRIPOS>BOND
    1     1     2    1
    2     1     3    2
    3     1     4    1
    4     4     5    1
    5     4     6    2
    6     6     7    1
    7     6     8    1
    8     8     9    1
    9     8    10    1
   10     8    11    1
   11    11    12    1
   12    11    13    1
   13    11    14    1
   14    14    15    1
   15    14    16    1
   16    14    17    1
@<TRIPOS>SUBSTRUCTURE
       1 MOL1            1 RESIDUE      1      MOL     
@<SCITEGIC>MOL_PROPERTY
VConf Rank
SciTegic.value.IntegerValue
767

@<SCITEGIC>MOL_PROPERTY
Conf_Id
SciTegic.value.IntegerValue
3

@<SCITEGIC>MOL_PROPERTY
Delta U+W
SciTegic.value.DoubleValue
0.531

@<SCITEGIC>MOL_PROPERTY
U+W
SciTegic.value.DoubleValue
-52.878

@<SCITEGIC>MOL_PROPERTY
Grad RMS
SciTegic.value.DoubleValue
0.000000

@<SCITEGIC>MOL_PROPERTY
U
SciTegic.value.DoubleValue
10.067

@<SCITEGIC>MOL_PROPERTY
W
SciTegic.value.DoubleValue
-62.945

@<SCITEGIC>MOL_PROPERTY
W(PB)
SciTegic.value.DoubleValue
-64.982

@<SCITEGIC>MOL_PROPERTY
W(SA)
SciTegic.value.DoubleValue
2.037

@<SCITEGIC>MOL_PROPERTY
Valence
SciTegic.value.DoubleValue
2.779

@<SCITEGIC>MOL_PROPERTY
Coulomb
SciTegic.value.DoubleValue
6.474

@<SCITEGIC>MOL_PROPERTY
VdW
SciTegic.value.DoubleValue
0.815

@<SCITEGIC>MOL_PROPERTY
VdW6
SciTegic.value.DoubleValue
-5.088

@<SCITEGIC>MOL_PROPERTY
VdW12
SciTegic.value.DoubleValue
5.902

@<SCITEGIC>MOL_PROPERTY
Bond
SciTegic.value.DoubleValue
0.078

@<SCITEGIC>MOL_PROPERTY
Angle
SciTegic.value.DoubleValue
2.651

@<SCITEGIC>MOL_PROPERTY
Pdih
SciTegic.value.DoubleValue
0.050

@<SCITEGIC>MOL_PROPERTY
Idih
SciTegic.value.DoubleValue
0.000

@<SCITEGIC>MOL_PROPERTY
Tether
SciTegic.value.DoubleValue
0.000

@<TRIPOS>MOLECULE
guest-s19_confgen4.mol2 : confsearch ligand conformer 768
          17          16           1
SMALL
USER_CHARGES
 
@<TRIPOS>ATOM
       1    C1      19.010042   21.023658   24.193398 C.2        1 MOL1         0.6173
       2    O1      18.249244   21.966539   24.093680 O.co2      1 MOL1        -0.6755
       3    O2      19.799539   20.906442   25.111767 O.co2      1 MOL1        -0.6755
       4    C2      18.952038   19.978808   23.135572 C.2        1 MOL1        -0.1504
       5    H1      18.224570   20.145246   22.344499 H          1 MOL1         0.0814
       6    C3      19.739692   18.879313   23.118396 C.2        1 MOL1        -0.1394
       7    H2      20.473719   18.706668   23.905109 H          1 MOL1         0.0817
       8    C4      19.680202   17.818731   22.038599 C.3        1 MOL1        -0.1849
       9    H3      18.741868   17.895720   21.472612 H          1 MOL1         0.0736
      10    H4      19.671605   16.827080   22.510366 H          1 MOL1         0.0736
      11    C5      20.879364   17.901607   21.068904 C.3        1 MOL1        -0.1866
      12    H5      21.818496   17.827326   21.634565 H          1 MOL1         0.0738
      13    H6      20.852350   17.037558   20.390754 H          1 MOL1         0.0738
      14    C6      20.877506   19.198356   20.231485 C.3        1 MOL1        -0.2879
      15    H7      20.968696   20.084403   20.873092 H          1 MOL1         0.0750
      16    H8      21.719875   19.204667   19.527752 H          1 MOL1         0.0750
      17    H9      19.950074   19.289598   19.651282 H          1 MOL1         0.0750
@<TRIPOS>BOND
    1     1     2    1
    2     1     3    2
    3     1     4    1
    4     4     5    1
    5     4     6    2
    6     6     7    1
    7     6     8    1
    8     8     9    1
    9     8    10    1
   10     8    11    1
   11    11    12    1
   12    11    13    1
   13    11    14    1
   14    14    15    1
   15    14    16    1
   16    14    17    1
@<TRIPOS>SUBSTRUCTURE
       1 MOL1            1 RESIDUE      1      MOL     
@<SCITEGIC>MOL_PROPERTY
VConf Rank
SciTegic.value.IntegerValue
768

@<SCITEGIC>MOL_PROPERTY
Conf_Id
SciTegic.value.IntegerValue
45

@<SCITEGIC>MOL_PROPERTY
Delta U+W
SciTegic.value.DoubleValue
0.562

@<SCITEGIC>MOL_PROPERTY
U+W
SciTegic.value.DoubleValue
-52.846

@<SCITEGIC>MOL_PROPERTY
Grad RMS
SciTegic.value.DoubleValue
0.000000

@<SCITEGIC>MOL_PROPERTY
U
SciTegic.value.DoubleValue
10.243

@<SCITEGIC>MOL_PROPERTY
W
SciTegic.value.DoubleValue
-63.089

@<SCITEGIC>MOL_PROPERTY
W(PB)
SciTegic.value.DoubleValue
-65.116

@<SCITEGIC>MOL_PROPERTY
W(SA)
SciTegic.value.DoubleValue
2.026

@<SCITEGIC>MOL_PROPERTY
Valence
SciTegic.value.DoubleValue
2.822

@<SCITEGIC>MOL_PROPERTY
Coulomb
SciTegic.value.DoubleValue
6.637

@<SCITEGIC>MOL_PROPERTY
VdW
SciTegic.value.DoubleValue
0.785

@<SCITEGIC>MOL_PROPERTY
VdW6
SciTegic.value.DoubleValue
-5.216

@<SCITEGIC>MOL_PROPERTY
VdW12
SciTegic.value.DoubleValue
6.001

@<SCITEGIC>MOL_PROPERTY
Bond
SciTegic.value.DoubleValue
0.080

@<SCITEGIC>MOL_PROPERTY
Angle
SciTegic.value.DoubleValue
2.678

@<SCITEGIC>MOL_PROPERTY
Pdih
SciTegic.value.DoubleValue
0.064

@<SCITEGIC>MOL_PROPERTY
Idih
SciTegic.value.DoubleValue
0.000

@<SCITEGIC>MOL_PROPERTY
Tether
SciTegic.value.DoubleValue
0.000

@<TRIPOS>MOLECULE
guest-s19_confgen4.mol2 : confsearch ligand conformer 769
          17          16           1
SMALL
USER_CHARGES
 
@<TRIPOS>ATOM
       1    C1      17.292279   19.736002   23.837286 C.2        1 MOL1         0.6173
       2    O1      17.221211   20.329245   24.895925 O.co2      1 MOL1        -0.6755
       3    O2      16.384609   19.053834   23.400049 O.co2      1 MOL1        -0.6755
       4    C2      18.554111   19.866329   23.059497 C.2        1 MOL1        -0.1504
       5    H1      19.324782   20.490253   23.506368 H          1 MOL1         0.0814
       6    C3      18.771647   19.262196   21.869208 C.2        1 MOL1        -0.1394
       7    H2      18.007249   18.633013   21.413579 H          1 MOL1         0.0817
       8    C4      20.058781   19.398182   21.085607 C.3        1 MOL1        -0.1849
       9    H3      20.440091   20.425366   21.165018 H          1 MOL1         0.0736
      10    H4      19.861244   19.219741   20.019997 H          1 MOL1         0.0736
      11    C5      21.128466   18.405756   21.585484 C.3        1 MOL1        -0.1866
      12    H5      21.330343   18.585735   22.650573 H          1 MOL1         0.0738
      13    H6      20.745553   17.379029   21.503161 H          1 MOL1         0.0738
      14    C6      22.440613   18.531521   20.785497 C.3        1 MOL1        -0.2879
      15    H7      22.272833   18.324827   19.720341 H          1 MOL1         0.0750
      16    H8      22.861085   19.541623   20.876791 H          1 MOL1         0.0750
      17    H9      23.188853   17.818386   21.155237 H          1 MOL1         0.0750
@<TRIPOS>BOND
    1     1     2    1
    2     1     3    2
    3     1     4    1
    4     4     5    1
    5     4     6    2
    6     6     7    1
    7     6     8    1
    8     8     9    1
    9     8    10    1
   10     8    11    1
   11    11    12    1
   12    11    13    1
   13    11    14    1
   14    14    15    1
   15    14    16    1
   16    14    17    1
@<TRIPOS>SUBSTRUCTURE
       1 MOL1            1 RESIDUE      1      MOL     
@<SCITEGIC>MOL_PROPERTY
VConf Rank
SciTegic.value.IntegerValue
769

@<SCITEGIC>MOL_PROPERTY
Conf_Id
SciTegic.value.IntegerValue
36

@<SCITEGIC>MOL_PROPERTY
Delta U+W
SciTegic.value.DoubleValue
0.000

@<SCITEGIC>MOL_PROPERTY
U+W
SciTegic.value.DoubleValue
-53.409

@<SCITEGIC>MOL_PROPERTY
Grad RMS
SciTegic.value.DoubleValue
0.000000

@<SCITEGIC>MOL_PROPERTY
U
SciTegic.value.DoubleValue
9.048

@<SCITEGIC>MOL_PROPERTY
W
SciTegic.value.DoubleValue
-62.457

@<SCITEGIC>MOL_PROPERTY
W(PB)
SciTegic.value.DoubleValue
-64.540

@<SCITEGIC>MOL_PROPERTY
W(SA)
SciTegic.value.DoubleValue
2.084

@<SCITEGIC>MOL_PROPERTY
Valence
SciTegic.value.DoubleValue
2.652

@<SCITEGIC>MOL_PROPERTY
Coulomb
SciTegic.value.DoubleValue
5.578

@<SCITEGIC>MOL_PROPERTY
VdW
SciTegic.value.DoubleValue
0.818

@<SCITEGIC>MOL_PROPERTY
VdW6
SciTegic.value.DoubleValue
-4.534

@<SCITEGIC>MOL_PROPERTY
VdW12
SciTegic.value.DoubleValue
5.352

@<SCITEGIC>MOL_PROPERTY
Bond
SciTegic.value.DoubleValue
0.063

@<SCITEGIC>MOL_PROPERTY
Angle
SciTegic.value.DoubleValue
2.579

@<SCITEGIC>MOL_PROPERTY
Pdih
SciTegic.value.DoubleValue
0.010

@<SCITEGIC>MOL_PROPERTY
Idih
SciTegic.value.DoubleValue
0.000

@<SCITEGIC>MOL_PROPERTY
Tether
SciTegic.value.DoubleValue
0.000

@<TRIPOS>MOLECULE
guest-s19_confgen4.mol2 : confsearch ligand conformer 770
          17          16           1
SMALL
USER_CHARGES
 
@<TRIPOS>ATOM
       1    C1      20.895850   22.061768   23.250826 C.2        1 MOL1         0.6173
       2    O1      22.111300   22.077390   23.304031 O.co2      1 MOL1        -0.6755
       3    O2      20.200569   22.897175   23.795240 O.co2      1 MOL1        -0.6755
       4    C2      20.207321   20.983570   22.490840 C.2        1 MOL1        -0.1504
       5    H1      19.120643   21.028063   22.482988 H          1 MOL1         0.0814
       6    C3      20.853436   19.990530   21.838543 C.2        1 MOL1        -0.1394
       7    H2      21.941875   19.935162   21.841727 H          1 MOL1         0.0817
       8    C4      20.145509   18.896657   21.069439 C.3        1 MOL1        -0.1849
       9    H3      20.815834   18.497792   20.296162 H          1 MOL1         0.0736
      10    H4      19.273901   19.310535   20.544262 H          1 MOL1         0.0736
      11    C5      19.696484   17.753748   22.002796 C.3        1 MOL1        -0.1866
      12    H5      20.570213   17.340010   22.525275 H          1 MOL1         0.0738
      13    H6      19.022416   18.150432   22.774699 H          1 MOL1         0.0738
      14    C6      18.982114   16.630256   21.224999 C.3        1 MOL1        -0.2879
      15    H7      19.645560   16.193972   20.466761 H          1 MOL1         0.0750
      16    H8      18.670387   15.826862   21.905083 H          1 MOL1         0.0750
      17    H9      18.086079   17.011809   20.718073 H          1 MOL1         0.0750
@<TRIPOS>BOND
    1     1     2    1
    2     1     3    2
    3     1     4    1
    4     4     5    1
    5     4     6    2
    6     6     7    1
    7     6     8    1
    8     8     9    1
    9     8    10    1
   10     8    11    1
   11    11    12    1
   12    11    13    1
   13    11    14    1
   14    14    15    1
   15    14    16    1
   16    14    17    1
@<TRIPOS>SUBSTRUCTURE
       1 MOL1            1 RESIDUE      1      MOL     
@<SCITEGIC>MOL_PROPERTY
VConf Rank
SciTegic.value.IntegerValue
770

@<SCITEGIC>MOL_PROPERTY
Conf_Id
SciTegic.value.IntegerValue
1

@<SCITEGIC>MOL_PROPERTY
Delta U+W
SciTegic.value.DoubleValue
0.030

@<SCITEGIC>MOL_PROPERTY
U+W
SciTegic.value.DoubleValue
-53.378

@<SCITEGIC>MOL_PROPERTY
Grad RMS
SciTegic.value.DoubleValue
0.000000

@<SCITEGIC>MOL_PROPERTY
U
SciTegic.value.DoubleValue
9.048

@<SCITEGIC>MOL_PROPERTY
W
SciTegic.value.DoubleValue
-62.426

@<SCITEGIC>MOL_PROPERTY
W(PB)
SciTegic.value.DoubleValue
-64.506

@<SCITEGIC>MOL_PROPERTY
W(SA)
SciTegic.value.DoubleValue
2.080

@<SCITEGIC>MOL_PROPERTY
Valence
SciTegic.value.DoubleValue
2.652

@<SCITEGIC>MOL_PROPERTY
Coulomb
SciTegic.value.DoubleValue
5.578

@<SCITEGIC>MOL_PROPERTY
VdW
SciTegic.value.DoubleValue
0.818

@<SCITEGIC>MOL_PROPERTY
VdW6
SciTegic.value.DoubleValue
-4.535

@<SCITEGIC>MOL_PROPERTY
VdW12
SciTegic.value.DoubleValue
5.352

@<SCITEGIC>MOL_PROPERTY
Bond
SciTegic.value.DoubleValue
0.063

@<SCITEGIC>MOL_PROPERTY
Angle
SciTegic.value.DoubleValue
2.579

@<SCITEGIC>MOL_PROPERTY
Pdih
SciTegic.value.DoubleValue
0.010

@<SCITEGIC>MOL_PROPERTY
Idih
SciTegic.value.DoubleValue
0.000

@<SCITEGIC>MOL_PROPERTY
Tether
SciTegic.value.DoubleValue
0.000

@<TRIPOS>MOLECULE
guest-s19_confgen4.mol2 : confsearch ligand conformer 771
          17          16           1
SMALL
USER_CHARGES
 
@<TRIPOS>ATOM
       1    C1      21.712442   21.246808   20.649223 C.2        1 MOL1         0.6173
       2    O1      21.430920   21.025891   19.486303 O.co2      1 MOL1        -0.6755
       3    O2      22.249241   22.274574   21.014402 O.co2      1 MOL1        -0.6755
       4    C2      21.399179   20.228423   21.687900 C.2        1 MOL1        -0.1504
       5    H1      21.677633   20.488158   22.706606 H          1 MOL1         0.0814
       6    C3      20.803303   19.043046   21.425606 C.2        1 MOL1        -0.1394
       7    H2      20.517063   18.774097   20.409077 H          1 MOL1         0.0817
       8    C4      20.484039   18.013006   22.488668 C.3        1 MOL1        -0.1849
       9    H3      21.316164   17.950844   23.202973 H          1 MOL1         0.0736
      10    H4      20.398865   17.018430   22.030566 H          1 MOL1         0.0736
      11    C5      19.183441   18.342086   23.253987 C.3        1 MOL1        -0.1866
      12    H5      19.059446   17.624490   24.076687 H          1 MOL1         0.0738
      13    H6      19.266135   19.336297   23.714566 H          1 MOL1         0.0738
      14    C6      17.934922   18.291201   22.347717 C.3        1 MOL1        -0.2879
      15    H7      17.824964   17.301353   21.885921 H          1 MOL1         0.0750
      16    H8      17.027095   18.496464   22.929632 H          1 MOL1         0.0750
      17    H9      17.996705   19.038633   21.546000 H          1 MOL1         0.0750
@<TRIPOS>BOND
    1     1     2    1
    2     1     3    2
    3     1     4    1
    4     4     5    1
    5     4     6    2
    6     6     7    1
    7     6     8    1
    8     8     9    1
    9     8    10    1
   10     8    11    1
   11    11    12    1
   12    11    13    1
   13    11    14    1
   14    14    15    1
   15    14    16    1
   16    14    17    1
@<TRIPOS>SUBSTRUCTURE
       1 MOL1            1 RESIDUE      1      MOL     
@<SCITEGIC>MOL_PROPERTY
VConf Rank
SciTegic.value.IntegerValue
771

@<SCITEGIC>MOL_PROPERTY
Conf_Id
SciTegic.value.IntegerValue
3

@<SCITEGIC>MOL_PROPERTY
Delta U+W
SciTegic.value.DoubleValue
0.531

@<SCITEGIC>MOL_PROPERTY
U+W
SciTegic.value.DoubleValue
-52.878

@<SCITEGIC>MOL_PROPERTY
Grad RMS
SciTegic.value.DoubleValue
0.000000

@<SCITEGIC>MOL_PROPERTY
U
SciTegic.value.DoubleValue
10.067

@<SCITEGIC>MOL_PROPERTY
W
SciTegic.value.DoubleValue
-62.945

@<SCITEGIC>MOL_PROPERTY
W(PB)
SciTegic.value.DoubleValue
-64.982

@<SCITEGIC>MOL_PROPERTY
W(SA)
SciTegic.value.DoubleValue
2.037

@<SCITEGIC>MOL_PROPERTY
Valence
SciTegic.value.DoubleValue
2.779

@<SCITEGIC>MOL_PROPERTY
Coulomb
SciTegic.value.DoubleValue
6.474

@<SCITEGIC>MOL_PROPERTY
VdW
SciTegic.value.DoubleValue
0.815

@<SCITEGIC>MOL_PROPERTY
VdW6
SciTegic.value.DoubleValue
-5.088

@<SCITEGIC>MOL_PROPERTY
VdW12
SciTegic.value.DoubleValue
5.902

@<SCITEGIC>MOL_PROPERTY
Bond
SciTegic.value.DoubleValue
0.078

@<SCITEGIC>MOL_PROPERTY
Angle
SciTegic.value.DoubleValue
2.651

@<SCITEGIC>MOL_PROPERTY
Pdih
SciTegic.value.DoubleValue
0.050

@<SCITEGIC>MOL_PROPERTY
Idih
SciTegic.value.DoubleValue
0.000

@<SCITEGIC>MOL_PROPERTY
Tether
SciTegic.value.DoubleValue
0.000

@<TRIPOS>MOLECULE
guest-s19_confgen4.mol2 : confsearch ligand conformer 772
          17          16           1
SMALL
USER_CHARGES
 
@<TRIPOS>ATOM
       1    C1      18.708872   18.128815   19.513793 C.2        1 MOL1         0.6173
       2    O1      19.105037   17.297788   18.719924 O.co2      1 MOL1        -0.6755
       3    O2      17.888241   18.979465   19.224990 O.co2      1 MOL1        -0.6755
       4    C2      19.264210   18.081057   20.893427 C.2        1 MOL1        -0.1504
       5    H1      19.992713   17.296436   21.084110 H          1 MOL1         0.0814
       6    C3      18.916113   18.942871   21.876122 C.2        1 MOL1        -0.1394
       7    H2      18.189729   19.734199   21.692586 H          1 MOL1         0.0817
       8    C4      19.485299   18.893413   23.278947 C.3        1 MOL1        -0.1849
       9    H3      19.954712   17.919061   23.471378 H          1 MOL1         0.0736
      10    H4      18.664082   18.984759   24.002320 H          1 MOL1         0.0736
      11    C5      20.507659   20.021887   23.536811 C.3        1 MOL1        -0.1866
      12    H5      20.039671   20.996819   23.341991 H          1 MOL1         0.0738
      13    H6      20.788501   20.015301   24.599018 H          1 MOL1         0.0738
      14    C6      21.782474   19.875883   22.678698 C.3        1 MOL1        -0.2879
      15    H7      21.549154   19.942545   21.608104 H          1 MOL1         0.0750
      16    H8      22.500995   20.670930   22.916386 H          1 MOL1         0.0750
      17    H9      22.271416   18.910493   22.863227 H          1 MOL1         0.0750
@<TRIPOS>BOND
    1     1     2    1
    2     1     3    2
    3     1     4    1
    4     4     5    1
    5     4     6    2
    6     6     7    1
    7     6     8    1
    8     8     9    1
    9     8    10    1
   10     8    11    1
   11    11    12    1
   12    11    13    1
   13    11    14    1
   14    14    15    1
   15    14    16    1
   16    14    17    1
@<TRIPOS>SUBSTRUCTURE
       1 MOL1            1 RESIDUE      1      MOL     
@<SCITEGIC>MOL_PROPERTY
VConf Rank
SciTegic.value.IntegerValue
772

@<SCITEGIC>MOL_PROPERTY
Conf_Id
SciTegic.value.IntegerValue
45

@<SCITEGIC>MOL_PROPERTY
Delta U+W
SciTegic.value.DoubleValue
0.562

@<SCITEGIC>MOL_PROPERTY
U+W
SciTegic.value.DoubleValue
-52.846

@<SCITEGIC>MOL_PROPERTY
Grad RMS
SciTegic.value.DoubleValue
0.000000

@<SCITEGIC>MOL_PROPERTY
U
SciTegic.value.DoubleValue
10.243

@<SCITEGIC>MOL_PROPERTY
W
SciTegic.value.DoubleValue
-63.089

@<SCITEGIC>MOL_PROPERTY
W(PB)
SciTegic.value.DoubleValue
-65.116

@<SCITEGIC>MOL_PROPERTY
W(SA)
SciTegic.value.DoubleValue
2.026

@<SCITEGIC>MOL_PROPERTY
Valence
SciTegic.value.DoubleValue
2.822

@<SCITEGIC>MOL_PROPERTY
Coulomb
SciTegic.value.DoubleValue
6.637

@<SCITEGIC>MOL_PROPERTY
VdW
SciTegic.value.DoubleValue
0.785

@<SCITEGIC>MOL_PROPERTY
VdW6
SciTegic.value.DoubleValue
-5.216

@<SCITEGIC>MOL_PROPERTY
VdW12
SciTegic.value.DoubleValue
6.001

@<SCITEGIC>MOL_PROPERTY
Bond
SciTegic.value.DoubleValue
0.080

@<SCITEGIC>MOL_PROPERTY
Angle
SciTegic.value.DoubleValue
2.678

@<SCITEGIC>MOL_PROPERTY
Pdih
SciTegic.value.DoubleValue
0.064

@<SCITEGIC>MOL_PROPERTY
Idih
SciTegic.value.DoubleValue
0.000

@<SCITEGIC>MOL_PROPERTY
Tether
SciTegic.value.DoubleValue
0.000

@<TRIPOS>MOLECULE
guest-s19_confgen4.mol2 : confsearch ligand conformer 773
          17          16           1
SMALL
USER_CHARGES
 
@<TRIPOS>ATOM
       1    C1      23.184500   18.771324   22.949538 C.2        1 MOL1         0.6173
       2    O1      23.759744   17.778412   23.350690 O.co2      1 MOL1        -0.6755
       3    O2      23.638266   19.893358   23.074164 O.co2      1 MOL1        -0.6755
       4    C2      21.870013   18.580515   22.278808 C.2        1 MOL1        -0.1504
       5    H1      21.522075   17.553066   22.200098 H          1 MOL1         0.0814
       6    C3      21.121243   19.593221   21.786005 C.2        1 MOL1        -0.1394
       7    H2      21.459219   20.626579   21.861622 H          1 MOL1         0.0817
       8    C4      19.784310   19.390749   21.107145 C.3        1 MOL1        -0.1849
       9    H3      19.811623   18.484730   20.486506 H          1 MOL1         0.0736
      10    H4      19.586574   20.229846   20.426554 H          1 MOL1         0.0736
      11    C5      18.641738   19.281631   22.137503 C.3        1 MOL1        -0.1866
      12    H5      18.835954   18.439872   22.816681 H          1 MOL1         0.0738
      13    H6      18.615152   20.189785   22.755659 H          1 MOL1         0.0738
      14    C6      17.274162   19.084532   21.453097 C.3        1 MOL1        -0.2879
      15    H7      17.040456   19.928994   20.791510 H          1 MOL1         0.0750
      16    H8      17.264216   18.165417   20.852627 H          1 MOL1         0.0750
      17    H9      16.474505   19.009007   22.201412 H          1 MOL1         0.0750
@<TRIPOS>BOND
    1     1     2    1
    2     1     3    2
    3     1     4    1
    4     4     5    1
    5     4     6    2
    6     6     7    1
    7     6     8    1
    8     8     9    1
    9     8    10    1
   10     8    11    1
   11    11    12    1
   12    11    13    1
   13    11    14    1
   14    14    15    1
   15    14    16    1
   16    14    17    1
@<TRIPOS>SUBSTRUCTURE
       1 MOL1            1 RESIDUE      1      MOL     
@<SCITEGIC>MOL_PROPERTY
VConf Rank
SciTegic.value.IntegerValue
773

@<SCITEGIC>MOL_PROPERTY
Conf_Id
SciTegic.value.IntegerValue
36

@<SCITEGIC>MOL_PROPERTY
Delta U+W
SciTegic.value.DoubleValue
0.000

@<SCITEGIC>MOL_PROPERTY
U+W
SciTegic.value.DoubleValue
-53.409

@<SCITEGIC>MOL_PROPERTY
Grad RMS
SciTegic.value.DoubleValue
0.000000

@<SCITEGIC>MOL_PROPERTY
U
SciTegic.value.DoubleValue
9.048

@<SCITEGIC>MOL_PROPERTY
W
SciTegic.value.DoubleValue
-62.457

@<SCITEGIC>MOL_PROPERTY
W(PB)
SciTegic.value.DoubleValue
-64.540

@<SCITEGIC>MOL_PROPERTY
W(SA)
SciTegic.value.DoubleValue
2.084

@<SCITEGIC>MOL_PROPERTY
Valence
SciTegic.value.DoubleValue
2.652

@<SCITEGIC>MOL_PROPERTY
Coulomb
SciTegic.value.DoubleValue
5.578

@<SCITEGIC>MOL_PROPERTY
VdW
SciTegic.value.DoubleValue
0.818

@<SCITEGIC>MOL_PROPERTY
VdW6
SciTegic.value.DoubleValue
-4.534

@<SCITEGIC>MOL_PROPERTY
VdW12
SciTegic.value.DoubleValue
5.352

@<SCITEGIC>MOL_PROPERTY
Bond
SciTegic.value.DoubleValue
0.063

@<SCITEGIC>MOL_PROPERTY
Angle
SciTegic.value.DoubleValue
2.579

@<SCITEGIC>MOL_PROPERTY
Pdih
SciTegic.value.DoubleValue
0.010

@<SCITEGIC>MOL_PROPERTY
Idih
SciTegic.value.DoubleValue
0.000

@<SCITEGIC>MOL_PROPERTY
Tether
SciTegic.value.DoubleValue
0.000

@<TRIPOS>MOLECULE
guest-s19_confgen4.mol2 : confsearch ligand conformer 774
          17          16           1
SMALL
USER_CHARGES
 
@<TRIPOS>ATOM
       1    C1      21.319141   22.156754   22.451662 C.2        1 MOL1         0.6173
       2    O1      21.811393   22.519972   21.399924 O.co2      1 MOL1        -0.6755
       3    O2      21.497341   22.743517   23.501262 O.co2      1 MOL1        -0.6755
       4    C2      20.456301   20.944773   22.479429 C.2        1 MOL1        -0.1504
       5    H1      20.047958   20.675050   23.450724 H          1 MOL1         0.0814
       6    C3      20.173768   20.195550   21.389509 C.2        1 MOL1        -0.1394
       7    H2      20.579370   20.455479   20.411911 H          1 MOL1         0.0817
       8    C4      19.296742   18.963202   21.426714 C.3        1 MOL1        -0.1849
       9    H3      18.859587   18.792756   20.433623 H          1 MOL1         0.0736
      10    H4      18.455647   19.121489   22.115416 H          1 MOL1         0.0736
      11    C5      20.096391   17.717253   21.859370 C.3        1 MOL1        -0.1866
      12    H5      20.935749   17.559774   21.167818 H          1 MOL1         0.0738
      13    H6      20.531093   17.884568   22.854659 H          1 MOL1         0.0738
      14    C6      19.211514   16.454904   21.890865 C.3        1 MOL1        -0.2879
      15    H7      18.789016   16.246289   20.899197 H          1 MOL1         0.0750
      16    H8      19.797282   15.579624   22.200527 H          1 MOL1         0.0750
      17    H9      18.381198   16.574776   22.599132 H          1 MOL1         0.0750
@<TRIPOS>BOND
    1     1     2    1
    2     1     3    2
    3     1     4    1
    4     4     5    1
    5     4     6    2
    6     6     7    1
    7     6     8    1
    8     8     9    1
    9     8    10    1
   10     8    11    1
   11    11    12    1
   12    11    13    1
   13    11    14    1
   14    14    15    1
   15    14    16    1
   16    14    17    1
@<TRIPOS>SUBSTRUCTURE
       1 MOL1            1 RESIDUE      1      MOL     
@<SCITEGIC>MOL_PROPERTY
VConf Rank
SciTegic.value.IntegerValue
774

@<SCITEGIC>MOL_PROPERTY
Conf_Id
SciTegic.value.IntegerValue
1

@<SCITEGIC>MOL_PROPERTY
Delta U+W
SciTegic.value.DoubleValue
0.030

@<SCITEGIC>MOL_PROPERTY
U+W
SciTegic.value.DoubleValue
-53.378

@<SCITEGIC>MOL_PROPERTY
Grad RMS
SciTegic.value.DoubleValue
0.000000

@<SCITEGIC>MOL_PROPERTY
U
SciTegic.value.DoubleValue
9.048

@<SCITEGIC>MOL_PROPERTY
W
SciTegic.value.DoubleValue
-62.426

@<SCITEGIC>MOL_PROPERTY
W(PB)
SciTegic.value.DoubleValue
-64.506

@<SCITEGIC>MOL_PROPERTY
W(SA)
SciTegic.value.DoubleValue
2.080

@<SCITEGIC>MOL_PROPERTY
Valence
SciTegic.value.DoubleValue
2.652

@<SCITEGIC>MOL_PROPERTY
Coulomb
SciTegic.value.DoubleValue
5.578

@<SCITEGIC>MOL_PROPERTY
VdW
SciTegic.value.DoubleValue
0.818

@<SCITEGIC>MOL_PROPERTY
VdW6
SciTegic.value.DoubleValue
-4.535

@<SCITEGIC>MOL_PROPERTY
VdW12
SciTegic.value.DoubleValue
5.352

@<SCITEGIC>MOL_PROPERTY
Bond
SciTegic.value.DoubleValue
0.063

@<SCITEGIC>MOL_PROPERTY
Angle
SciTegic.value.DoubleValue
2.579

@<SCITEGIC>MOL_PROPERTY
Pdih
SciTegic.value.DoubleValue
0.010

@<SCITEGIC>MOL_PROPERTY
Idih
SciTegic.value.DoubleValue
0.000

@<SCITEGIC>MOL_PROPERTY
Tether
SciTegic.value.DoubleValue
0.000

@<TRIPOS>MOLECULE
guest-s19_confgen4.mol2 : confsearch ligand conformer 775
          17          16           1
SMALL
USER_CHARGES
 
@<TRIPOS>ATOM
       1    C1      19.829912   20.561754   19.349790 C.2        1 MOL1         0.6173
       2    O1      20.632703   19.922913   18.695688 O.co2      1 MOL1        -0.6755
       3    O2      19.016844   21.312249   18.846313 O.co2      1 MOL1        -0.6755
       4    C2      19.825674   20.438679   20.832668 C.2        1 MOL1        -0.1504
       5    H1      19.083936   21.037107   21.356566 H          1 MOL1         0.0814
       6    C3      20.671088   19.642018   21.525193 C.2        1 MOL1        -0.1394
       7    H2      21.415837   19.035658   21.010144 H          1 MOL1         0.0817
       8    C4      20.658288   19.518939   23.034399 C.3        1 MOL1        -0.1849
       9    H3      20.502751   20.509267   23.483383 H          1 MOL1         0.0736
      10    H4      21.638579   19.172747   23.388622 H          1 MOL1         0.0736
      11    C5      19.558807   18.557253   23.536260 C.3        1 MOL1        -0.1866
      12    H5      19.527667   18.588905   24.634068 H          1 MOL1         0.0738
      13    H6      18.576502   18.901783   23.184403 H          1 MOL1         0.0738
      14    C6      19.793138   17.101359   23.080000 C.3        1 MOL1        -0.2879
      15    H7      20.765005   16.731241   23.431614 H          1 MOL1         0.0750
      16    H8      19.013579   16.440988   23.481379 H          1 MOL1         0.0750
      17    H9      19.771247   17.020939   21.985343 H          1 MOL1         0.0750
@<TRIPOS>BOND
    1     1     2    1
    2     1     3    2
    3     1     4    1
    4     4     5    1
    5     4     6    2
    6     6     7    1
    7     6     8    1
    8     8     9    1
    9     8    10    1
   10     8    11    1
   11    11    12    1
   12    11    13    1
   13    11    14    1
   14    14    15    1
   15    14    16    1
   16    14    17    1
@<TRIPOS>SUBSTRUCTURE
       1 MOL1            1 RESIDUE      1      MOL     
@<SCITEGIC>MOL_PROPERTY
VConf Rank
SciTegic.value.IntegerValue
775

@<SCITEGIC>MOL_PROPERTY
Conf_Id
SciTegic.value.IntegerValue
3

@<SCITEGIC>MOL_PROPERTY
Delta U+W
SciTegic.value.DoubleValue
0.531

@<SCITEGIC>MOL_PROPERTY
U+W
SciTegic.value.DoubleValue
-52.878

@<SCITEGIC>MOL_PROPERTY
Grad RMS
SciTegic.value.DoubleValue
0.000000

@<SCITEGIC>MOL_PROPERTY
U
SciTegic.value.DoubleValue
10.067

@<SCITEGIC>MOL_PROPERTY
W
SciTegic.value.DoubleValue
-62.945

@<SCITEGIC>MOL_PROPERTY
W(PB)
SciTegic.value.DoubleValue
-64.982

@<SCITEGIC>MOL_PROPERTY
W(SA)
SciTegic.value.DoubleValue
2.037

@<SCITEGIC>MOL_PROPERTY
Valence
SciTegic.value.DoubleValue
2.779

@<SCITEGIC>MOL_PROPERTY
Coulomb
SciTegic.value.DoubleValue
6.474

@<SCITEGIC>MOL_PROPERTY
VdW
SciTegic.value.DoubleValue
0.815

@<SCITEGIC>MOL_PROPERTY
VdW6
SciTegic.value.DoubleValue
-5.088

@<SCITEGIC>MOL_PROPERTY
VdW12
SciTegic.value.DoubleValue
5.902

@<SCITEGIC>MOL_PROPERTY
Bond
SciTegic.value.DoubleValue
0.078

@<SCITEGIC>MOL_PROPERTY
Angle
SciTegic.value.DoubleValue
2.651

@<SCITEGIC>MOL_PROPERTY
Pdih
SciTegic.value.DoubleValue
0.050

@<SCITEGIC>MOL_PROPERTY
Idih
SciTegic.value.DoubleValue
0.000

@<SCITEGIC>MOL_PROPERTY
Tether
SciTegic.value.DoubleValue
0.000

@<TRIPOS>MOLECULE
guest-s19_confgen4.mol2 : confsearch ligand conformer 776
          17          16           1
SMALL
USER_CHARGES
 
@<TRIPOS>ATOM
       1    C1      21.452574   16.743172   20.898200 C.2        1 MOL1         0.6173
       2    O1      21.117893   15.986363   20.007690 O.co2      1 MOL1        -0.6755
       3    O2      22.304511   16.460553   21.719648 O.co2      1 MOL1        -0.6755
       4    C2      20.778802   18.068249   20.963584 C.2        1 MOL1        -0.1504
       5    H1      20.027900   18.256252   20.199707 H          1 MOL1         0.0814
       6    C3      21.049508   19.005892   21.900135 C.2        1 MOL1        -0.1394
       7    H2      21.797750   18.824266   22.671279 H          1 MOL1         0.0817
       8    C4      20.359904   20.352918   21.965741 C.3        1 MOL1        -0.1849
       9    H3      19.864859   20.580468   21.011859 H          1 MOL1         0.0736
      10    H4      21.116014   21.135879   22.111617 H          1 MOL1         0.0736
      11    C5      19.331434   20.429518   23.115327 C.3        1 MOL1        -0.1866
      12    H5      19.825273   20.199425   24.069602 H          1 MOL1         0.0738
      13    H6      18.959172   21.460171   23.195171 H          1 MOL1         0.0738
      14    C6      18.134598   19.477376   22.905953 C.3        1 MOL1        -0.2879
      15    H7      18.460910   18.429446   22.885506 H          1 MOL1         0.0750
      16    H8      17.406892   19.587117   23.720365 H          1 MOL1         0.0750
      17    H9      17.620886   19.694654   21.960446 H          1 MOL1         0.0750
@<TRIPOS>BOND
    1     1     2    1
    2     1     3    2
    3     1     4    1
    4     4     5    1
    5     4     6    2
    6     6     7    1
    7     6     8    1
    8     8     9    1
    9     8    10    1
   10     8    11    1
   11    11    12    1
   12    11    13    1
   13    11    14    1
   14    14    15    1
   15    14    16    1
   16    14    17    1
@<TRIPOS>SUBSTRUCTURE
       1 MOL1            1 RESIDUE      1      MOL     
@<SCITEGIC>MOL_PROPERTY
VConf Rank
SciTegic.value.IntegerValue
776

@<SCITEGIC>MOL_PROPERTY
Conf_Id
SciTegic.value.IntegerValue
45

@<SCITEGIC>MOL_PROPERTY
Delta U+W
SciTegic.value.DoubleValue
0.562

@<SCITEGIC>MOL_PROPERTY
U+W
SciTegic.value.DoubleValue
-52.846

@<SCITEGIC>MOL_PROPERTY
Grad RMS
SciTegic.value.DoubleValue
0.000000

@<SCITEGIC>MOL_PROPERTY
U
SciTegic.value.DoubleValue
10.243

@<SCITEGIC>MOL_PROPERTY
W
SciTegic.value.DoubleValue
-63.089

@<SCITEGIC>MOL_PROPERTY
W(PB)
SciTegic.value.DoubleValue
-65.116

@<SCITEGIC>MOL_PROPERTY
W(SA)
SciTegic.value.DoubleValue
2.026

@<SCITEGIC>MOL_PROPERTY
Valence
SciTegic.value.DoubleValue
2.822

@<SCITEGIC>MOL_PROPERTY
Coulomb
SciTegic.value.DoubleValue
6.637

@<SCITEGIC>MOL_PROPERTY
VdW
SciTegic.value.DoubleValue
0.785

@<SCITEGIC>MOL_PROPERTY
VdW6
SciTegic.value.DoubleValue
-5.216

@<SCITEGIC>MOL_PROPERTY
VdW12
SciTegic.value.DoubleValue
6.001

@<SCITEGIC>MOL_PROPERTY
Bond
SciTegic.value.DoubleValue
0.080

@<SCITEGIC>MOL_PROPERTY
Angle
SciTegic.value.DoubleValue
2.678

@<SCITEGIC>MOL_PROPERTY
Pdih
SciTegic.value.DoubleValue
0.064

@<SCITEGIC>MOL_PROPERTY
Idih
SciTegic.value.DoubleValue
0.000

@<SCITEGIC>MOL_PROPERTY
Tether
SciTegic.value.DoubleValue
0.000

@<TRIPOS>MOLECULE
guest-s19_confgen4.mol2 : confsearch ligand conformer 777
          17          16           1
SMALL
USER_CHARGES
 
@<TRIPOS>ATOM
       1    C1      19.521586   22.304380   22.913866 C.2        1 MOL1         0.6173
       2    O1      20.263591   23.029886   23.546932 O.co2      1 MOL1        -0.6755
       3    O2      18.347882   22.563126   22.724489 O.co2      1 MOL1        -0.6755
       4    C2      20.097380   21.051354   22.354806 C.2        1 MOL1        -0.1504
       5    H1      21.151615   20.880453   22.560449 H          1 MOL1         0.0814
       6    C3      19.389479   20.153008   21.633046 C.2        1 MOL1        -0.1394
       7    H2      18.332093   20.313157   21.423140 H          1 MOL1         0.0817
       8    C4      19.982208   18.879926   21.069866 C.3        1 MOL1        -0.1849
       9    H3      21.003120   19.067904   20.710406 H          1 MOL1         0.0736
      10    H4      19.398311   18.556882   20.197459 H          1 MOL1         0.0736
      11    C5      20.000581   17.754275   22.124183 C.3        1 MOL1        -0.1866
      12    H5      20.587961   18.074315   22.996031 H          1 MOL1         0.0738
      13    H6      18.978179   17.566701   22.480665 H          1 MOL1         0.0738
      14    C6      20.594724   16.450180   21.555099 C.3        1 MOL1        -0.2879
      15    H7      20.006612   16.090460   20.700607 H          1 MOL1         0.0750
      16    H8      21.628861   16.603261   21.219596 H          1 MOL1         0.0750
      17    H9      20.599564   15.661768   22.318980 H          1 MOL1         0.0750
@<TRIPOS>BOND
    1     1     2    1
    2     1     3    2
    3     1     4    1
    4     4     5    1
    5     4     6    2
    6     6     7    1
    7     6     8    1
    8     8     9    1
    9     8    10    1
   10     8    11    1
   11    11    12    1
   12    11    13    1
   13    11    14    1
   14    14    15    1
   15    14    16    1
   16    14    17    1
@<TRIPOS>SUBSTRUCTURE
       1 MOL1            1 RESIDUE      1      MOL     
@<SCITEGIC>MOL_PROPERTY
VConf Rank
SciTegic.value.IntegerValue
777

@<SCITEGIC>MOL_PROPERTY
Conf_Id
SciTegic.value.IntegerValue
36

@<SCITEGIC>MOL_PROPERTY
Delta U+W
SciTegic.value.DoubleValue
0.000

@<SCITEGIC>MOL_PROPERTY
U+W
SciTegic.value.DoubleValue
-53.409

@<SCITEGIC>MOL_PROPERTY
Grad RMS
SciTegic.value.DoubleValue
0.000000

@<SCITEGIC>MOL_PROPERTY
U
SciTegic.value.DoubleValue
9.048

@<SCITEGIC>MOL_PROPERTY
W
SciTegic.value.DoubleValue
-62.457

@<SCITEGIC>MOL_PROPERTY
W(PB)
SciTegic.value.DoubleValue
-64.540

@<SCITEGIC>MOL_PROPERTY
W(SA)
SciTegic.value.DoubleValue
2.084

@<SCITEGIC>MOL_PROPERTY
Valence
SciTegic.value.DoubleValue
2.652

@<SCITEGIC>MOL_PROPERTY
Coulomb
SciTegic.value.DoubleValue
5.578

@<SCITEGIC>MOL_PROPERTY
VdW
SciTegic.value.DoubleValue
0.818

@<SCITEGIC>MOL_PROPERTY
VdW6
SciTegic.value.DoubleValue
-4.534

@<SCITEGIC>MOL_PROPERTY
VdW12
SciTegic.value.DoubleValue
5.352

@<SCITEGIC>MOL_PROPERTY
Bond
SciTegic.value.DoubleValue
0.063

@<SCITEGIC>MOL_PROPERTY
Angle
SciTegic.value.DoubleValue
2.579

@<SCITEGIC>MOL_PROPERTY
Pdih
SciTegic.value.DoubleValue
0.010

@<SCITEGIC>MOL_PROPERTY
Idih
SciTegic.value.DoubleValue
0.000

@<SCITEGIC>MOL_PROPERTY
Tether
SciTegic.value.DoubleValue
0.000

@<TRIPOS>MOLECULE
guest-s19_confgen4.mol2 : confsearch ligand conformer 778
          17          16           1
SMALL
USER_CHARGES
 
@<TRIPOS>ATOM
       1    C1      17.320990   17.843515   23.514519 C.2        1 MOL1         0.6173
       2    O1      16.484976   17.603577   22.663693 O.co2      1 MOL1        -0.6755
       3    O2      17.077264   17.817632   24.705163 O.co2      1 MOL1        -0.6755
       4    C2      18.710040   18.184768   23.104337 C.2        1 MOL1        -0.1504
       5    H1      19.407547   18.387932   23.913731 H          1 MOL1         0.0814
       6    C3      19.121109   18.251509   21.817615 C.2        1 MOL1        -0.1394
       7    H2      18.430055   18.051993   20.998829 H          1 MOL1         0.0817
       8    C4      20.535310   18.601149   21.408925 C.3        1 MOL1        -0.1849
       9    H3      20.747398   18.176938   20.418243 H          1 MOL1         0.0736
      10    H4      21.251432   18.143182   22.104799 H          1 MOL1         0.0736
      11    C5      20.748516   20.128322   21.372834 C.3        1 MOL1        -0.1866
      12    H5      20.032612   20.583826   20.674577 H          1 MOL1         0.0738
      13    H6      20.540677   20.553855   22.364442 H          1 MOL1         0.0738
      14    C6      22.185170   20.493195   20.948077 C.3        1 MOL1        -0.2879
      15    H7      22.408709   20.106316   19.945189 H          1 MOL1         0.0750
      16    H8      22.317644   21.582775   20.928182 H          1 MOL1         0.0750
      17    H9      22.920044   20.075248   21.648588 H          1 MOL1         0.0750
@<TRIPOS>BOND
    1     1     2    1
    2     1     3    2
    3     1     4    1
    4     4     5    1
    5     4     6    2
    6     6     7    1
    7     6     8    1
    8     8     9    1
    9     8    10    1
   10     8    11    1
   11    11    12    1
   12    11    13    1
   13    11    14    1
   14    14    15    1
   15    14    16    1
   16    14    17    1
@<TRIPOS>SUBSTRUCTURE
       1 MOL1            1 RESIDUE      1      MOL     
@<SCITEGIC>MOL_PROPERTY
VConf Rank
SciTegic.value.IntegerValue
778

@<SCITEGIC>MOL_PROPERTY
Conf_Id
SciTegic.value.IntegerValue
1

@<SCITEGIC>MOL_PROPERTY
Delta U+W
SciTegic.value.DoubleValue
0.030

@<SCITEGIC>MOL_PROPERTY
U+W
SciTegic.value.DoubleValue
-53.378

@<SCITEGIC>MOL_PROPERTY
Grad RMS
SciTegic.value.DoubleValue
0.000000

@<SCITEGIC>MOL_PROPERTY
U
SciTegic.value.DoubleValue
9.048

@<SCITEGIC>MOL_PROPERTY
W
SciTegic.value.DoubleValue
-62.426

@<SCITEGIC>MOL_PROPERTY
W(PB)
SciTegic.value.DoubleValue
-64.506

@<SCITEGIC>MOL_PROPERTY
W(SA)
SciTegic.value.DoubleValue
2.080

@<SCITEGIC>MOL_PROPERTY
Valence
SciTegic.value.DoubleValue
2.652

@<SCITEGIC>MOL_PROPERTY
Coulomb
SciTegic.value.DoubleValue
5.578

@<SCITEGIC>MOL_PROPERTY
VdW
SciTegic.value.DoubleValue
0.818

@<SCITEGIC>MOL_PROPERTY
VdW6
SciTegic.value.DoubleValue
-4.535

@<SCITEGIC>MOL_PROPERTY
VdW12
SciTegic.value.DoubleValue
5.352

@<SCITEGIC>MOL_PROPERTY
Bond
SciTegic.value.DoubleValue
0.063

@<SCITEGIC>MOL_PROPERTY
Angle
SciTegic.value.DoubleValue
2.579

@<SCITEGIC>MOL_PROPERTY
Pdih
SciTegic.value.DoubleValue
0.010

@<SCITEGIC>MOL_PROPERTY
Idih
SciTegic.value.DoubleValue
0.000

@<SCITEGIC>MOL_PROPERTY
Tether
SciTegic.value.DoubleValue
0.000

@<TRIPOS>MOLECULE
guest-s19_confgen4.mol2 : confsearch ligand conformer 779
          17          16           1
SMALL
USER_CHARGES
 
@<TRIPOS>ATOM
       1    C1      20.595212   16.289568   20.894997 C.2        1 MOL1         0.6173
       2    O1      21.745055   16.438452   20.526030 O.co2      1 MOL1        -0.6755
       3    O2      20.078125   15.196307   21.018332 O.co2      1 MOL1        -0.6755
       4    C2      19.764254   17.482571   21.211768 C.2        1 MOL1        -0.1504
       5    H1      18.745829   17.279532   21.534795 H          1 MOL1         0.0814
       6    C3      20.208955   18.756507   21.120586 C.2        1 MOL1        -0.1394
       7    H2      21.228537   18.971175   20.801260 H          1 MOL1         0.0817
       8    C4      19.358497   19.965741   21.448437 C.3        1 MOL1        -0.1849
       9    H3      18.340515   19.815150   21.064302 H          1 MOL1         0.0736
      10    H4      19.753169   20.850537   20.931074 H          1 MOL1         0.0736
      11    C5      19.290950   20.242543   22.966455 C.3        1 MOL1        -0.1866
      12    H5      18.580552   21.060072   23.151215 H          1 MOL1         0.0738
      13    H6      18.895194   19.359327   23.486776 H          1 MOL1         0.0738
      14    C6      20.664046   20.623627   23.559831 C.3        1 MOL1        -0.2879
      15    H7      21.073577   21.512642   23.062757 H          1 MOL1         0.0750
      16    H8      20.573284   20.845802   24.630956 H          1 MOL1         0.0750
      17    H9      21.385805   19.804245   23.446263 H          1 MOL1         0.0750
@<TRIPOS>BOND
    1     1     2    1
    2     1     3    2
    3     1     4    1
    4     4     5    1
    5     4     6    2
    6     6     7    1
    7     6     8    1
    8     8     9    1
    9     8    10    1
   10     8    11    1
   11    11    12    1
   12    11    13    1
   13    11    14    1
   14    14    15    1
   15    14    16    1
   16    14    17    1
@<TRIPOS>SUBSTRUCTURE
       1 MOL1            1 RESIDUE      1      MOL     
@<SCITEGIC>MOL_PROPERTY
VConf Rank
SciTegic.value.IntegerValue
779

@<SCITEGIC>MOL_PROPERTY
Conf_Id
SciTegic.value.IntegerValue
3

@<SCITEGIC>MOL_PROPERTY
Delta U+W
SciTegic.value.DoubleValue
0.531

@<SCITEGIC>MOL_PROPERTY
U+W
SciTegic.value.DoubleValue
-52.878

@<SCITEGIC>MOL_PROPERTY
Grad RMS
SciTegic.value.DoubleValue
0.000000

@<SCITEGIC>MOL_PROPERTY
U
SciTegic.value.DoubleValue
10.067

@<SCITEGIC>MOL_PROPERTY
W
SciTegic.value.DoubleValue
-62.945

@<SCITEGIC>MOL_PROPERTY
W(PB)
SciTegic.value.DoubleValue
-64.982

@<SCITEGIC>MOL_PROPERTY
W(SA)
SciTegic.value.DoubleValue
2.037

@<SCITEGIC>MOL_PROPERTY
Valence
SciTegic.value.DoubleValue
2.779

@<SCITEGIC>MOL_PROPERTY
Coulomb
SciTegic.value.DoubleValue
6.474

@<SCITEGIC>MOL_PROPERTY
VdW
SciTegic.value.DoubleValue
0.815

@<SCITEGIC>MOL_PROPERTY
VdW6
SciTegic.value.DoubleValue
-5.088

@<SCITEGIC>MOL_PROPERTY
VdW12
SciTegic.value.DoubleValue
5.902

@<SCITEGIC>MOL_PROPERTY
Bond
SciTegic.value.DoubleValue
0.078

@<SCITEGIC>MOL_PROPERTY
Angle
SciTegic.value.DoubleValue
2.651

@<SCITEGIC>MOL_PROPERTY
Pdih
SciTegic.value.DoubleValue
0.050

@<SCITEGIC>MOL_PROPERTY
Idih
SciTegic.value.DoubleValue
0.000

@<SCITEGIC>MOL_PROPERTY
Tether
SciTegic.value.DoubleValue
0.000

@<TRIPOS>MOLECULE
guest-s19_confgen4.mol2 : confsearch ligand conformer 780
          17          16           1
SMALL
USER_CHARGES
 
@<TRIPOS>ATOM
       1    C1      19.843332   16.405474   23.433982 C.2        1 MOL1         0.6173
       2    O1      19.157554   16.042957   24.369968 O.co2      1 MOL1        -0.6755
       3    O2      20.865496   15.833927   23.103887 O.co2      1 MOL1        -0.6755
       4    C2      19.390377   17.600827   22.672382 C.2        1 MOL1        -0.1504
       5    H1      18.469545   18.063302   23.020080 H          1 MOL1         0.0814
       6    C3      20.054760   18.115288   21.612425 C.2        1 MOL1        -0.1394
       7    H2      20.980043   17.660309   21.259773 H          1 MOL1         0.0817
       8    C4      19.592553   19.334016   20.840802 C.3        1 MOL1        -0.1849
       9    H3      18.534025   19.543299   21.046857 H          1 MOL1         0.0736
      10    H4      19.658220   19.123218   19.765041 H          1 MOL1         0.0736
      11    C5      20.440279   20.585228   21.158603 C.3        1 MOL1        -0.1866
      12    H5      21.499657   20.375877   20.955258 H          1 MOL1         0.0738
      13    H6      20.145748   21.399124   20.481829 H          1 MOL1         0.0738
      14    C6      20.274514   21.059960   22.618049 C.3        1 MOL1        -0.2879
      15    H7      20.620357   20.294865   23.325209 H          1 MOL1         0.0750
      16    H8      20.859421   21.971541   22.796293 H          1 MOL1         0.0750
      17    H9      19.223000   21.282510   22.841393 H          1 MOL1         0.0750
@<TRIPOS>BOND
    1     1     2    1
    2     1     3    2
    3     1     4    1
    4     4     5    1
    5     4     6    2
    6     6     7    1
    7     6     8    1
    8     8     9    1
    9     8    10    1
   10     8    11    1
   11    11    12    1
   12    11    13    1
   13    11    14    1
   14    14    15    1
   15    14    16    1
   16    14    17    1
@<TRIPOS>SUBSTRUCTURE
       1 MOL1            1 RESIDUE      1      MOL     
@<SCITEGIC>MOL_PROPERTY
VConf Rank
SciTegic.value.IntegerValue
780

@<SCITEGIC>MOL_PROPERTY
Conf_Id
SciTegic.value.IntegerValue
45

@<SCITEGIC>MOL_PROPERTY
Delta U+W
SciTegic.value.DoubleValue
0.562

@<SCITEGIC>MOL_PROPERTY
U+W
SciTegic.value.DoubleValue
-52.846

@<SCITEGIC>MOL_PROPERTY
Grad RMS
SciTegic.value.DoubleValue
0.000000

@<SCITEGIC>MOL_PROPERTY
U
SciTegic.value.DoubleValue
10.243

@<SCITEGIC>MOL_PROPERTY
W
SciTegic.value.DoubleValue
-63.089

@<SCITEGIC>MOL_PROPERTY
W(PB)
SciTegic.value.DoubleValue
-65.116

@<SCITEGIC>MOL_PROPERTY
W(SA)
SciTegic.value.DoubleValue
2.026

@<SCITEGIC>MOL_PROPERTY
Valence
SciTegic.value.DoubleValue
2.822

@<SCITEGIC>MOL_PROPERTY
Coulomb
SciTegic.value.DoubleValue
6.637

@<SCITEGIC>MOL_PROPERTY
VdW
SciTegic.value.DoubleValue
0.785

@<SCITEGIC>MOL_PROPERTY
VdW6
SciTegic.value.DoubleValue
-5.216

@<SCITEGIC>MOL_PROPERTY
VdW12
SciTegic.value.DoubleValue
6.001

@<SCITEGIC>MOL_PROPERTY
Bond
SciTegic.value.DoubleValue
0.080

@<SCITEGIC>MOL_PROPERTY
Angle
SciTegic.value.DoubleValue
2.678

@<SCITEGIC>MOL_PROPERTY
Pdih
SciTegic.value.DoubleValue
0.064

@<SCITEGIC>MOL_PROPERTY
Idih
SciTegic.value.DoubleValue
0.000

@<SCITEGIC>MOL_PROPERTY
Tether
SciTegic.value.DoubleValue
0.000

@<TRIPOS>MOLECULE
guest-s19_confgen4.mol2 : confsearch ligand conformer 781
          17          16           1
SMALL
USER_CHARGES
 
@<TRIPOS>ATOM
       1    C1      18.475348   16.777807   20.016381 C.2        1 MOL1         0.6173
       2    O1      18.748730   16.402036   18.893099 O.co2      1 MOL1        -0.6755
       3    O2      17.425818   16.503769   20.567547 O.co2      1 MOL1        -0.6755
       4    C2      19.484991   17.606792   20.728818 C.2        1 MOL1        -0.1504
       5    H1      20.400693   17.814968   20.180128 H          1 MOL1         0.0814
       6    C3      19.314189   18.093196   21.979147 C.2        1 MOL1        -0.1394
       7    H2      18.399651   17.892677   22.536988 H          1 MOL1         0.0817
       8    C4      20.345199   18.937407   22.695780 C.3        1 MOL1        -0.1849
       9    H3      21.354991   18.567067   22.472224 H          1 MOL1         0.0736
      10    H4      20.209973   18.840151   23.781433 H          1 MOL1         0.0736
      11    C5      20.234210   20.422095   22.292796 C.3        1 MOL1        -0.1866
      12    H5      20.373470   20.521624   21.207319 H          1 MOL1         0.0738
      13    H6      19.224067   20.790750   22.519233 H          1 MOL1         0.0738
      14    C6      21.275729   21.290970   23.026160 C.3        1 MOL1        -0.2879
      15    H7      21.138535   21.234642   24.114018 H          1 MOL1         0.0750
      16    H8      22.296687   20.962148   22.791733 H          1 MOL1         0.0750
      17    H9      21.181469   22.342938   22.726813 H          1 MOL1         0.0750
@<TRIPOS>BOND
    1     1     2    1
    2     1     3    2
    3     1     4    1
    4     4     5    1
    5     4     6    2
    6     6     7    1
    7     6     8    1
    8     8     9    1
    9     8    10    1
   10     8    11    1
   11    11    12    1
   12    11    13    1
   13    11    14    1
   14    14    15    1
   15    14    16    1
   16    14    17    1
@<TRIPOS>SUBSTRUCTURE
       1 MOL1            1 RESIDUE      1      MOL     
@<SCITEGIC>MOL_PROPERTY
VConf Rank
SciTegic.value.IntegerValue
781

@<SCITEGIC>MOL_PROPERTY
Conf_Id
SciTegic.value.IntegerValue
36

@<SCITEGIC>MOL_PROPERTY
Delta U+W
SciTegic.value.DoubleValue
0.000

@<SCITEGIC>MOL_PROPERTY
U+W
SciTegic.value.DoubleValue
-53.409

@<SCITEGIC>MOL_PROPERTY
Grad RMS
SciTegic.value.DoubleValue
0.000000

@<SCITEGIC>MOL_PROPERTY
U
SciTegic.value.DoubleValue
9.048

@<SCITEGIC>MOL_PROPERTY
W
SciTegic.value.DoubleValue
-62.457

@<SCITEGIC>MOL_PROPERTY
W(PB)
SciTegic.value.DoubleValue
-64.540

@<SCITEGIC>MOL_PROPERTY
W(SA)
SciTegic.value.DoubleValue
2.084

@<SCITEGIC>MOL_PROPERTY
Valence
SciTegic.value.DoubleValue
2.652

@<SCITEGIC>MOL_PROPERTY
Coulomb
SciTegic.value.DoubleValue
5.578

@<SCITEGIC>MOL_PROPERTY
VdW
SciTegic.value.DoubleValue
0.818

@<SCITEGIC>MOL_PROPERTY
VdW6
SciTegic.value.DoubleValue
-4.534

@<SCITEGIC>MOL_PROPERTY
VdW12
SciTegic.value.DoubleValue
5.352

@<SCITEGIC>MOL_PROPERTY
Bond
SciTegic.value.DoubleValue
0.063

@<SCITEGIC>MOL_PROPERTY
Angle
SciTegic.value.DoubleValue
2.579

@<SCITEGIC>MOL_PROPERTY
Pdih
SciTegic.value.DoubleValue
0.010

@<SCITEGIC>MOL_PROPERTY
Idih
SciTegic.value.DoubleValue
0.000

@<SCITEGIC>MOL_PROPERTY
Tether
SciTegic.value.DoubleValue
0.000

@<TRIPOS>MOLECULE
guest-s19_confgen4.mol2 : confsearch ligand conformer 782
          17          16           1
SMALL
USER_CHARGES
 
@<TRIPOS>ATOM
       1    C1      22.650633   18.241880   19.989762 C.2        1 MOL1         0.6173
       2    O1      22.733827   17.028458   20.022610 O.co2      1 MOL1        -0.6755
       3    O2      23.516659   18.950204   19.514387 O.co2      1 MOL1        -0.6755
       4    C2      21.444845   18.911219   20.548532 C.2        1 MOL1        -0.1504
       5    H1      21.433647   19.997064   20.487511 H          1 MOL1         0.0814
       6    C3      20.406583   18.249371   21.108044 C.2        1 MOL1        -0.1394
       7    H2      20.408443   17.161662   21.176311 H          1 MOL1         0.0817
       8    C4      19.184725   18.937881   21.675720 C.3        1 MOL1        -0.1849
       9    H3      18.331460   18.246497   21.658023 H          1 MOL1         0.0736
      10    H4      18.907588   19.792532   21.043602 H          1 MOL1         0.0736
      11    C5      19.430542   19.417422   23.120930 C.3        1 MOL1        -0.1866
      12    H5      19.705444   18.560572   23.751646 H          1 MOL1         0.0738
      13    H6      20.281454   20.112514   23.139798 H          1 MOL1         0.0738
      14    C6      18.186491   20.112209   23.710110 C.3        1 MOL1        -0.2879
      15    H7      17.327921   19.428253   23.732293 H          1 MOL1         0.0750
      16    H8      18.380312   20.446088   24.737771 H          1 MOL1         0.0750
      17    H9      17.908916   20.991908   23.114696 H          1 MOL1         0.0750
@<TRIPOS>BOND
    1     1     2    1
    2     1     3    2
    3     1     4    1
    4     4     5    1
    5     4     6    2
    6     6     7    1
    7     6     8    1
    8     8     9    1
    9     8    10    1
   10     8    11    1
   11    11    12    1
   12    11    13    1
   13    11    14    1
   14    14    15    1
   15    14    16    1
   16    14    17    1
@<TRIPOS>SUBSTRUCTURE
       1 MOL1            1 RESIDUE      1      MOL     
@<SCITEGIC>MOL_PROPERTY
VConf Rank
SciTegic.value.IntegerValue
782

@<SCITEGIC>MOL_PROPERTY
Conf_Id
SciTegic.value.IntegerValue
1

@<SCITEGIC>MOL_PROPERTY
Delta U+W
SciTegic.value.DoubleValue
0.030

@<SCITEGIC>MOL_PROPERTY
U+W
SciTegic.value.DoubleValue
-53.378

@<SCITEGIC>MOL_PROPERTY
Grad RMS
SciTegic.value.DoubleValue
0.000000

@<SCITEGIC>MOL_PROPERTY
U
SciTegic.value.DoubleValue
9.048

@<SCITEGIC>MOL_PROPERTY
W
SciTegic.value.DoubleValue
-62.426

@<SCITEGIC>MOL_PROPERTY
W(PB)
SciTegic.value.DoubleValue
-64.506

@<SCITEGIC>MOL_PROPERTY
W(SA)
SciTegic.value.DoubleValue
2.080

@<SCITEGIC>MOL_PROPERTY
Valence
SciTegic.value.DoubleValue
2.652

@<SCITEGIC>MOL_PROPERTY
Coulomb
SciTegic.value.DoubleValue
5.578

@<SCITEGIC>MOL_PROPERTY
VdW
SciTegic.value.DoubleValue
0.818

@<SCITEGIC>MOL_PROPERTY
VdW6
SciTegic.value.DoubleValue
-4.535

@<SCITEGIC>MOL_PROPERTY
VdW12
SciTegic.value.DoubleValue
5.352

@<SCITEGIC>MOL_PROPERTY
Bond
SciTegic.value.DoubleValue
0.063

@<SCITEGIC>MOL_PROPERTY
Angle
SciTegic.value.DoubleValue
2.579

@<SCITEGIC>MOL_PROPERTY
Pdih
SciTegic.value.DoubleValue
0.010

@<SCITEGIC>MOL_PROPERTY
Idih
SciTegic.value.DoubleValue
0.000

@<SCITEGIC>MOL_PROPERTY
Tether
SciTegic.value.DoubleValue
0.000

@<TRIPOS>MOLECULE
guest-s19_confgen4.mol2 : confsearch ligand conformer 783
          17          16           1
SMALL
USER_CHARGES
 
@<TRIPOS>ATOM
       1    C1      20.078445   20.761897   24.637613 C.2        1 MOL1         0.6173
       2    O1      19.351960   20.093168   25.348572 O.co2      1 MOL1        -0.6755
       3    O2      20.815382   21.625008   25.073243 O.co2      1 MOL1        -0.6755
       4    C2      20.080323   20.534454   23.167117 C.2        1 MOL1        -0.1504
       5    H1      20.751533   21.166170   22.589906 H          1 MOL1         0.0814
       6    C3      19.314035   19.608769   22.546717 C.2        1 MOL1        -0.1394
       7    H2      18.640555   18.968246   23.115709 H          1 MOL1         0.0817
       8    C4      19.324165   19.380316   21.049813 C.3        1 MOL1        -0.1849
       9    H3      19.372894   20.346762   20.530069 H          1 MOL1         0.0736
      10    H4      18.380978   18.912059   20.737679 H          1 MOL1         0.0736
      11    C5      20.511268   18.501838   20.597458 C.3        1 MOL1        -0.1866
      12    H5      20.527936   18.458118   19.499749 H          1 MOL1         0.0738
      13    H6      21.456605   18.968480   20.907314 H          1 MOL1         0.0738
      14    C6      20.431933   17.065943   21.158371 C.3        1 MOL1        -0.2879
      15    H7      19.499603   16.574987   20.850365 H          1 MOL1         0.0750
      16    H8      21.270959   16.461155   20.790709 H          1 MOL1         0.0750
      17    H9      20.472981   17.066427   22.255429 H          1 MOL1         0.0750
@<TRIPOS>BOND
    1     1     2    1
    2     1     3    2
    3     1     4    1
    4     4     5    1
    5     4     6    2
    6     6     7    1
    7     6     8    1
    8     8     9    1
    9     8    10    1
   10     8    11    1
   11    11    12    1
   12    11    13    1
   13    11    14    1
   14    14    15    1
   15    14    16    1
   16    14    17    1
@<TRIPOS>SUBSTRUCTURE
       1 MOL1            1 RESIDUE      1      MOL     
@<SCITEGIC>MOL_PROPERTY
VConf Rank
SciTegic.value.IntegerValue
783

@<SCITEGIC>MOL_PROPERTY
Conf_Id
SciTegic.value.IntegerValue
3

@<SCITEGIC>MOL_PROPERTY
Delta U+W
SciTegic.value.DoubleValue
0.531

@<SCITEGIC>MOL_PROPERTY
U+W
SciTegic.value.DoubleValue
-52.878

@<SCITEGIC>MOL_PROPERTY
Grad RMS
SciTegic.value.DoubleValue
0.000000

@<SCITEGIC>MOL_PROPERTY
U
SciTegic.value.DoubleValue
10.067

@<SCITEGIC>MOL_PROPERTY
W
SciTegic.value.DoubleValue
-62.945

@<SCITEGIC>MOL_PROPERTY
W(PB)
SciTegic.value.DoubleValue
-64.982

@<SCITEGIC>MOL_PROPERTY
W(SA)
SciTegic.value.DoubleValue
2.037

@<SCITEGIC>MOL_PROPERTY
Valence
SciTegic.value.DoubleValue
2.779

@<SCITEGIC>MOL_PROPERTY
Coulomb
SciTegic.value.DoubleValue
6.474

@<SCITEGIC>MOL_PROPERTY
VdW
SciTegic.value.DoubleValue
0.815

@<SCITEGIC>MOL_PROPERTY
VdW6
SciTegic.value.DoubleValue
-5.088

@<SCITEGIC>MOL_PROPERTY
VdW12
SciTegic.value.DoubleValue
5.902

@<SCITEGIC>MOL_PROPERTY
Bond
SciTegic.value.DoubleValue
0.078

@<SCITEGIC>MOL_PROPERTY
Angle
SciTegic.value.DoubleValue
2.651

@<SCITEGIC>MOL_PROPERTY
Pdih
SciTegic.value.DoubleValue
0.050

@<SCITEGIC>MOL_PROPERTY
Idih
SciTegic.value.DoubleValue
0.000

@<SCITEGIC>MOL_PROPERTY
Tether
SciTegic.value.DoubleValue
0.000

@<TRIPOS>MOLECULE
guest-s19_confgen4.mol2 : confsearch ligand conformer 784
          17          16           1
SMALL
USER_CHARGES
 
@<TRIPOS>ATOM
       1    C1      17.967721   18.880714   24.320060 C.2        1 MOL1         0.6173
       2    O1      18.116212   19.060715   25.513094 O.co2      1 MOL1        -0.6755
       3    O2      17.049694   18.228063   23.859931 O.co2      1 MOL1        -0.6755
       4    C2      18.963207   19.498277   23.402620 C.2        1 MOL1        -0.1504
       5    H1      19.757422   20.068049   23.879369 H          1 MOL1         0.0814
       6    C3      18.922585   19.378765   22.055901 C.2        1 MOL1        -0.1394
       7    H2      18.132412   18.806650   21.570279 H          1 MOL1         0.0817
       8    C4      19.939089   20.006367   21.124681 C.3        1 MOL1        -0.1849
       9    H3      20.501967   20.795125   21.642145 H          1 MOL1         0.0736
      10    H4      19.410965   20.500368   20.298208 H          1 MOL1         0.0736
      11    C5      20.920343   18.966167   20.541336 C.3        1 MOL1        -0.1866
      12    H5      20.357951   18.175360   20.025778 H          1 MOL1         0.0738
      13    H6      21.547418   19.451883   19.781036 H          1 MOL1         0.0738
      14    C6      21.830994   18.339245   21.618608 C.3        1 MOL1        -0.2879
      15    H7      21.242118   17.788407   22.363494 H          1 MOL1         0.0750
      16    H8      22.539821   17.635681   21.163165 H          1 MOL1         0.0750
      17    H9      22.408962   19.111886   22.142127 H          1 MOL1         0.0750
@<TRIPOS>BOND
    1     1     2    1
    2     1     3    2
    3     1     4    1
    4     4     5    1
    5     4     6    2
    6     6     7    1
    7     6     8    1
    8     8     9    1
    9     8    10    1
   10     8    11    1
   11    11    12    1
   12    11    13    1
   13    11    14    1
   14    14    15    1
   15    14    16    1
   16    14    17    1
@<TRIPOS>SUBSTRUCTURE
       1 MOL1            1 RESIDUE      1      MOL     
@<SCITEGIC>MOL_PROPERTY
VConf Rank
SciTegic.value.IntegerValue
784

@<SCITEGIC>MOL_PROPERTY
Conf_Id
SciTegic.value.IntegerValue
45

@<SCITEGIC>MOL_PROPERTY
Delta U+W
SciTegic.value.DoubleValue
0.562

@<SCITEGIC>MOL_PROPERTY
U+W
SciTegic.value.DoubleValue
-52.846

@<SCITEGIC>MOL_PROPERTY
Grad RMS
SciTegic.value.DoubleValue
0.000000

@<SCITEGIC>MOL_PROPERTY
U
SciTegic.value.DoubleValue
10.243

@<SCITEGIC>MOL_PROPERTY
W
SciTegic.value.DoubleValue
-63.089

@<SCITEGIC>MOL_PROPERTY
W(PB)
SciTegic.value.DoubleValue
-65.116

@<SCITEGIC>MOL_PROPERTY
W(SA)
SciTegic.value.DoubleValue
2.026

@<SCITEGIC>MOL_PROPERTY
Valence
SciTegic.value.DoubleValue
2.822

@<SCITEGIC>MOL_PROPERTY
Coulomb
SciTegic.value.DoubleValue
6.637

@<SCITEGIC>MOL_PROPERTY
VdW
SciTegic.value.DoubleValue
0.785

@<SCITEGIC>MOL_PROPERTY
VdW6
SciTegic.value.DoubleValue
-5.216

@<SCITEGIC>MOL_PROPERTY
VdW12
SciTegic.value.DoubleValue
6.001

@<SCITEGIC>MOL_PROPERTY
Bond
SciTegic.value.DoubleValue
0.080

@<SCITEGIC>MOL_PROPERTY
Angle
SciTegic.value.DoubleValue
2.678

@<SCITEGIC>MOL_PROPERTY
Pdih
SciTegic.value.DoubleValue
0.064

@<SCITEGIC>MOL_PROPERTY
Idih
SciTegic.value.DoubleValue
0.000

@<SCITEGIC>MOL_PROPERTY
Tether
SciTegic.value.DoubleValue
0.000

@<TRIPOS>MOLECULE
guest-s19_confgen4.mol2 : confsearch ligand conformer 785
          17          16           1
SMALL
USER_CHARGES
 
@<TRIPOS>ATOM
       1    C1      19.350006   21.802893   23.851060 C.2        1 MOL1         0.6173
       2    O1      18.282429   22.226137   24.249618 O.co2      1 MOL1        -0.6755
       3    O2      20.381428   22.444923   23.917112 O.co2      1 MOL1        -0.6755
       4    C2      19.371270   20.436643   23.261933 C.2        1 MOL1        -0.1504
       5    H1      18.416073   19.917343   23.233049 H          1 MOL1         0.0814
       6    C3      20.485456   19.841372   22.778894 C.2        1 MOL1        -0.1394
       7    H2      21.447216   20.353538   22.800726 H          1 MOL1         0.0817
       8    C4      20.498065   18.452273   22.179325 C.3        1 MOL1        -0.1849
       9    H3      19.823293   17.793736   22.743081 H          1 MOL1         0.0736
      10    H4      21.504113   18.021187   22.271084 H          1 MOL1         0.0736
      11    C5      20.080710   18.477271   20.694669 C.3        1 MOL1        -0.1866
      12    H5      19.072553   18.904475   20.601514 H          1 MOL1         0.0738
      13    H6      20.758271   19.134923   20.132555 H          1 MOL1         0.0738
      14    C6      20.100109   17.066145   20.073482 C.3        1 MOL1        -0.2879
      15    H7      21.105481   16.627943   20.124834 H          1 MOL1         0.0750
      16    H8      19.406717   16.396184   20.598646 H          1 MOL1         0.0750
      17    H9      19.800559   17.104051   19.018038 H          1 MOL1         0.0750
@<TRIPOS>BOND
    1     1     2    1
    2     1     3    2
    3     1     4    1
    4     4     5    1
    5     4     6    2
    6     6     7    1
    7     6     8    1
    8     8     9    1
    9     8    10    1
   10     8    11    1
   11    11    12    1
   12    11    13    1
   13    11    14    1
   14    14    15    1
   15    14    16    1
   16    14    17    1
@<TRIPOS>SUBSTRUCTURE
       1 MOL1            1 RESIDUE      1      MOL     
@<SCITEGIC>MOL_PROPERTY
VConf Rank
SciTegic.value.IntegerValue
785

@<SCITEGIC>MOL_PROPERTY
Conf_Id
SciTegic.value.IntegerValue
36

@<SCITEGIC>MOL_PROPERTY
Delta U+W
SciTegic.value.DoubleValue
0.000

@<SCITEGIC>MOL_PROPERTY
U+W
SciTegic.value.DoubleValue
-53.409

@<SCITEGIC>MOL_PROPERTY
Grad RMS
SciTegic.value.DoubleValue
0.000000

@<SCITEGIC>MOL_PROPERTY
U
SciTegic.value.DoubleValue
9.048

@<SCITEGIC>MOL_PROPERTY
W
SciTegic.value.DoubleValue
-62.457

@<SCITEGIC>MOL_PROPERTY
W(PB)
SciTegic.value.DoubleValue
-64.540

@<SCITEGIC>MOL_PROPERTY
W(SA)
SciTegic.value.DoubleValue
2.084

@<SCITEGIC>MOL_PROPERTY
Valence
SciTegic.value.DoubleValue
2.652

@<SCITEGIC>MOL_PROPERTY
Coulomb
SciTegic.value.DoubleValue
5.578

@<SCITEGIC>MOL_PROPERTY
VdW
SciTegic.value.DoubleValue
0.818

@<SCITEGIC>MOL_PROPERTY
VdW6
SciTegic.value.DoubleValue
-4.534

@<SCITEGIC>MOL_PROPERTY
VdW12
SciTegic.value.DoubleValue
5.352

@<SCITEGIC>MOL_PROPERTY
Bond
SciTegic.value.DoubleValue
0.063

@<SCITEGIC>MOL_PROPERTY
Angle
SciTegic.value.DoubleValue
2.579

@<SCITEGIC>MOL_PROPERTY
Pdih
SciTegic.value.DoubleValue
0.010

@<SCITEGIC>MOL_PROPERTY
Idih
SciTegic.value.DoubleValue
0.000

@<SCITEGIC>MOL_PROPERTY
Tether
SciTegic.value.DoubleValue
0.000

@<TRIPOS>MOLECULE
guest-s19_confgen4.mol2 : confsearch ligand conformer 786
          17          16           1
SMALL
USER_CHARGES
 
@<TRIPOS>ATOM
       1    C1      20.816104   16.052705   20.693301 C.2        1 MOL1         0.6173
       2    O1      21.428120   16.238426   19.658247 O.co2      1 MOL1        -0.6755
       3    O2      20.420201   14.956393   21.038360 O.co2      1 MOL1        -0.6755
       4    C2      20.528735   17.202151   21.593499 C.2        1 MOL1        -0.1504
       5    H1      19.978449   16.967591   22.501836 H          1 MOL1         0.0814
       6    C3      20.907559   18.474576   21.335599 C.2        1 MOL1        -0.1394
       7    H2      21.457382   18.721090   20.427470 H          1 MOL1         0.0817
       8    C4      20.609639   19.638232   22.255592 C.3        1 MOL1        -0.1849
       9    H3      21.350259   20.433221   22.094774 H          1 MOL1         0.0736
      10    H4      20.710924   19.324083   23.303379 H          1 MOL1         0.0736
      11    C5      19.192305   20.196772   22.014314 C.3        1 MOL1        -0.1866
      12    H5      19.094161   20.512287   20.966276 H          1 MOL1         0.0738
      13    H6      18.449741   19.403614   22.178810 H          1 MOL1         0.0738
      14    C6      18.884257   21.389295   22.941958 C.3        1 MOL1        -0.2879
      15    H7      19.593874   22.210342   22.775352 H          1 MOL1         0.0750
      16    H8      17.872626   21.772816   22.755830 H          1 MOL1         0.0750
      17    H9      18.945155   21.092138   23.997147 H          1 MOL1         0.0750
@<TRIPOS>BOND
    1     1     2    1
    2     1     3    2
    3     1     4    1
    4     4     5    1
    5     4     6    2
    6     6     7    1
    7     6     8    1
    8     8     9    1
    9     8    10    1
   10     8    11    1
   11    11    12    1
   12    11    13    1
   13    11    14    1
   14    14    15    1
   15    14    16    1
   16    14    17    1
@<TRIPOS>SUBSTRUCTURE
       1 MOL1            1 RESIDUE      1      MOL     
@<SCITEGIC>MOL_PROPERTY
VConf Rank
SciTegic.value.IntegerValue
786

@<SCITEGIC>MOL_PROPERTY
Conf_Id
SciTegic.value.IntegerValue
1

@<SCITEGIC>MOL_PROPERTY
Delta U+W
SciTegic.value.DoubleValue
0.030

@<SCITEGIC>MOL_PROPERTY
U+W
SciTegic.value.DoubleValue
-53.378

@<SCITEGIC>MOL_PROPERTY
Grad RMS
SciTegic.value.DoubleValue
0.000000

@<SCITEGIC>MOL_PROPERTY
U
SciTegic.value.DoubleValue
9.048

@<SCITEGIC>MOL_PROPERTY
W
SciTegic.value.DoubleValue
-62.426

@<SCITEGIC>MOL_PROPERTY
W(PB)
SciTegic.value.DoubleValue
-64.506

@<SCITEGIC>MOL_PROPERTY
W(SA)
SciTegic.value.DoubleValue
2.080

@<SCITEGIC>MOL_PROPERTY
Valence
SciTegic.value.DoubleValue
2.652

@<SCITEGIC>MOL_PROPERTY
Coulomb
SciTegic.value.DoubleValue
5.578

@<SCITEGIC>MOL_PROPERTY
VdW
SciTegic.value.DoubleValue
0.818

@<SCITEGIC>MOL_PROPERTY
VdW6
SciTegic.value.DoubleValue
-4.535

@<SCITEGIC>MOL_PROPERTY
VdW12
SciTegic.value.DoubleValue
5.352

@<SCITEGIC>MOL_PROPERTY
Bond
SciTegic.value.DoubleValue
0.063

@<SCITEGIC>MOL_PROPERTY
Angle
SciTegic.value.DoubleValue
2.579

@<SCITEGIC>MOL_PROPERTY
Pdih
SciTegic.value.DoubleValue
0.010

@<SCITEGIC>MOL_PROPERTY
Idih
SciTegic.value.DoubleValue
0.000

@<SCITEGIC>MOL_PROPERTY
Tether
SciTegic.value.DoubleValue
0.000

@<TRIPOS>MOLECULE
guest-s19_confgen4.mol2 : confsearch ligand conformer 787
          17          16           1
SMALL
USER_CHARGES
 
@<TRIPOS>ATOM
       1    C1      18.839018   18.673513   24.868473 C.2        1 MOL1         0.6173
       2    O1      17.675640   18.452004   24.589318 O.co2      1 MOL1        -0.6755
       3    O2      19.314452   18.425909   25.959557 O.co2      1 MOL1        -0.6755
       4    C2      19.738183   19.276631   23.847766 C.2        1 MOL1        -0.1504
       5    H1      20.764845   19.449388   24.162218 H          1 MOL1         0.0814
       6    C3      19.345387   19.601658   22.595147 C.2        1 MOL1        -0.1394
       7    H2      18.320027   19.429733   22.268534 H          1 MOL1         0.0817
       8    C4      20.267334   20.211695   21.560313 C.3        1 MOL1        -0.1849
       9    H3      20.913688   20.960134   22.038427 H          1 MOL1         0.0736
      10    H4      19.677526   20.752384   20.807934 H          1 MOL1         0.0736
      11    C5      21.149190   19.153212   20.862097 C.3        1 MOL1        -0.1866
      12    H5      21.866624   19.661458   20.203214 H          1 MOL1         0.0738
      13    H6      21.741543   18.611316   21.612359 H          1 MOL1         0.0738
      14    C6      20.322217   18.150503   20.029389 C.3        1 MOL1        -0.2879
      15    H7      19.730937   18.669464   19.263744 H          1 MOL1         0.0750
      16    H8      20.981396   17.434849   19.521225 H          1 MOL1         0.0750
      17    H9      19.633548   17.579948   20.666118 H          1 MOL1         0.0750
@<TRIPOS>BOND
    1     1     2    1
    2     1     3    2
    3     1     4    1
    4     4     5    1
    5     4     6    2
    6     6     7    1
    7     6     8    1
    8     8     9    1
    9     8    10    1
   10     8    11    1
   11    11    12    1
   12    11    13    1
   13    11    14    1
   14    14    15    1
   15    14    16    1
   16    14    17    1
@<TRIPOS>SUBSTRUCTURE
       1 MOL1            1 RESIDUE      1      MOL     
@<SCITEGIC>MOL_PROPERTY
VConf Rank
SciTegic.value.IntegerValue
787

@<SCITEGIC>MOL_PROPERTY
Conf_Id
SciTegic.value.IntegerValue
3

@<SCITEGIC>MOL_PROPERTY
Delta U+W
SciTegic.value.DoubleValue
0.531

@<SCITEGIC>MOL_PROPERTY
U+W
SciTegic.value.DoubleValue
-52.878

@<SCITEGIC>MOL_PROPERTY
Grad RMS
SciTegic.value.DoubleValue
0.000000

@<SCITEGIC>MOL_PROPERTY
U
SciTegic.value.DoubleValue
10.067

@<SCITEGIC>MOL_PROPERTY
W
SciTegic.value.DoubleValue
-62.945

@<SCITEGIC>MOL_PROPERTY
W(PB)
SciTegic.value.DoubleValue
-64.982

@<SCITEGIC>MOL_PROPERTY
W(SA)
SciTegic.value.DoubleValue
2.037

@<SCITEGIC>MOL_PROPERTY
Valence
SciTegic.value.DoubleValue
2.779

@<SCITEGIC>MOL_PROPERTY
Coulomb
SciTegic.value.DoubleValue
6.474

@<SCITEGIC>MOL_PROPERTY
VdW
SciTegic.value.DoubleValue
0.815

@<SCITEGIC>MOL_PROPERTY
VdW6
SciTegic.value.DoubleValue
-5.088

@<SCITEGIC>MOL_PROPERTY
VdW12
SciTegic.value.DoubleValue
5.902

@<SCITEGIC>MOL_PROPERTY
Bond
SciTegic.value.DoubleValue
0.078

@<SCITEGIC>MOL_PROPERTY
Angle
SciTegic.value.DoubleValue
2.651

@<SCITEGIC>MOL_PROPERTY
Pdih
SciTegic.value.DoubleValue
0.050

@<SCITEGIC>MOL_PROPERTY
Idih
SciTegic.value.DoubleValue
0.000

@<SCITEGIC>MOL_PROPERTY
Tether
SciTegic.value.DoubleValue
0.000

@<TRIPOS>MOLECULE
guest-s19_confgen4.mol2 : confsearch ligand conformer 788
          17          16           1
SMALL
USER_CHARGES
 
@<TRIPOS>ATOM
       1    C1      16.998063   18.606934   22.036574 C.2        1 MOL1         0.6173
       2    O1      16.182242   18.862805   21.172430 O.co2      1 MOL1        -0.6755
       3    O2      16.692236   18.423065   23.199806 O.co2      1 MOL1        -0.6755
       4    C2      18.426177   18.516908   21.628580 C.2        1 MOL1        -0.1504
       5    H1      18.629879   18.691954   20.574744 H          1 MOL1         0.0814
       6    C3      19.438147   18.242431   22.483076 C.2        1 MOL1        -0.1394
       7    H2      19.243296   18.069370   23.541188 H          1 MOL1         0.0817
       8    C4      20.891394   18.154171   22.065199 C.3        1 MOL1        -0.1849
       9    H3      20.973776   18.033940   20.976393 H          1 MOL1         0.0736
      10    H4      21.337037   17.252649   22.506414 H          1 MOL1         0.0736
      11    C5      21.706315   19.386818   22.514254 C.3        1 MOL1        -0.1866
      12    H5      21.622291   19.509367   23.603005 H          1 MOL1         0.0738
      13    H6      22.769441   19.211364   22.299364 H          1 MOL1         0.0738
      14    C6      21.258100   20.684421   21.808450 C.3        1 MOL1        -0.2879
      15    H7      20.215875   20.928228   22.052127 H          1 MOL1         0.0750
      16    H8      21.883449   21.530268   22.122055 H          1 MOL1         0.0750
      17    H9      21.341160   20.587027   20.718171 H          1 MOL1         0.0750
@<TRIPOS>BOND
    1     1     2    1
    2     1     3    2
    3     1     4    1
    4     4     5    1
    5     4     6    2
    6     6     7    1
    7     6     8    1
    8     8     9    1
    9     8    10    1
   10     8    11    1
   11    11    12    1
   12    11    13    1
   13    11    14    1
   14    14    15    1
   15    14    16    1
   16    14    17    1
@<TRIPOS>SUBSTRUCTURE
       1 MOL1            1 RESIDUE      1      MOL     
@<SCITEGIC>MOL_PROPERTY
VConf Rank
SciTegic.value.IntegerValue
788

@<SCITEGIC>MOL_PROPERTY
Conf_Id
SciTegic.value.IntegerValue
45

@<SCITEGIC>MOL_PROPERTY
Delta U+W
SciTegic.value.DoubleValue
0.562

@<SCITEGIC>MOL_PROPERTY
U+W
SciTegic.value.DoubleValue
-52.846

@<SCITEGIC>MOL_PROPERTY
Grad RMS
SciTegic.value.DoubleValue
0.000000

@<SCITEGIC>MOL_PROPERTY
U
SciTegic.value.DoubleValue
10.243

@<SCITEGIC>MOL_PROPERTY
W
SciTegic.value.DoubleValue
-63.089

@<SCITEGIC>MOL_PROPERTY
W(PB)
SciTegic.value.DoubleValue
-65.116

@<SCITEGIC>MOL_PROPERTY
W(SA)
SciTegic.value.DoubleValue
2.026

@<SCITEGIC>MOL_PROPERTY
Valence
SciTegic.value.DoubleValue
2.822

@<SCITEGIC>MOL_PROPERTY
Coulomb
SciTegic.value.DoubleValue
6.637

@<SCITEGIC>MOL_PROPERTY
VdW
SciTegic.value.DoubleValue
0.785

@<SCITEGIC>MOL_PROPERTY
VdW6
SciTegic.value.DoubleValue
-5.216

@<SCITEGIC>MOL_PROPERTY
VdW12
SciTegic.value.DoubleValue
6.001

@<SCITEGIC>MOL_PROPERTY
Bond
SciTegic.value.DoubleValue
0.080

@<SCITEGIC>MOL_PROPERTY
Angle
SciTegic.value.DoubleValue
2.678

@<SCITEGIC>MOL_PROPERTY
Pdih
SciTegic.value.DoubleValue
0.064

@<SCITEGIC>MOL_PROPERTY
Idih
SciTegic.value.DoubleValue
0.000

@<SCITEGIC>MOL_PROPERTY
Tether
SciTegic.value.DoubleValue
0.000

@<TRIPOS>MOLECULE
guest-s19_confgen4.mol2 : confsearch ligand conformer 789
          17          16           1
SMALL
USER_CHARGES
 
@<TRIPOS>ATOM
       1    C1      19.680734   19.424834   25.258061 C.2        1 MOL1         0.6173
       2    O1      18.939353   18.834098   26.019040 O.co2      1 MOL1        -0.6755
       3    O2      20.299865   20.421625   25.579741 O.co2      1 MOL1        -0.6755
       4    C2      19.821914   18.885312   23.878516 C.2        1 MOL1        -0.1504
       5    H1      19.241565   17.992719   23.656298 H          1 MOL1         0.0814
       6    C3      20.609215   19.440165   22.929104 C.2        1 MOL1        -0.1394
       7    H2      21.193085   20.335860   23.140291 H          1 MOL1         0.0817
       8    C4      20.745502   18.886378   21.527682 C.3        1 MOL1        -0.1849
       9    H3      20.751547   17.788230   21.556731 H          1 MOL1         0.0736
      10    H4      21.711041   19.193028   21.103314 H          1 MOL1         0.0736
      11    C5      19.602001   19.376687   20.616081 C.3        1 MOL1        -0.1866
      12    H5      18.635348   19.067035   21.037101 H          1 MOL1         0.0738
      13    H6      19.599292   20.475193   20.587015 H          1 MOL1         0.0738
      14    C6      19.738877   18.824129   19.183087 C.3        1 MOL1        -0.2879
      15    H7      20.684068   19.145875   18.726440 H          1 MOL1         0.0750
      16    H8      19.713179   17.726508   19.181174 H          1 MOL1         0.0750
      17    H9      18.917165   19.183360   18.549942 H          1 MOL1         0.0750
@<TRIPOS>BOND
    1     1     2    1
    2     1     3    2
    3     1     4    1
    4     4     5    1
    5     4     6    2
    6     6     7    1
    7     6     8    1
    8     8     9    1
    9     8    10    1
   10     8    11    1
   11    11    12    1
   12    11    13    1
   13    11    14    1
   14    14    15    1
   15    14    16    1
   16    14    17    1
@<TRIPOS>SUBSTRUCTURE
       1 MOL1            1 RESIDUE      1      MOL     
@<SCITEGIC>MOL_PROPERTY
VConf Rank
SciTegic.value.IntegerValue
789

@<SCITEGIC>MOL_PROPERTY
Conf_Id
SciTegic.value.IntegerValue
36

@<SCITEGIC>MOL_PROPERTY
Delta U+W
SciTegic.value.DoubleValue
0.000

@<SCITEGIC>MOL_PROPERTY
U+W
SciTegic.value.DoubleValue
-53.409

@<SCITEGIC>MOL_PROPERTY
Grad RMS
SciTegic.value.DoubleValue
0.000000

@<SCITEGIC>MOL_PROPERTY
U
SciTegic.value.DoubleValue
9.048

@<SCITEGIC>MOL_PROPERTY
W
SciTegic.value.DoubleValue
-62.457

@<SCITEGIC>MOL_PROPERTY
W(PB)
SciTegic.value.DoubleValue
-64.540

@<SCITEGIC>MOL_PROPERTY
W(SA)
SciTegic.value.DoubleValue
2.084

@<SCITEGIC>MOL_PROPERTY
Valence
SciTegic.value.DoubleValue
2.652

@<SCITEGIC>MOL_PROPERTY
Coulomb
SciTegic.value.DoubleValue
5.578

@<SCITEGIC>MOL_PROPERTY
VdW
SciTegic.value.DoubleValue
0.818

@<SCITEGIC>MOL_PROPERTY
VdW6
SciTegic.value.DoubleValue
-4.534

@<SCITEGIC>MOL_PROPERTY
VdW12
SciTegic.value.DoubleValue
5.352

@<SCITEGIC>MOL_PROPERTY
Bond
SciTegic.value.DoubleValue
0.063

@<SCITEGIC>MOL_PROPERTY
Angle
SciTegic.value.DoubleValue
2.579

@<SCITEGIC>MOL_PROPERTY
Pdih
SciTegic.value.DoubleValue
0.010

@<SCITEGIC>MOL_PROPERTY
Idih
SciTegic.value.DoubleValue
0.000

@<SCITEGIC>MOL_PROPERTY
Tether
SciTegic.value.DoubleValue
0.000

@<TRIPOS>MOLECULE
guest-s19_confgen4.mol2 : confsearch ligand conformer 790
          17          16           1
SMALL
USER_CHARGES
 
@<TRIPOS>ATOM
       1    C1      21.469598   16.921551   24.044973 C.2        1 MOL1         0.6173
       2    O1      20.573600   16.281893   24.563064 O.co2      1 MOL1        -0.6755
       3    O2      22.620561   16.879795   24.433878 O.co2      1 MOL1        -0.6755
       4    C2      21.168284   17.799498   22.881967 C.2        1 MOL1        -0.1504
       5    H1      22.013541   18.343128   22.466137 H          1 MOL1         0.0814
       6    C3      19.935065   17.943386   22.345729 C.2        1 MOL1        -0.1394
       7    H2      19.080757   17.405138   22.755878 H          1 MOL1         0.0817
       8    C4      19.636794   18.839864   21.163950 C.3        1 MOL1        -0.1849
       9    H3      18.738703   18.478138   20.645323 H          1 MOL1         0.0736
      10    H4      20.459041   18.789247   20.437207 H          1 MOL1         0.0736
      11    C5      19.423194   20.301654   21.607303 C.3        1 MOL1        -0.1866
      12    H5      18.598946   20.349978   22.332455 H          1 MOL1         0.0738
      13    H6      20.322476   20.666474   22.122822 H          1 MOL1         0.0738
      14    C6      19.109476   21.220364   20.409357 C.3        1 MOL1        -0.2879
      15    H7      18.195666   20.896244   19.894255 H          1 MOL1         0.0750
      16    H8      18.960761   22.255222   20.744146 H          1 MOL1         0.0750
      17    H9      19.933028   21.214160   19.683300 H          1 MOL1         0.0750
@<TRIPOS>BOND
    1     1     2    1
    2     1     3    2
    3     1     4    1
    4     4     5    1
    5     4     6    2
    6     6     7    1
    7     6     8    1
    8     8     9    1
    9     8    10    1
   10     8    11    1
   11    11    12    1
   12    11    13    1
   13    11    14    1
   14    14    15    1
   15    14    16    1
   16    14    17    1
@<TRIPOS>SUBSTRUCTURE
       1 MOL1            1 RESIDUE      1      MOL     
@<SCITEGIC>MOL_PROPERTY
VConf Rank
SciTegic.value.IntegerValue
790

@<SCITEGIC>MOL_PROPERTY
Conf_Id
SciTegic.value.IntegerValue
1

@<SCITEGIC>MOL_PROPERTY
Delta U+W
SciTegic.value.DoubleValue
0.030

@<SCITEGIC>MOL_PROPERTY
U+W
SciTegic.value.DoubleValue
-53.378

@<SCITEGIC>MOL_PROPERTY
Grad RMS
SciTegic.value.DoubleValue
0.000000

@<SCITEGIC>MOL_PROPERTY
U
SciTegic.value.DoubleValue
9.048

@<SCITEGIC>MOL_PROPERTY
W
SciTegic.value.DoubleValue
-62.426

@<SCITEGIC>MOL_PROPERTY
W(PB)
SciTegic.value.DoubleValue
-64.506

@<SCITEGIC>MOL_PROPERTY
W(SA)
SciTegic.value.DoubleValue
2.080

@<SCITEGIC>MOL_PROPERTY
Valence
SciTegic.value.DoubleValue
2.652

@<SCITEGIC>MOL_PROPERTY
Coulomb
SciTegic.value.DoubleValue
5.578

@<SCITEGIC>MOL_PROPERTY
VdW
SciTegic.value.DoubleValue
0.818

@<SCITEGIC>MOL_PROPERTY
VdW6
SciTegic.value.DoubleValue
-4.535

@<SCITEGIC>MOL_PROPERTY
VdW12
SciTegic.value.DoubleValue
5.352

@<SCITEGIC>MOL_PROPERTY
Bond
SciTegic.value.DoubleValue
0.063

@<SCITEGIC>MOL_PROPERTY
Angle
SciTegic.value.DoubleValue
2.579

@<SCITEGIC>MOL_PROPERTY
Pdih
SciTegic.value.DoubleValue
0.010

@<SCITEGIC>MOL_PROPERTY
Idih
SciTegic.value.DoubleValue
0.000

@<SCITEGIC>MOL_PROPERTY
Tether
SciTegic.value.DoubleValue
0.000

@<TRIPOS>MOLECULE
guest-s19_confgen4.mol2 : confsearch ligand conformer 791
          17          16           1
SMALL
USER_CHARGES
 
@<TRIPOS>ATOM
       1    C1      22.960159   19.671346   21.346814 C.2        1 MOL1         0.6173
       2    O1      23.166015   20.640796   22.052670 O.co2      1 MOL1        -0.6755
       3    O2      23.854150   19.027618   20.832805 O.co2      1 MOL1        -0.6755
       4    C2      21.561512   19.237105   21.083538 C.2        1 MOL1        -0.1504
       5    H1      21.447674   18.364698   20.444235 H          1 MOL1         0.0814
       6    C3      20.471779   19.857450   21.590135 C.2        1 MOL1        -0.1394
       7    H2      20.574460   20.730291   22.234496 H          1 MOL1         0.0817
       8    C4      19.051240   19.407344   21.320899 C.3        1 MOL1        -0.1849
       9    H3      18.952196   19.110698   20.267942 H          1 MOL1         0.0736
      10    H4      18.359518   20.247578   21.468610 H          1 MOL1         0.0736
      11    C5      18.628438   18.225991   22.221568 C.3        1 MOL1        -0.1866
      12    H5      17.634390   17.875623   21.911302 H          1 MOL1         0.0738
      13    H6      19.318081   17.383168   22.075039 H          1 MOL1         0.0738
      14    C6      18.584737   18.608108   23.716489 C.3        1 MOL1        -0.2879
      15    H7      17.891178   19.441457   23.888684 H          1 MOL1         0.0750
      16    H8      18.248896   17.756852   24.322692 H          1 MOL1         0.0750
      17    H9      19.577135   18.907675   24.077914 H          1 MOL1         0.0750
@<TRIPOS>BOND
    1     1     2    1
    2     1     3    2
    3     1     4    1
    4     4     5    1
    5     4     6    2
    6     6     7    1
    7     6     8    1
    8     8     9    1
    9     8    10    1
   10     8    11    1
   11    11    12    1
   12    11    13    1
   13    11    14    1
   14    14    15    1
   15    14    16    1
   16    14    17    1
@<TRIPOS>SUBSTRUCTURE
       1 MOL1            1 RESIDUE      1      MOL     
@<SCITEGIC>MOL_PROPERTY
VConf Rank
SciTegic.value.IntegerValue
791

@<SCITEGIC>MOL_PROPERTY
Conf_Id
SciTegic.value.IntegerValue
3

@<SCITEGIC>MOL_PROPERTY
Delta U+W
SciTegic.value.DoubleValue
0.531

@<SCITEGIC>MOL_PROPERTY
U+W
SciTegic.value.DoubleValue
-52.878

@<SCITEGIC>MOL_PROPERTY
Grad RMS
SciTegic.value.DoubleValue
0.000000

@<SCITEGIC>MOL_PROPERTY
U
SciTegic.value.DoubleValue
10.067

@<SCITEGIC>MOL_PROPERTY
W
SciTegic.value.DoubleValue
-62.945

@<SCITEGIC>MOL_PROPERTY
W(PB)
SciTegic.value.DoubleValue
-64.982

@<SCITEGIC>MOL_PROPERTY
W(SA)
SciTegic.value.DoubleValue
2.037

@<SCITEGIC>MOL_PROPERTY
Valence
SciTegic.value.DoubleValue
2.779

@<SCITEGIC>MOL_PROPERTY
Coulomb
SciTegic.value.DoubleValue
6.474

@<SCITEGIC>MOL_PROPERTY
VdW
SciTegic.value.DoubleValue
0.815

@<SCITEGIC>MOL_PROPERTY
VdW6
SciTegic.value.DoubleValue
-5.088

@<SCITEGIC>MOL_PROPERTY
VdW12
SciTegic.value.DoubleValue
5.902

@<SCITEGIC>MOL_PROPERTY
Bond
SciTegic.value.DoubleValue
0.078

@<SCITEGIC>MOL_PROPERTY
Angle
SciTegic.value.DoubleValue
2.651

@<SCITEGIC>MOL_PROPERTY
Pdih
SciTegic.value.DoubleValue
0.050

@<SCITEGIC>MOL_PROPERTY
Idih
SciTegic.value.DoubleValue
0.000

@<SCITEGIC>MOL_PROPERTY
Tether
SciTegic.value.DoubleValue
0.000

@<TRIPOS>MOLECULE
guest-s19_confgen4.mol2 : confsearch ligand conformer 792
          17          16           1
SMALL
USER_CHARGES
 
@<TRIPOS>ATOM
       1    C1      20.690767   21.688175   23.457741 C.2        1 MOL1         0.6173
       2    O1      21.777546   22.211625   23.608382 O.co2      1 MOL1        -0.6755
       3    O2      19.729436   21.949465   24.156324 O.co2      1 MOL1        -0.6755
       4    C2      20.554468   20.690066   22.362628 C.2        1 MOL1        -0.1504
       5    H1      21.451637   20.503770   21.776890 H          1 MOL1         0.0814
       6    C3      19.407420   20.029959   22.083123 C.2        1 MOL1        -0.1394
       7    H2      18.504905   20.207906   22.667349 H          1 MOL1         0.0817
       8    C4      19.272519   19.012337   20.969308 C.3        1 MOL1        -0.1849
       9    H3      20.099780   19.111140   20.253335 H          1 MOL1         0.0736
      10    H4      18.353678   19.218956   20.404464 H          1 MOL1         0.0736
      11    C5      19.217730   17.563835   21.502232 C.3        1 MOL1        -0.1866
      12    H5      18.392082   17.464795   22.220532 H          1 MOL1         0.0738
      13    H6      18.992258   16.883724   20.669279 H          1 MOL1         0.0738
      14    C6      20.540389   17.124761   22.166021 C.3        1 MOL1        -0.2879
      15    H7      20.766980   17.742745   23.044546 H          1 MOL1         0.0750
      16    H8      20.478092   16.079997   22.496861 H          1 MOL1         0.0750
      17    H9      21.379191   17.208466   21.462816 H          1 MOL1         0.0750
@<TRIPOS>BOND
    1     1     2    1
    2     1     3    2
    3     1     4    1
    4     4     5    1
    5     4     6    2
    6     6     7    1
    7     6     8    1
    8     8     9    1
    9     8    10    1
   10     8    11    1
   11    11    12    1
   12    11    13    1
   13    11    14    1
   14    14    15    1
   15    14    16    1
   16    14    17    1
@<TRIPOS>SUBSTRUCTURE
       1 MOL1            1 RESIDUE      1      MOL     
@<SCITEGIC>MOL_PROPERTY
VConf Rank
SciTegic.value.IntegerValue
792

@<SCITEGIC>MOL_PROPERTY
Conf_Id
SciTegic.value.IntegerValue
45

@<SCITEGIC>MOL_PROPERTY
Delta U+W
SciTegic.value.DoubleValue
0.562

@<SCITEGIC>MOL_PROPERTY
U+W
SciTegic.value.DoubleValue
-52.846

@<SCITEGIC>MOL_PROPERTY
Grad RMS
SciTegic.value.DoubleValue
0.000000

@<SCITEGIC>MOL_PROPERTY
U
SciTegic.value.DoubleValue
10.243

@<SCITEGIC>MOL_PROPERTY
W
SciTegic.value.DoubleValue
-63.089

@<SCITEGIC>MOL_PROPERTY
W(PB)
SciTegic.value.DoubleValue
-65.116

@<SCITEGIC>MOL_PROPERTY
W(SA)
SciTegic.value.DoubleValue
2.026

@<SCITEGIC>MOL_PROPERTY
Valence
SciTegic.value.DoubleValue
2.822

@<SCITEGIC>MOL_PROPERTY
Coulomb
SciTegic.value.DoubleValue
6.637

@<SCITEGIC>MOL_PROPERTY
VdW
SciTegic.value.DoubleValue
0.785

@<SCITEGIC>MOL_PROPERTY
VdW6
SciTegic.value.DoubleValue
-5.216

@<SCITEGIC>MOL_PROPERTY
VdW12
SciTegic.value.DoubleValue
6.001

@<SCITEGIC>MOL_PROPERTY
Bond
SciTegic.value.DoubleValue
0.080

@<SCITEGIC>MOL_PROPERTY
Angle
SciTegic.value.DoubleValue
2.678

@<SCITEGIC>MOL_PROPERTY
Pdih
SciTegic.value.DoubleValue
0.064

@<SCITEGIC>MOL_PROPERTY
Idih
SciTegic.value.DoubleValue
0.000

@<SCITEGIC>MOL_PROPERTY
Tether
SciTegic.value.DoubleValue
0.000

@<TRIPOS>MOLECULE
guest-s19_confgen4.mol2 : confsearch ligand conformer 793
          17          16           1
SMALL
USER_CHARGES
 
@<TRIPOS>ATOM
       1    C1      20.838114   22.283474   21.112281 C.2        1 MOL1         0.6173
       2    O1      20.226022   23.099235   20.450782 O.co2      1 MOL1        -0.6755
       3    O2      22.007403   22.424169   21.417833 O.co2      1 MOL1        -0.6755
       4    C2      20.103309   21.068502   21.557328 C.2        1 MOL1        -0.1504
       5    H1      19.061837   21.004718   21.250450 H          1 MOL1         0.0814
       6    C3      20.657904   20.080476   22.295782 C.2        1 MOL1        -0.1394
       7    H2      21.701145   20.133102   22.606670 H          1 MOL1         0.0817
       8    C4      19.904135   18.846965   22.742460 C.3        1 MOL1        -0.1849
       9    H3      18.874975   19.114909   23.017862 H          1 MOL1         0.0736
      10    H4      20.372981   18.436919   23.647133 H          1 MOL1         0.0736
      11    C5      19.883946   17.770227   21.638267 C.3        1 MOL1        -0.1866
      12    H5      19.411326   18.177586   20.733696 H          1 MOL1         0.0738
      13    H6      20.914341   17.502430   21.365981 H          1 MOL1         0.0738
      14    C6      19.125460   16.505762   22.089215 C.3        1 MOL1        -0.2879
      15    H7      19.596889   16.059541   22.974693 H          1 MOL1         0.0750
      16    H8      18.082311   16.741161   22.337939 H          1 MOL1         0.0750
      17    H9      19.121654   15.751862   21.291248 H          1 MOL1         0.0750
@<TRIPOS>BOND
    1     1     2    1
    2     1     3    2
    3     1     4    1
    4     4     5    1
    5     4     6    2
    6     6     7    1
    7     6     8    1
    8     8     9    1
    9     8    10    1
   10     8    11    1
   11    11    12    1
   12    11    13    1
   13    11    14    1
   14    14    15    1
   15    14    16    1
   16    14    17    1
@<TRIPOS>SUBSTRUCTURE
       1 MOL1            1 RESIDUE      1      MOL     
@<SCITEGIC>MOL_PROPERTY
VConf Rank
SciTegic.value.IntegerValue
793

@<SCITEGIC>MOL_PROPERTY
Conf_Id
SciTegic.value.IntegerValue
36

@<SCITEGIC>MOL_PROPERTY
Delta U+W
SciTegic.value.DoubleValue
0.000

@<SCITEGIC>MOL_PROPERTY
U+W
SciTegic.value.DoubleValue
-53.409

@<SCITEGIC>MOL_PROPERTY
Grad RMS
SciTegic.value.DoubleValue
0.000000

@<SCITEGIC>MOL_PROPERTY
U
SciTegic.value.DoubleValue
9.048

@<SCITEGIC>MOL_PROPERTY
W
SciTegic.value.DoubleValue
-62.457

@<SCITEGIC>MOL_PROPERTY
W(PB)
SciTegic.value.DoubleValue
-64.540

@<SCITEGIC>MOL_PROPERTY
W(SA)
SciTegic.value.DoubleValue
2.084

@<SCITEGIC>MOL_PROPERTY
Valence
SciTegic.value.DoubleValue
2.652

@<SCITEGIC>MOL_PROPERTY
Coulomb
SciTegic.value.DoubleValue
5.578

@<SCITEGIC>MOL_PROPERTY
VdW
SciTegic.value.DoubleValue
0.818

@<SCITEGIC>MOL_PROPERTY
VdW6
SciTegic.value.DoubleValue
-4.534

@<SCITEGIC>MOL_PROPERTY
VdW12
SciTegic.value.DoubleValue
5.352

@<SCITEGIC>MOL_PROPERTY
Bond
SciTegic.value.DoubleValue
0.063

@<SCITEGIC>MOL_PROPERTY
Angle
SciTegic.value.DoubleValue
2.579

@<SCITEGIC>MOL_PROPERTY
Pdih
SciTegic.value.DoubleValue
0.010

@<SCITEGIC>MOL_PROPERTY
Idih
SciTegic.value.DoubleValue
0.000

@<SCITEGIC>MOL_PROPERTY
Tether
SciTegic.value.DoubleValue
0.000

@<TRIPOS>MOLECULE
guest-s19_confgen4.mol2 : confsearch ligand conformer 794
          17          16           1
SMALL
USER_CHARGES
 
@<TRIPOS>ATOM
       1    C1      16.847122   19.614499   20.876239 C.2        1 MOL1         0.6173
       2    O1      16.698202   18.965064   19.858178 O.co2      1 MOL1        -0.6755
       3    O2      16.037834   20.436944   21.258788 O.co2      1 MOL1        -0.6755
       4    C2      18.064511   19.409792   21.707035 C.2        1 MOL1        -0.1504
       5    H1      18.135733   20.021576   22.603449 H          1 MOL1         0.0814
       6    C3      19.046028   18.530718   21.402172 C.2        1 MOL1        -0.1394
       7    H2      18.985860   17.914371   20.505361 H          1 MOL1         0.0817
       8    C4      20.281904   18.329972   22.251613 C.3        1 MOL1        -0.1849
       9    H3      20.685688   17.322835   22.081256 H          1 MOL1         0.0736
      10    H4      20.018561   18.385033   23.316707 H          1 MOL1         0.0736
      11    C5      21.363202   19.381125   21.927742 C.3        1 MOL1        -0.1866
      12    H5      21.626463   19.322635   20.862454 H          1 MOL1         0.0738
      13    H6      20.962112   20.389321   22.101604 H          1 MOL1         0.0738
      14    C6      22.629949   19.177654   22.783005 C.3        1 MOL1        -0.2879
      15    H7      23.069914   18.187728   22.604377 H          1 MOL1         0.0750
      16    H8      23.387145   19.934025   22.538697 H          1 MOL1         0.0750
      17    H9      22.399265   19.262438   23.853067 H          1 MOL1         0.0750
@<TRIPOS>BOND
    1     1     2    1
    2     1     3    2
    3     1     4    1
    4     4     5    1
    5     4     6    2
    6     6     7    1
    7     6     8    1
    8     8     9    1
    9     8    10    1
   10     8    11    1
   11    11    12    1
   12    11    13    1
   13    11    14    1
   14    14    15    1
   15    14    16    1
   16    14    17    1
@<TRIPOS>SUBSTRUCTURE
       1 MOL1            1 RESIDUE      1      MOL     
@<SCITEGIC>MOL_PROPERTY
VConf Rank
SciTegic.value.IntegerValue
794

@<SCITEGIC>MOL_PROPERTY
Conf_Id
SciTegic.value.IntegerValue
1

@<SCITEGIC>MOL_PROPERTY
Delta U+W
SciTegic.value.DoubleValue
0.030

@<SCITEGIC>MOL_PROPERTY
U+W
SciTegic.value.DoubleValue
-53.378

@<SCITEGIC>MOL_PROPERTY
Grad RMS
SciTegic.value.DoubleValue
0.000000

@<SCITEGIC>MOL_PROPERTY
U
SciTegic.value.DoubleValue
9.048

@<SCITEGIC>MOL_PROPERTY
W
SciTegic.value.DoubleValue
-62.426

@<SCITEGIC>MOL_PROPERTY
W(PB)
SciTegic.value.DoubleValue
-64.506

@<SCITEGIC>MOL_PROPERTY
W(SA)
SciTegic.value.DoubleValue
2.080

@<SCITEGIC>MOL_PROPERTY
Valence
SciTegic.value.DoubleValue
2.652

@<SCITEGIC>MOL_PROPERTY
Coulomb
SciTegic.value.DoubleValue
5.578

@<SCITEGIC>MOL_PROPERTY
VdW
SciTegic.value.DoubleValue
0.818

@<SCITEGIC>MOL_PROPERTY
VdW6
SciTegic.value.DoubleValue
-4.535

@<SCITEGIC>MOL_PROPERTY
VdW12
SciTegic.value.DoubleValue
5.352

@<SCITEGIC>MOL_PROPERTY
Bond
SciTegic.value.DoubleValue
0.063

@<SCITEGIC>MOL_PROPERTY
Angle
SciTegic.value.DoubleValue
2.579

@<SCITEGIC>MOL_PROPERTY
Pdih
SciTegic.value.DoubleValue
0.010

@<SCITEGIC>MOL_PROPERTY
Idih
SciTegic.value.DoubleValue
0.000

@<SCITEGIC>MOL_PROPERTY
Tether
SciTegic.value.DoubleValue
0.000

@<TRIPOS>MOLECULE
guest-s19_confgen4.mol2 : confsearch ligand conformer 795
          17          16           1
SMALL
USER_CHARGES
 
@<TRIPOS>ATOM
       1    C1      20.328015   16.214359   20.979789 C.2        1 MOL1         0.6173
       2    O1      19.167898   15.847856   20.995491 O.co2      1 MOL1        -0.6755
       3    O2      21.197664   15.625908   20.367215 O.co2      1 MOL1        -0.6755
       4    C2      20.725109   17.431183   21.738568 C.2        1 MOL1        -0.1504
       5    H1      21.776686   17.703004   21.683262 H          1 MOL1         0.0814
       6    C3      19.864158   18.182902   22.461526 C.2        1 MOL1        -0.1394
       7    H2      18.807855   17.921592   22.521013 H          1 MOL1         0.0817
       8    C4      20.274942   19.422468   23.228172 C.3        1 MOL1        -0.1849
       9    H3      21.242584   19.248726   23.718080 H          1 MOL1         0.0736
      10    H4      19.554684   19.618379   24.033866 H          1 MOL1         0.0736
      11    C5      20.383868   20.666431   22.319188 C.3        1 MOL1        -0.1866
      12    H5      20.784765   21.505185   22.904786 H          1 MOL1         0.0738
      13    H6      21.104871   20.473860   21.512653 H          1 MOL1         0.0738
      14    C6      19.024629   21.077693   21.714170 C.3        1 MOL1        -0.2879
      15    H7      18.290915   21.287583   22.503318 H          1 MOL1         0.0750
      16    H8      19.132568   21.982636   21.102341 H          1 MOL1         0.0750
      17    H9      18.620344   20.284032   21.072394 H          1 MOL1         0.0750
@<TRIPOS>BOND
    1     1     2    1
    2     1     3    2
    3     1     4    1
    4     4     5    1
    5     4     6    2
    6     6     7    1
    7     6     8    1
    8     8     9    1
    9     8    10    1
   10     8    11    1
   11    11    12    1
   12    11    13    1
   13    11    14    1
   14    14    15    1
   15    14    16    1
   16    14    17    1
@<TRIPOS>SUBSTRUCTURE
       1 MOL1            1 RESIDUE      1      MOL     
@<SCITEGIC>MOL_PROPERTY
VConf Rank
SciTegic.value.IntegerValue
795

@<SCITEGIC>MOL_PROPERTY
Conf_Id
SciTegic.value.IntegerValue
3

@<SCITEGIC>MOL_PROPERTY
Delta U+W
SciTegic.value.DoubleValue
0.531

@<SCITEGIC>MOL_PROPERTY
U+W
SciTegic.value.DoubleValue
-52.878

@<SCITEGIC>MOL_PROPERTY
Grad RMS
SciTegic.value.DoubleValue
0.000000

@<SCITEGIC>MOL_PROPERTY
U
SciTegic.value.DoubleValue
10.067

@<SCITEGIC>MOL_PROPERTY
W
SciTegic.value.DoubleValue
-62.945

@<SCITEGIC>MOL_PROPERTY
W(PB)
SciTegic.value.DoubleValue
-64.982

@<SCITEGIC>MOL_PROPERTY
W(SA)
SciTegic.value.DoubleValue
2.037

@<SCITEGIC>MOL_PROPERTY
Valence
SciTegic.value.DoubleValue
2.779

@<SCITEGIC>MOL_PROPERTY
Coulomb
SciTegic.value.DoubleValue
6.474

@<SCITEGIC>MOL_PROPERTY
VdW
SciTegic.value.DoubleValue
0.815

@<SCITEGIC>MOL_PROPERTY
VdW6
SciTegic.value.DoubleValue
-5.088

@<SCITEGIC>MOL_PROPERTY
VdW12
SciTegic.value.DoubleValue
5.902

@<SCITEGIC>MOL_PROPERTY
Bond
SciTegic.value.DoubleValue
0.078

@<SCITEGIC>MOL_PROPERTY
Angle
SciTegic.value.DoubleValue
2.651

@<SCITEGIC>MOL_PROPERTY
Pdih
SciTegic.value.DoubleValue
0.050

@<SCITEGIC>MOL_PROPERTY
Idih
SciTegic.value.DoubleValue
0.000

@<SCITEGIC>MOL_PROPERTY
Tether
SciTegic.value.DoubleValue
0.000

@<TRIPOS>MOLECULE
guest-s19_confgen4.mol2 : confsearch ligand conformer 796
          17          16           1
SMALL
USER_CHARGES
 
@<TRIPOS>ATOM
       1    C1      17.804834   20.324635   20.373917 C.2        1 MOL1         0.6173
       2    O1      17.634637   20.261384   19.171913 O.co2      1 MOL1        -0.6755
       3    O2      17.316880   21.199276   21.064824 O.co2      1 MOL1        -0.6755
       4    C2      18.647832   19.273374   21.005008 C.2        1 MOL1        -0.1504
       5    H1      19.052489   18.522281   20.330605 H          1 MOL1         0.0814
       6    C3      18.922539   19.221516   22.328425 C.2        1 MOL1        -0.1394
       7    H2      18.524176   19.972140   23.010619 H          1 MOL1         0.0817
       8    C4      19.783381   18.151560   22.967550 C.3        1 MOL1        -0.1849
       9    H3      19.887391   17.287662   22.297026 H          1 MOL1         0.0736
      10    H4      19.280636   17.778762   23.869923 H          1 MOL1         0.0736
      11    C5      21.182242   18.678839   23.355276 C.3        1 MOL1        -0.1866
      12    H5      21.079079   19.544702   24.023930 H          1 MOL1         0.0738
      13    H6      21.712217   17.903459   23.925460 H          1 MOL1         0.0738
      14    C6      22.031644   19.068493   22.126653 C.3        1 MOL1        -0.2879
      15    H7      21.564115   19.888082   21.565633 H          1 MOL1         0.0750
      16    H8      23.030539   19.400769   22.437568 H          1 MOL1         0.0750
      17    H9      22.154249   18.214788   21.447500 H          1 MOL1         0.0750
@<TRIPOS>BOND
    1     1     2    1
    2     1     3    2
    3     1     4    1
    4     4     5    1
    5     4     6    2
    6     6     7    1
    7     6     8    1
    8     8     9    1
    9     8    10    1
   10     8    11    1
   11    11    12    1
   12    11    13    1
   13    11    14    1
   14    14    15    1
   15    14    16    1
   16    14    17    1
@<TRIPOS>SUBSTRUCTURE
       1 MOL1            1 RESIDUE      1      MOL     
@<SCITEGIC>MOL_PROPERTY
VConf Rank
SciTegic.value.IntegerValue
796

@<SCITEGIC>MOL_PROPERTY
Conf_Id
SciTegic.value.IntegerValue
45

@<SCITEGIC>MOL_PROPERTY
Delta U+W
SciTegic.value.DoubleValue
0.562

@<SCITEGIC>MOL_PROPERTY
U+W
SciTegic.value.DoubleValue
-52.846

@<SCITEGIC>MOL_PROPERTY
Grad RMS
SciTegic.value.DoubleValue
0.000000

@<SCITEGIC>MOL_PROPERTY
U
SciTegic.value.DoubleValue
10.243

@<SCITEGIC>MOL_PROPERTY
W
SciTegic.value.DoubleValue
-63.089

@<SCITEGIC>MOL_PROPERTY
W(PB)
SciTegic.value.DoubleValue
-65.116

@<SCITEGIC>MOL_PROPERTY
W(SA)
SciTegic.value.DoubleValue
2.026

@<SCITEGIC>MOL_PROPERTY
Valence
SciTegic.value.DoubleValue
2.822

@<SCITEGIC>MOL_PROPERTY
Coulomb
SciTegic.value.DoubleValue
6.637

@<SCITEGIC>MOL_PROPERTY
VdW
SciTegic.value.DoubleValue
0.785

@<SCITEGIC>MOL_PROPERTY
VdW6
SciTegic.value.DoubleValue
-5.216

@<SCITEGIC>MOL_PROPERTY
VdW12
SciTegic.value.DoubleValue
6.001

@<SCITEGIC>MOL_PROPERTY
Bond
SciTegic.value.DoubleValue
0.080

@<SCITEGIC>MOL_PROPERTY
Angle
SciTegic.value.DoubleValue
2.678

@<SCITEGIC>MOL_PROPERTY
Pdih
SciTegic.value.DoubleValue
0.064

@<SCITEGIC>MOL_PROPERTY
Idih
SciTegic.value.DoubleValue
0.000

@<SCITEGIC>MOL_PROPERTY
Tether
SciTegic.value.DoubleValue
0.000

@<TRIPOS>MOLECULE
guest-s19_confgen4.mol2 : confsearch ligand conformer 797
          17          16           1
SMALL
USER_CHARGES
 
@<TRIPOS>ATOM
       1    C1      21.802771   20.963881   24.080288 C.2        1 MOL1         0.6173
       2    O1      22.567345   20.597707   24.951522 O.co2      1 MOL1        -0.6755
       3    O2      21.390189   22.105724   24.000518 O.co2      1 MOL1        -0.6755
       4    C2      21.367724   19.953598   23.078178 C.2        1 MOL1        -0.1504
       5    H1      21.773150   18.952581   23.206639 H          1 MOL1         0.0814
       6    C3      20.521061   20.220178   22.057795 C.2        1 MOL1        -0.1394
       7    H2      20.107113   21.219056   21.921179 H          1 MOL1         0.0817
       8    C4      20.081882   19.186327   21.044133 C.3        1 MOL1        -0.1849
       9    H3      20.922783   18.525457   20.793242 H          1 MOL1         0.0736
      10    H4      19.788898   19.686982   20.111453 H          1 MOL1         0.0736
      11    C5      18.900390   18.347530   21.572821 C.3        1 MOL1        -0.1866
      12    H5      19.193277   17.842554   22.503830 H          1 MOL1         0.0738
      13    H6      18.059914   19.010489   21.821122 H          1 MOL1         0.0738
      14    C6      18.440544   17.297480   20.541578 C.3        1 MOL1        -0.2879
      15    H7      18.111665   17.778362   19.610974 H          1 MOL1         0.0750
      16    H8      19.254873   16.602124   20.299123 H          1 MOL1         0.0750
      17    H9      17.600173   16.711006   20.935222 H          1 MOL1         0.0750
@<TRIPOS>BOND
    1     1     2    1
    2     1     3    2
    3     1     4    1
    4     4     5    1
    5     4     6    2
    6     6     7    1
    7     6     8    1
    8     8     9    1
    9     8    10    1
   10     8    11    1
   11    11    12    1
   12    11    13    1
   13    11    14    1
   14    14    15    1
   15    14    16    1
   16    14    17    1
@<TRIPOS>SUBSTRUCTURE
       1 MOL1            1 RESIDUE      1      MOL     
@<SCITEGIC>MOL_PROPERTY
VConf Rank
SciTegic.value.IntegerValue
797

@<SCITEGIC>MOL_PROPERTY
Conf_Id
SciTegic.value.IntegerValue
36

@<SCITEGIC>MOL_PROPERTY
Delta U+W
SciTegic.value.DoubleValue
0.000

@<SCITEGIC>MOL_PROPERTY
U+W
SciTegic.value.DoubleValue
-53.409

@<SCITEGIC>MOL_PROPERTY
Grad RMS
SciTegic.value.DoubleValue
0.000000

@<SCITEGIC>MOL_PROPERTY
U
SciTegic.value.DoubleValue
9.048

@<SCITEGIC>MOL_PROPERTY
W
SciTegic.value.DoubleValue
-62.457

@<SCITEGIC>MOL_PROPERTY
W(PB)
SciTegic.value.DoubleValue
-64.540

@<SCITEGIC>MOL_PROPERTY
W(SA)
SciTegic.value.DoubleValue
2.084

@<SCITEGIC>MOL_PROPERTY
Valence
SciTegic.value.DoubleValue
2.652

@<SCITEGIC>MOL_PROPERTY
Coulomb
SciTegic.value.DoubleValue
5.578

@<SCITEGIC>MOL_PROPERTY
VdW
SciTegic.value.DoubleValue
0.818

@<SCITEGIC>MOL_PROPERTY
VdW6
SciTegic.value.DoubleValue
-4.534

@<SCITEGIC>MOL_PROPERTY
VdW12
SciTegic.value.DoubleValue
5.352

@<SCITEGIC>MOL_PROPERTY
Bond
SciTegic.value.DoubleValue
0.063

@<SCITEGIC>MOL_PROPERTY
Angle
SciTegic.value.DoubleValue
2.579

@<SCITEGIC>MOL_PROPERTY
Pdih
SciTegic.value.DoubleValue
0.010

@<SCITEGIC>MOL_PROPERTY
Idih
SciTegic.value.DoubleValue
0.000

@<SCITEGIC>MOL_PROPERTY
Tether
SciTegic.value.DoubleValue
0.000

@<TRIPOS>MOLECULE
guest-s19_confgen4.mol2 : confsearch ligand conformer 798
          17          16           1
SMALL
USER_CHARGES
 
@<TRIPOS>ATOM
       1    C1      23.249193   20.040593   21.794404 C.2        1 MOL1         0.6173
       2    O1      23.913073   19.022282   21.742438 O.co2      1 MOL1        -0.6755
       3    O2      23.737079   21.137562   21.985013 O.co2      1 MOL1        -0.6755
       4    C2      21.773530   19.965598   21.618452 C.2        1 MOL1        -0.1504
       5    H1      21.240026   20.911628   21.675976 H          1 MOL1         0.0814
       6    C3      21.097918   18.814346   21.401076 C.2        1 MOL1        -0.1394
       7    H2      21.622253   17.860634   21.343815 H          1 MOL1         0.0817
       8    C4      19.596701   18.746566   21.225031 C.3        1 MOL1        -0.1849
       9    H3      19.334457   17.851636   20.644759 H          1 MOL1         0.0736
      10    H4      19.247508   19.610072   20.642597 H          1 MOL1         0.0736
      11    C5      18.872380   18.709606   22.586284 C.3        1 MOL1        -0.1866
      12    H5      19.221702   17.843927   23.166061 H          1 MOL1         0.0738
      13    H6      19.130483   19.606411   23.166527 H          1 MOL1         0.0738
      14    C6      17.341962   18.631121   22.415444 C.3        1 MOL1        -0.2879
      15    H7      17.053869   17.725808   21.865135 H          1 MOL1         0.0750
      16    H8      16.844415   18.605696   23.393673 H          1 MOL1         0.0750
      17    H9      16.962944   19.502246   21.865060 H          1 MOL1         0.0750
@<TRIPOS>BOND
    1     1     2    1
    2     1     3    2
    3     1     4    1
    4     4     5    1
    5     4     6    2
    6     6     7    1
    7     6     8    1
    8     8     9    1
    9     8    10    1
   10     8    11    1
   11    11    12    1
   12    11    13    1
   13    11    14    1
   14    14    15    1
   15    14    16    1
   16    14    17    1
@<TRIPOS>SUBSTRUCTURE
       1 MOL1            1 RESIDUE      1      MOL     
@<SCITEGIC>MOL_PROPERTY
VConf Rank
SciTegic.value.IntegerValue
798

@<SCITEGIC>MOL_PROPERTY
Conf_Id
SciTegic.value.IntegerValue
1

@<SCITEGIC>MOL_PROPERTY
Delta U+W
SciTegic.value.DoubleValue
0.030

@<SCITEGIC>MOL_PROPERTY
U+W
SciTegic.value.DoubleValue
-53.378

@<SCITEGIC>MOL_PROPERTY
Grad RMS
SciTegic.value.DoubleValue
0.000000

@<SCITEGIC>MOL_PROPERTY
U
SciTegic.value.DoubleValue
9.048

@<SCITEGIC>MOL_PROPERTY
W
SciTegic.value.DoubleValue
-62.426

@<SCITEGIC>MOL_PROPERTY
W(PB)
SciTegic.value.DoubleValue
-64.506

@<SCITEGIC>MOL_PROPERTY
W(SA)
SciTegic.value.DoubleValue
2.080

@<SCITEGIC>MOL_PROPERTY
Valence
SciTegic.value.DoubleValue
2.652

@<SCITEGIC>MOL_PROPERTY
Coulomb
SciTegic.value.DoubleValue
5.578

@<SCITEGIC>MOL_PROPERTY
VdW
SciTegic.value.DoubleValue
0.818

@<SCITEGIC>MOL_PROPERTY
VdW6
SciTegic.value.DoubleValue
-4.535

@<SCITEGIC>MOL_PROPERTY
VdW12
SciTegic.value.DoubleValue
5.352

@<SCITEGIC>MOL_PROPERTY
Bond
SciTegic.value.DoubleValue
0.063

@<SCITEGIC>MOL_PROPERTY
Angle
SciTegic.value.DoubleValue
2.579

@<SCITEGIC>MOL_PROPERTY
Pdih
SciTegic.value.DoubleValue
0.010

@<SCITEGIC>MOL_PROPERTY
Idih
SciTegic.value.DoubleValue
0.000

@<SCITEGIC>MOL_PROPERTY
Tether
SciTegic.value.DoubleValue
0.000

@<TRIPOS>MOLECULE
guest-s19_confgen4.mol2 : confsearch ligand conformer 799
          17          16           1
SMALL
USER_CHARGES
 
@<TRIPOS>ATOM
       1    C1      22.400642   19.381981   20.119069 C.2        1 MOL1         0.6173
       2    O1      23.245956   19.815808   20.879122 O.co2      1 MOL1        -0.6755
       3    O2      22.669216   18.923953   19.025502 O.co2      1 MOL1        -0.6755
       4    C2      20.968315   19.405343   20.521542 C.2        1 MOL1        -0.1504
       5    H1      20.264737   19.003645   19.796024 H          1 MOL1         0.0814
       6    C3      20.526226   19.883758   21.706727 C.2        1 MOL1        -0.1394
       7    H2      21.222796   20.285400   22.442303 H          1 MOL1         0.0817
       8    C4      19.067030   19.900706   22.111044 C.3        1 MOL1        -0.1849
       9    H3      18.449545   20.189656   21.249797 H          1 MOL1         0.0736
      10    H4      18.901507   20.669244   22.878015 H          1 MOL1         0.0736
      11    C5      18.588034   18.531149   22.640608 C.3        1 MOL1        -0.1866
      12    H5      17.504460   18.573406   22.817344 H          1 MOL1         0.0738
      13    H6      18.751248   17.760218   21.874804 H          1 MOL1         0.0738
      14    C6      19.297062   18.122215   23.949334 C.3        1 MOL1        -0.2879
      15    H7      19.136828   18.873117   24.733947 H          1 MOL1         0.0750
      16    H8      18.909432   17.162385   24.314540 H          1 MOL1         0.0750
      17    H9      20.378522   18.011816   23.796110 H          1 MOL1         0.0750
@<TRIPOS>BOND
    1     1     2    1
    2     1     3    2
    3     1     4    1
    4     4     5    1
    5     4     6    2
    6     6     7    1
    7     6     8    1
    8     8     9    1
    9     8    10    1
   10     8    11    1
   11    11    12    1
   12    11    13    1
   13    11    14    1
   14    14    15    1
   15    14    16    1
   16    14    17    1
@<TRIPOS>SUBSTRUCTURE
       1 MOL1            1 RESIDUE      1      MOL     
@<SCITEGIC>MOL_PROPERTY
VConf Rank
SciTegic.value.IntegerValue
799

@<SCITEGIC>MOL_PROPERTY
Conf_Id
SciTegic.value.IntegerValue
3

@<SCITEGIC>MOL_PROPERTY
Delta U+W
SciTegic.value.DoubleValue
0.531

@<SCITEGIC>MOL_PROPERTY
U+W
SciTegic.value.DoubleValue
-52.878

@<SCITEGIC>MOL_PROPERTY
Grad RMS
SciTegic.value.DoubleValue
0.000000

@<SCITEGIC>MOL_PROPERTY
U
SciTegic.value.DoubleValue
10.067

@<SCITEGIC>MOL_PROPERTY
W
SciTegic.value.DoubleValue
-62.945

@<SCITEGIC>MOL_PROPERTY
W(PB)
SciTegic.value.DoubleValue
-64.982

@<SCITEGIC>MOL_PROPERTY
W(SA)
SciTegic.value.DoubleValue
2.037

@<SCITEGIC>MOL_PROPERTY
Valence
SciTegic.value.DoubleValue
2.779

@<SCITEGIC>MOL_PROPERTY
Coulomb
SciTegic.value.DoubleValue
6.474

@<SCITEGIC>MOL_PROPERTY
VdW
SciTegic.value.DoubleValue
0.815

@<SCITEGIC>MOL_PROPERTY
VdW6
SciTegic.value.DoubleValue
-5.088

@<SCITEGIC>MOL_PROPERTY
VdW12
SciTegic.value.DoubleValue
5.902

@<SCITEGIC>MOL_PROPERTY
Bond
SciTegic.value.DoubleValue
0.078

@<SCITEGIC>MOL_PROPERTY
Angle
SciTegic.value.DoubleValue
2.651

@<SCITEGIC>MOL_PROPERTY
Pdih
SciTegic.value.DoubleValue
0.050

@<SCITEGIC>MOL_PROPERTY
Idih
SciTegic.value.DoubleValue
0.000

@<SCITEGIC>MOL_PROPERTY
Tether
SciTegic.value.DoubleValue
0.000

@<TRIPOS>MOLECULE
guest-s19_confgen4.mol2 : confsearch ligand conformer 800
          17          16           1
SMALL
USER_CHARGES
 
@<TRIPOS>ATOM
       1    C1      20.515517   17.591171   24.636491 C.2        1 MOL1         0.6173
       2    O1      20.486690   16.395024   24.851394 O.co2      1 MOL1        -0.6755
       3    O2      20.422280   18.423157   25.519414 O.co2      1 MOL1        -0.6755
       4    C2      20.675804   18.032152   23.224430 C.2        1 MOL1        -0.1504
       5    H1      20.753297   17.237732   22.485784 H          1 MOL1         0.0814
       6    C3      20.721662   19.328281   22.840331 C.2        1 MOL1        -0.1394
       7    H2      20.641074   20.130486   23.573468 H          1 MOL1         0.0817
       8    C4      20.882161   19.774096   21.401642 C.3        1 MOL1        -0.1849
       9    H3      21.256782   18.948847   20.780867 H          1 MOL1         0.0736
      10    H4      21.644975   20.562661   21.353794 H          1 MOL1         0.0736
      11    C5      19.564365   20.315244   20.805202 C.3        1 MOL1        -0.1866
      12    H5      19.187533   21.139090   21.427082 H          1 MOL1         0.0738
      13    H6      19.767836   20.739327   19.812251 H          1 MOL1         0.0738
      14    C6      18.479970   19.224558   20.673600 C.3        1 MOL1        -0.2879
      15    H7      18.202912   18.820799   21.656083 H          1 MOL1         0.0750
      16    H8      17.573268   19.635449   20.211077 H          1 MOL1         0.0750
      17    H9      18.832754   18.393647   20.048922 H          1 MOL1         0.0750
@<TRIPOS>BOND
    1     1     2    1
    2     1     3    2
    3     1     4    1
    4     4     5    1
    5     4     6    2
    6     6     7    1
    7     6     8    1
    8     8     9    1
    9     8    10    1
   10     8    11    1
   11    11    12    1
   12    11    13    1
   13    11    14    1
   14    14    15    1
   15    14    16    1
   16    14    17    1
@<TRIPOS>SUBSTRUCTURE
       1 MOL1            1 RESIDUE      1      MOL     
@<SCITEGIC>MOL_PROPERTY
VConf Rank
SciTegic.value.IntegerValue
800

@<SCITEGIC>MOL_PROPERTY
Conf_Id
SciTegic.value.IntegerValue
45

@<SCITEGIC>MOL_PROPERTY
Delta U+W
SciTegic.value.DoubleValue
0.562

@<SCITEGIC>MOL_PROPERTY
U+W
SciTegic.value.DoubleValue
-52.846

@<SCITEGIC>MOL_PROPERTY
Grad RMS
SciTegic.value.DoubleValue
0.000000

@<SCITEGIC>MOL_PROPERTY
U
SciTegic.value.DoubleValue
10.243

@<SCITEGIC>MOL_PROPERTY
W
SciTegic.value.DoubleValue
-63.089

@<SCITEGIC>MOL_PROPERTY
W(PB)
SciTegic.value.DoubleValue
-65.116

@<SCITEGIC>MOL_PROPERTY
W(SA)
SciTegic.value.DoubleValue
2.026

@<SCITEGIC>MOL_PROPERTY
Valence
SciTegic.value.DoubleValue
2.822

@<SCITEGIC>MOL_PROPERTY
Coulomb
SciTegic.value.DoubleValue
6.637

@<SCITEGIC>MOL_PROPERTY
VdW
SciTegic.value.DoubleValue
0.785

@<SCITEGIC>MOL_PROPERTY
VdW6
SciTegic.value.DoubleValue
-5.216

@<SCITEGIC>MOL_PROPERTY
VdW12
SciTegic.value.DoubleValue
6.001

@<SCITEGIC>MOL_PROPERTY
Bond
SciTegic.value.DoubleValue
0.080

@<SCITEGIC>MOL_PROPERTY
Angle
SciTegic.value.DoubleValue
2.678

@<SCITEGIC>MOL_PROPERTY
Pdih
SciTegic.value.DoubleValue
0.064

@<SCITEGIC>MOL_PROPERTY
Idih
SciTegic.value.DoubleValue
0.000

@<SCITEGIC>MOL_PROPERTY
Tether
SciTegic.value.DoubleValue
0.000

@<TRIPOS>MOLECULE
guest-s19_confgen4.mol2 : confsearch ligand conformer 801
          17          16           1
SMALL
USER_CHARGES
 
@<TRIPOS>ATOM
       1    C1      20.820305   17.567381   19.034219 C.2        1 MOL1         0.6173
       2    O1      21.899925   17.499157   18.479719 O.co2      1 MOL1        -0.6755
       3    O2      19.777863   17.252314   18.491593 O.co2      1 MOL1        -0.6755
       4    C2      20.798449   18.059383   20.438362 C.2        1 MOL1        -0.1504
       5    H1      21.763889   18.323901   20.863643 H          1 MOL1         0.0814
       6    C3      19.671290   18.187372   21.174716 C.2        1 MOL1        -0.1394
       7    H2      18.698499   17.927467   20.757704 H          1 MOL1         0.0817
       8    C4      19.657530   18.690645   22.601518 C.3        1 MOL1        -0.1849
       9    H3      20.529436   18.302118   23.145242 H          1 MOL1         0.0736
      10    H4      18.769043   18.304593   23.119148 H          1 MOL1         0.0736
      11    C5      19.656120   20.232170   22.653621 C.3        1 MOL1        -0.1866
      12    H5      20.546695   20.619950   22.139750 H          1 MOL1         0.0738
      13    H6      18.782088   20.618311   22.110914 H          1 MOL1         0.0738
      14    C6      19.632592   20.753240   24.104640 C.3        1 MOL1        -0.2879
      15    H7      18.734739   20.405818   24.632455 H          1 MOL1         0.0750
      16    H8      20.513277   20.406319   24.660948 H          1 MOL1         0.0750
      17    H9      19.632014   21.850896   24.121426 H          1 MOL1         0.0750
@<TRIPOS>BOND
    1     1     2    1
    2     1     3    2
    3     1     4    1
    4     4     5    1
    5     4     6    2
    6     6     7    1
    7     6     8    1
    8     8     9    1
    9     8    10    1
   10     8    11    1
   11    11    12    1
   12    11    13    1
   13    11    14    1
   14    14    15    1
   15    14    16    1
   16    14    17    1
@<TRIPOS>SUBSTRUCTURE
       1 MOL1            1 RESIDUE      1      MOL     
@<SCITEGIC>MOL_PROPERTY
VConf Rank
SciTegic.value.IntegerValue
801

@<SCITEGIC>MOL_PROPERTY
Conf_Id
SciTegic.value.IntegerValue
36

@<SCITEGIC>MOL_PROPERTY
Delta U+W
SciTegic.value.DoubleValue
0.000

@<SCITEGIC>MOL_PROPERTY
U+W
SciTegic.value.DoubleValue
-53.409

@<SCITEGIC>MOL_PROPERTY
Grad RMS
SciTegic.value.DoubleValue
0.000000

@<SCITEGIC>MOL_PROPERTY
U
SciTegic.value.DoubleValue
9.048

@<SCITEGIC>MOL_PROPERTY
W
SciTegic.value.DoubleValue
-62.457

@<SCITEGIC>MOL_PROPERTY
W(PB)
SciTegic.value.DoubleValue
-64.540

@<SCITEGIC>MOL_PROPERTY
W(SA)
SciTegic.value.DoubleValue
2.084

@<SCITEGIC>MOL_PROPERTY
Valence
SciTegic.value.DoubleValue
2.652

@<SCITEGIC>MOL_PROPERTY
Coulomb
SciTegic.value.DoubleValue
5.578

@<SCITEGIC>MOL_PROPERTY
VdW
SciTegic.value.DoubleValue
0.818

@<SCITEGIC>MOL_PROPERTY
VdW6
SciTegic.value.DoubleValue
-4.534

@<SCITEGIC>MOL_PROPERTY
VdW12
SciTegic.value.DoubleValue
5.352

@<SCITEGIC>MOL_PROPERTY
Bond
SciTegic.value.DoubleValue
0.063

@<SCITEGIC>MOL_PROPERTY
Angle
SciTegic.value.DoubleValue
2.579

@<SCITEGIC>MOL_PROPERTY
Pdih
SciTegic.value.DoubleValue
0.010

@<SCITEGIC>MOL_PROPERTY
Idih
SciTegic.value.DoubleValue
0.000

@<SCITEGIC>MOL_PROPERTY
Tether
SciTegic.value.DoubleValue
0.000

@<TRIPOS>MOLECULE
guest-s19_confgen4.mol2 : confsearch ligand conformer 802
          17          16           1
SMALL
USER_CHARGES
 
@<TRIPOS>ATOM
       1    C1      17.511539   21.344768   21.700160 C.2        1 MOL1         0.6173
       2    O1      17.596002   21.862781   20.602470 O.co2      1 MOL1        -0.6755
       3    O2      16.778892   21.765768   22.574055 O.co2      1 MOL1        -0.6755
       4    C2      18.329967   20.141235   22.009748 C.2        1 MOL1        -0.1504
       5    H1      18.207053   19.727694   23.008139 H          1 MOL1         0.0814
       6    C3      19.186718   19.566931   21.134968 C.2        1 MOL1        -0.1394
       7    H2      19.319213   19.974347   20.132855 H          1 MOL1         0.0817
       8    C4      20.016823   18.344015   21.458452 C.3        1 MOL1        -0.1849
       9    H3      20.270889   17.815720   20.529612 H          1 MOL1         0.0736
      10    H4      19.430228   17.642103   22.066755 H          1 MOL1         0.0736
      11    C5      21.311020   18.725014   22.206055 C.3        1 MOL1        -0.1866
      12    H5      21.897001   19.425371   21.594751 H          1 MOL1         0.0738
      13    H6      21.058478   19.250116   23.137747 H          1 MOL1         0.0738
      14    C6      22.167350   17.484679   22.531313 C.3        1 MOL1        -0.2879
      15    H7      22.460723   16.958040   21.613700 H          1 MOL1         0.0750
      16    H8      23.082980   17.775370   23.062586 H          1 MOL1         0.0750
      17    H9      21.614614   16.781782   23.168380 H          1 MOL1         0.0750
@<TRIPOS>BOND
    1     1     2    1
    2     1     3    2
    3     1     4    1
    4     4     5    1
    5     4     6    2
    6     6     7    1
    7     6     8    1
    8     8     9    1
    9     8    10    1
   10     8    11    1
   11    11    12    1
   12    11    13    1
   13    11    14    1
   14    14    15    1
   15    14    16    1
   16    14    17    1
@<TRIPOS>SUBSTRUCTURE
       1 MOL1            1 RESIDUE      1      MOL     
@<SCITEGIC>MOL_PROPERTY
VConf Rank
SciTegic.value.IntegerValue
802

@<SCITEGIC>MOL_PROPERTY
Conf_Id
SciTegic.value.IntegerValue
1

@<SCITEGIC>MOL_PROPERTY
Delta U+W
SciTegic.value.DoubleValue
0.030

@<SCITEGIC>MOL_PROPERTY
U+W
SciTegic.value.DoubleValue
-53.378

@<SCITEGIC>MOL_PROPERTY
Grad RMS
SciTegic.value.DoubleValue
0.000000

@<SCITEGIC>MOL_PROPERTY
U
SciTegic.value.DoubleValue
9.048

@<SCITEGIC>MOL_PROPERTY
W
SciTegic.value.DoubleValue
-62.426

@<SCITEGIC>MOL_PROPERTY
W(PB)
SciTegic.value.DoubleValue
-64.506

@<SCITEGIC>MOL_PROPERTY
W(SA)
SciTegic.value.DoubleValue
2.080

@<SCITEGIC>MOL_PROPERTY
Valence
SciTegic.value.DoubleValue
2.652

@<SCITEGIC>MOL_PROPERTY
Coulomb
SciTegic.value.DoubleValue
5.578

@<SCITEGIC>MOL_PROPERTY
VdW
SciTegic.value.DoubleValue
0.818

@<SCITEGIC>MOL_PROPERTY
VdW6
SciTegic.value.DoubleValue
-4.535

@<SCITEGIC>MOL_PROPERTY
VdW12
SciTegic.value.DoubleValue
5.352

@<SCITEGIC>MOL_PROPERTY
Bond
SciTegic.value.DoubleValue
0.063

@<SCITEGIC>MOL_PROPERTY
Angle
SciTegic.value.DoubleValue
2.579

@<SCITEGIC>MOL_PROPERTY
Pdih
SciTegic.value.DoubleValue
0.010

@<SCITEGIC>MOL_PROPERTY
Idih
SciTegic.value.DoubleValue
0.000

@<SCITEGIC>MOL_PROPERTY
Tether
SciTegic.value.DoubleValue
0.000

@<TRIPOS>MOLECULE
guest-s19_confgen4.mol2 : confsearch ligand conformer 803
          17          16           1
SMALL
USER_CHARGES
 
@<TRIPOS>ATOM
       1    C1      19.182196   16.222219   22.819778 C.2        1 MOL1         0.6173
       2    O1      19.331253   15.656772   21.752776 O.co2      1 MOL1        -0.6755
       3    O2      19.066061   15.625224   23.872357 O.co2      1 MOL1        -0.6755
       4    C2      19.133216   17.708745   22.863711 C.2        1 MOL1        -0.1504
       5    H1      18.997049   18.150343   23.848196 H          1 MOL1         0.0814
       6    C3      19.250003   18.499214   21.772608 C.2        1 MOL1        -0.1394
       7    H2      19.390133   18.067406   20.781900 H          1 MOL1         0.0817
       8    C4      19.203063   20.011829   21.825582 C.3        1 MOL1        -0.1849
       9    H3      18.425749   20.331651   22.532705 H          1 MOL1         0.0736
      10    H4      18.908069   20.410295   20.845532 H          1 MOL1         0.0736
      11    C5      20.555393   20.627307   22.247428 C.3        1 MOL1        -0.1866
      12    H5      20.433353   21.712220   22.370807 H          1 MOL1         0.0738
      13    H6      20.852634   20.231391   23.228410 H          1 MOL1         0.0738
      14    C6      21.673969   20.359317   21.218019 C.3        1 MOL1        -0.2879
      15    H7      21.403668   20.758187   20.231619 H          1 MOL1         0.0750
      16    H8      22.610373   20.838175   21.532265 H          1 MOL1         0.0750
      17    H9      21.865376   19.283504   21.112139 H          1 MOL1         0.0750
@<TRIPOS>BOND
    1     1     2    1
    2     1     3    2
    3     1     4    1
    4     4     5    1
    5     4     6    2
    6     6     7    1
    7     6     8    1
    8     8     9    1
    9     8    10    1
   10     8    11    1
   11    11    12    1
   12    11    13    1
   13    11    14    1
   14    14    15    1
   15    14    16    1
   16    14    17    1
@<TRIPOS>SUBSTRUCTURE
       1 MOL1            1 RESIDUE      1      MOL     
@<SCITEGIC>MOL_PROPERTY
VConf Rank
SciTegic.value.IntegerValue
803

@<SCITEGIC>MOL_PROPERTY
Conf_Id
SciTegic.value.IntegerValue
3

@<SCITEGIC>MOL_PROPERTY
Delta U+W
SciTegic.value.DoubleValue
0.531

@<SCITEGIC>MOL_PROPERTY
U+W
SciTegic.value.DoubleValue
-52.878

@<SCITEGIC>MOL_PROPERTY
Grad RMS
SciTegic.value.DoubleValue
0.000000

@<SCITEGIC>MOL_PROPERTY
U
SciTegic.value.DoubleValue
10.067

@<SCITEGIC>MOL_PROPERTY
W
SciTegic.value.DoubleValue
-62.945

@<SCITEGIC>MOL_PROPERTY
W(PB)
SciTegic.value.DoubleValue
-64.982

@<SCITEGIC>MOL_PROPERTY
W(SA)
SciTegic.value.DoubleValue
2.037

@<SCITEGIC>MOL_PROPERTY
Valence
SciTegic.value.DoubleValue
2.779

@<SCITEGIC>MOL_PROPERTY
Coulomb
SciTegic.value.DoubleValue
6.474

@<SCITEGIC>MOL_PROPERTY
VdW
SciTegic.value.DoubleValue
0.815

@<SCITEGIC>MOL_PROPERTY
VdW6
SciTegic.value.DoubleValue
-5.088

@<SCITEGIC>MOL_PROPERTY
VdW12
SciTegic.value.DoubleValue
5.902

@<SCITEGIC>MOL_PROPERTY
Bond
SciTegic.value.DoubleValue
0.078

@<SCITEGIC>MOL_PROPERTY
Angle
SciTegic.value.DoubleValue
2.651

@<SCITEGIC>MOL_PROPERTY
Pdih
SciTegic.value.DoubleValue
0.050

@<SCITEGIC>MOL_PROPERTY
Idih
SciTegic.value.DoubleValue
0.000

@<SCITEGIC>MOL_PROPERTY
Tether
SciTegic.value.DoubleValue
0.000

@<TRIPOS>MOLECULE
guest-s19_confgen4.mol2 : confsearch ligand conformer 804
          17          16           1
SMALL
USER_CHARGES
 
@<TRIPOS>ATOM
       1    C1      21.269813   21.824302   21.926913 C.2        1 MOL1         0.6173
       2    O1      21.392216   22.671957   22.789629 O.co2      1 MOL1        -0.6755
       3    O2      21.339171   22.076639   20.738652 O.co2      1 MOL1        -0.6755
       4    C2      21.028511   20.423997   22.368491 C.2        1 MOL1        -0.1504
       5    H1      20.977835   20.268220   23.443606 H          1 MOL1         0.0814
       6    C3      20.871343   19.382661   21.519666 C.2        1 MOL1        -0.1394
       7    H2      20.917008   19.530521   20.440977 H          1 MOL1         0.0817
       8    C4      20.623059   17.958620   21.972213 C.3        1 MOL1        -0.1849
       9    H3      20.891240   17.837163   23.030546 H          1 MOL1         0.0736
      10    H4      21.283026   17.283937   21.410737 H          1 MOL1         0.0736
      11    C5      19.157861   17.521506   21.754746 C.3        1 MOL1        -0.1866
      12    H5      18.887944   17.645183   20.696773 H          1 MOL1         0.0738
      13    H6      19.066548   16.449718   21.978648 H          1 MOL1         0.0738
      14    C6      18.166276   18.306405   22.639914 C.3        1 MOL1        -0.2879
      15    H7      18.182392   19.377319   22.399212 H          1 MOL1         0.0750
      16    H8      17.141767   17.942954   22.487765 H          1 MOL1         0.0750
      17    H9      18.412871   18.190622   23.703342 H          1 MOL1         0.0750
@<TRIPOS>BOND
    1     1     2    1
    2     1     3    2
    3     1     4    1
    4     4     5    1
    5     4     6    2
    6     6     7    1
    7     6     8    1
    8     8     9    1
    9     8    10    1
   10     8    11    1
   11    11    12    1
   12    11    13    1
   13    11    14    1
   14    14    15    1
   15    14    16    1
   16    14    17    1
@<TRIPOS>SUBSTRUCTURE
       1 MOL1            1 RESIDUE      1      MOL     
@<SCITEGIC>MOL_PROPERTY
VConf Rank
SciTegic.value.IntegerValue
804

@<SCITEGIC>MOL_PROPERTY
Conf_Id
SciTegic.value.IntegerValue
45

@<SCITEGIC>MOL_PROPERTY
Delta U+W
SciTegic.value.DoubleValue
0.562

@<SCITEGIC>MOL_PROPERTY
U+W
SciTegic.value.DoubleValue
-52.846

@<SCITEGIC>MOL_PROPERTY
Grad RMS
SciTegic.value.DoubleValue
0.000000

@<SCITEGIC>MOL_PROPERTY
U
SciTegic.value.DoubleValue
10.243

@<SCITEGIC>MOL_PROPERTY
W
SciTegic.value.DoubleValue
-63.089

@<SCITEGIC>MOL_PROPERTY
W(PB)
SciTegic.value.DoubleValue
-65.116

@<SCITEGIC>MOL_PROPERTY
W(SA)
SciTegic.value.DoubleValue
2.026

@<SCITEGIC>MOL_PROPERTY
Valence
SciTegic.value.DoubleValue
2.822

@<SCITEGIC>MOL_PROPERTY
Coulomb
SciTegic.value.DoubleValue
6.637

@<SCITEGIC>MOL_PROPERTY
VdW
SciTegic.value.DoubleValue
0.785

@<SCITEGIC>MOL_PROPERTY
VdW6
SciTegic.value.DoubleValue
-5.216

@<SCITEGIC>MOL_PROPERTY
VdW12
SciTegic.value.DoubleValue
6.001

@<SCITEGIC>MOL_PROPERTY
Bond
SciTegic.value.DoubleValue
0.080

@<SCITEGIC>MOL_PROPERTY
Angle
SciTegic.value.DoubleValue
2.678

@<SCITEGIC>MOL_PROPERTY
Pdih
SciTegic.value.DoubleValue
0.064

@<SCITEGIC>MOL_PROPERTY
Idih
SciTegic.value.DoubleValue
0.000

@<SCITEGIC>MOL_PROPERTY
Tether
SciTegic.value.DoubleValue
0.000

@<TRIPOS>MOLECULE
guest-s19_confgen4.mol2 : confsearch ligand conformer 805
          17          16           1
SMALL
USER_CHARGES
 
@<TRIPOS>ATOM
       1    C1      17.822770   19.587280   19.374436 C.2        1 MOL1         0.6173
       2    O1      16.648044   19.897400   19.413784 O.co2      1 MOL1        -0.6755
       3    O2      18.361623   19.166632   18.367914 O.co2      1 MOL1        -0.6755
       4    C2      18.616105   19.738896   20.624154 C.2        1 MOL1        -0.1504
       5    H1      18.074378   20.119764   21.486928 H          1 MOL1         0.0814
       6    C3      19.929361   19.431914   20.725171 C.2        1 MOL1        -0.1394
       7    H2      20.481223   19.047377   19.867644 H          1 MOL1         0.0817
       8    C4      20.728388   19.587013   22.000608 C.3        1 MOL1        -0.1849
       9    H3      20.419768   20.499639   22.528507 H          1 MOL1         0.0736
      10    H4      21.791709   19.712244   21.755552 H          1 MOL1         0.0736
      11    C5      20.552366   18.365649   22.925973 C.3        1 MOL1        -0.1866
      12    H5      19.489422   18.241437   23.175533 H          1 MOL1         0.0738
      13    H6      20.863596   17.454413   22.396490 H          1 MOL1         0.0738
      14    C6      21.371220   18.511730   24.224305 C.3        1 MOL1        -0.2879
      15    H7      22.442815   18.605771   24.004596 H          1 MOL1         0.0750
      16    H8      21.057605   19.399709   24.788729 H          1 MOL1         0.0750
      17    H9      21.233357   17.634169   24.869295 H          1 MOL1         0.0750
@<TRIPOS>BOND
    1     1     2    1
    2     1     3    2
    3     1     4    1
    4     4     5    1
    5     4     6    2
    6     6     7    1
    7     6     8    1
    8     8     9    1
    9     8    10    1
   10     8    11    1
   11    11    12    1
   12    11    13    1
   13    11    14    1
   14    14    15    1
   15    14    16    1
   16    14    17    1
@<TRIPOS>SUBSTRUCTURE
       1 MOL1            1 RESIDUE      1      MOL     
@<SCITEGIC>MOL_PROPERTY
VConf Rank
SciTegic.value.IntegerValue
805

@<SCITEGIC>MOL_PROPERTY
Conf_Id
SciTegic.value.IntegerValue
36

@<SCITEGIC>MOL_PROPERTY
Delta U+W
SciTegic.value.DoubleValue
0.000

@<SCITEGIC>MOL_PROPERTY
U+W
SciTegic.value.DoubleValue
-53.409

@<SCITEGIC>MOL_PROPERTY
Grad RMS
SciTegic.value.DoubleValue
0.000000

@<SCITEGIC>MOL_PROPERTY
U
SciTegic.value.DoubleValue
9.048

@<SCITEGIC>MOL_PROPERTY
W
SciTegic.value.DoubleValue
-62.457

@<SCITEGIC>MOL_PROPERTY
W(PB)
SciTegic.value.DoubleValue
-64.540

@<SCITEGIC>MOL_PROPERTY
W(SA)
SciTegic.value.DoubleValue
2.084

@<SCITEGIC>MOL_PROPERTY
Valence
SciTegic.value.DoubleValue
2.652

@<SCITEGIC>MOL_PROPERTY
Coulomb
SciTegic.value.DoubleValue
5.578

@<SCITEGIC>MOL_PROPERTY
VdW
SciTegic.value.DoubleValue
0.818

@<SCITEGIC>MOL_PROPERTY
VdW6
SciTegic.value.DoubleValue
-4.534

@<SCITEGIC>MOL_PROPERTY
VdW12
SciTegic.value.DoubleValue
5.352

@<SCITEGIC>MOL_PROPERTY
Bond
SciTegic.value.DoubleValue
0.063

@<SCITEGIC>MOL_PROPERTY
Angle
SciTegic.value.DoubleValue
2.579

@<SCITEGIC>MOL_PROPERTY
Pdih
SciTegic.value.DoubleValue
0.010

@<SCITEGIC>MOL_PROPERTY
Idih
SciTegic.value.DoubleValue
0.000

@<SCITEGIC>MOL_PROPERTY
Tether
SciTegic.value.DoubleValue
0.000

@<TRIPOS>MOLECULE
guest-s19_confgen4.mol2 : confsearch ligand conformer 806
          17          16           1
SMALL
USER_CHARGES
 
@<TRIPOS>ATOM
       1    C1      16.895234   18.081278   22.704917 C.2        1 MOL1         0.6173
       2    O1      16.693577   18.426200   23.854159 O.co2      1 MOL1        -0.6755
       3    O2      16.153691   17.330620   22.101318 O.co2      1 MOL1        -0.6755
       4    C2      18.094791   18.588406   21.985163 C.2        1 MOL1        -0.1504
       5    H1      18.215759   18.241794   20.961378 H          1 MOL1         0.0814
       6    C3      19.003781   19.426908   22.532645 C.2        1 MOL1        -0.1394
       7    H2      18.893475   19.778633   23.558265 H          1 MOL1         0.0817
       8    C4      20.222123   19.936529   21.794288 C.3        1 MOL1        -0.1849
       9    H3      20.545442   20.890394   22.232459 H          1 MOL1         0.0736
      10    H4      19.966370   20.144739   20.746412 H          1 MOL1         0.0736
      11    C5      21.381622   18.921215   21.855253 C.3        1 MOL1        -0.1866
      12    H5      21.637024   18.716244   22.904216 H          1 MOL1         0.0738
      13    H6      21.061078   17.967457   21.413486 H          1 MOL1         0.0738
      14    C6      22.630539   19.437302   21.112702 C.3        1 MOL1        -0.2879
      15    H7      22.991258   20.375144   21.555156 H          1 MOL1         0.0750
      16    H8      23.444044   18.702186   21.166957 H          1 MOL1         0.0750
      17    H9      22.409683   19.620684   20.052971 H          1 MOL1         0.0750
@<TRIPOS>BOND
    1     1     2    1
    2     1     3    2
    3     1     4    1
    4     4     5    1
    5     4     6    2
    6     6     7    1
    7     6     8    1
    8     8     9    1
    9     8    10    1
   10     8    11    1
   11    11    12    1
   12    11    13    1
   13    11    14    1
   14    14    15    1
   15    14    16    1
   16    14    17    1
@<TRIPOS>SUBSTRUCTURE
       1 MOL1            1 RESIDUE      1      MOL     
@<SCITEGIC>MOL_PROPERTY
VConf Rank
SciTegic.value.IntegerValue
806

@<SCITEGIC>MOL_PROPERTY
Conf_Id
SciTegic.value.IntegerValue
1

@<SCITEGIC>MOL_PROPERTY
Delta U+W
SciTegic.value.DoubleValue
0.030

@<SCITEGIC>MOL_PROPERTY
U+W
SciTegic.value.DoubleValue
-53.378

@<SCITEGIC>MOL_PROPERTY
Grad RMS
SciTegic.value.DoubleValue
0.000000

@<SCITEGIC>MOL_PROPERTY
U
SciTegic.value.DoubleValue
9.048

@<SCITEGIC>MOL_PROPERTY
W
SciTegic.value.DoubleValue
-62.426

@<SCITEGIC>MOL_PROPERTY
W(PB)
SciTegic.value.DoubleValue
-64.506

@<SCITEGIC>MOL_PROPERTY
W(SA)
SciTegic.value.DoubleValue
2.080

@<SCITEGIC>MOL_PROPERTY
Valence
SciTegic.value.DoubleValue
2.652

@<SCITEGIC>MOL_PROPERTY
Coulomb
SciTegic.value.DoubleValue
5.578

@<SCITEGIC>MOL_PROPERTY
VdW
SciTegic.value.DoubleValue
0.818

@<SCITEGIC>MOL_PROPERTY
VdW6
SciTegic.value.DoubleValue
-4.535

@<SCITEGIC>MOL_PROPERTY
VdW12
SciTegic.value.DoubleValue
5.352

@<SCITEGIC>MOL_PROPERTY
Bond
SciTegic.value.DoubleValue
0.063

@<SCITEGIC>MOL_PROPERTY
Angle
SciTegic.value.DoubleValue
2.579

@<SCITEGIC>MOL_PROPERTY
Pdih
SciTegic.value.DoubleValue
0.010

@<SCITEGIC>MOL_PROPERTY
Idih
SciTegic.value.DoubleValue
0.000

@<SCITEGIC>MOL_PROPERTY
Tether
SciTegic.value.DoubleValue
0.000

@<TRIPOS>MOLECULE
guest-s19_confgen4.mol2 : confsearch ligand conformer 807
          17          16           1
SMALL
USER_CHARGES
 
@<TRIPOS>ATOM
       1    C1      22.926537   18.108582   22.320893 C.2        1 MOL1         0.6173
       2    O1      22.890274   17.116987   21.616717 O.co2      1 MOL1        -0.6755
       3    O2      23.966718   18.625613   22.679383 O.co2      1 MOL1        -0.6755
       4    C2      21.655511   18.731999   22.779080 C.2        1 MOL1        -0.1504
       5    H1      21.758691   19.614542   23.406162 H          1 MOL1         0.0814
       6    C3      20.427941   18.265055   22.456556 C.2        1 MOL1        -0.1394
       7    H2      20.313011   17.383592   21.826151 H          1 MOL1         0.0817
       8    C4      19.138523   18.907220   22.923505 C.3        1 MOL1        -0.1849
       9    H3      19.240970   19.219232   23.971684 H          1 MOL1         0.0736
      10    H4      18.325275   18.169352   22.901814 H          1 MOL1         0.0736
      11    C5      18.747885   20.131533   22.066755 C.3        1 MOL1        -0.1866
      12    H5      17.868817   20.616491   22.513084 H          1 MOL1         0.0738
      13    H6      19.559267   20.872246   22.087523 H          1 MOL1         0.0738
      14    C6      18.427230   19.752552   20.605158 C.3        1 MOL1        -0.2879
      15    H7      17.609409   19.021650   20.559368 H          1 MOL1         0.0750
      16    H8      18.121690   20.639234   20.034765 H          1 MOL1         0.0750
      17    H9      19.303807   19.317918   20.107235 H          1 MOL1         0.0750
@<TRIPOS>BOND
    1     1     2    1
    2     1     3    2
    3     1     4    1
    4     4     5    1
    5     4     6    2
    6     6     7    1
    7     6     8    1
    8     8     9    1
    9     8    10    1
   10     8    11    1
   11    11    12    1
   12    11    13    1
   13    11    14    1
   14    14    15    1
   15    14    16    1
   16    14    17    1
@<TRIPOS>SUBSTRUCTURE
       1 MOL1            1 RESIDUE      1      MOL     
@<SCITEGIC>MOL_PROPERTY
VConf Rank
SciTegic.value.IntegerValue
807

@<SCITEGIC>MOL_PROPERTY
Conf_Id
SciTegic.value.IntegerValue
3

@<SCITEGIC>MOL_PROPERTY
Delta U+W
SciTegic.value.DoubleValue
0.531

@<SCITEGIC>MOL_PROPERTY
U+W
SciTegic.value.DoubleValue
-52.878

@<SCITEGIC>MOL_PROPERTY
Grad RMS
SciTegic.value.DoubleValue
0.000000

@<SCITEGIC>MOL_PROPERTY
U
SciTegic.value.DoubleValue
10.067

@<SCITEGIC>MOL_PROPERTY
W
SciTegic.value.DoubleValue
-62.945

@<SCITEGIC>MOL_PROPERTY
W(PB)
SciTegic.value.DoubleValue
-64.982

@<SCITEGIC>MOL_PROPERTY
W(SA)
SciTegic.value.DoubleValue
2.037

@<SCITEGIC>MOL_PROPERTY
Valence
SciTegic.value.DoubleValue
2.779

@<SCITEGIC>MOL_PROPERTY
Coulomb
SciTegic.value.DoubleValue
6.474

@<SCITEGIC>MOL_PROPERTY
VdW
SciTegic.value.DoubleValue
0.815

@<SCITEGIC>MOL_PROPERTY
VdW6
SciTegic.value.DoubleValue
-5.088

@<SCITEGIC>MOL_PROPERTY
VdW12
SciTegic.value.DoubleValue
5.902

@<SCITEGIC>MOL_PROPERTY
Bond
SciTegic.value.DoubleValue
0.078

@<SCITEGIC>MOL_PROPERTY
Angle
SciTegic.value.DoubleValue
2.651

@<SCITEGIC>MOL_PROPERTY
Pdih
SciTegic.value.DoubleValue
0.050

@<SCITEGIC>MOL_PROPERTY
Idih
SciTegic.value.DoubleValue
0.000

@<SCITEGIC>MOL_PROPERTY
Tether
SciTegic.value.DoubleValue
0.000

@<TRIPOS>MOLECULE
guest-s19_confgen4.mol2 : confsearch ligand conformer 808
          17          16           1
SMALL
USER_CHARGES
 
@<TRIPOS>ATOM
       1    C1      21.765556   16.807028   22.891324 C.2        1 MOL1         0.6173
       2    O1      22.978873   16.732018   22.887340 O.co2      1 MOL1        -0.6755
       3    O2      21.043409   15.827769   22.893464 O.co2      1 MOL1        -0.6755
       4    C2      21.160975   18.166632   22.896992 C.2        1 MOL1        -0.1504
       5    H1      21.862832   18.997353   22.894809 H          1 MOL1         0.0814
       6    C3      19.828428   18.398790   22.899439 C.2        1 MOL1        -0.1394
       7    H2      19.118240   17.572261   22.897939 H          1 MOL1         0.0817
       8    C4      19.215942   19.784137   22.902424 C.3        1 MOL1        -0.1849
       9    H3      19.958027   20.534075   23.208436 H          1 MOL1         0.0736
      10    H4      18.416686   19.820984   23.654648 H          1 MOL1         0.0736
      11    C5      18.627319   20.167739   21.527091 C.3        1 MOL1        -0.1866
      12    H5      17.886787   19.416638   21.219002 H          1 MOL1         0.0738
      13    H6      18.087724   21.120201   21.621169 H          1 MOL1         0.0738
      14    C6      19.710169   20.308881   20.436061 C.3        1 MOL1        -0.2879
      15    H7      20.229380   19.356454   20.267672 H          1 MOL1         0.0750
      16    H8      19.260807   20.619776   19.484071 H          1 MOL1         0.0750
      17    H9      20.457725   21.060986   20.719949 H          1 MOL1         0.0750
@<TRIPOS>BOND
    1     1     2    1
    2     1     3    2
    3     1     4    1
    4     4     5    1
    5     4     6    2
    6     6     7    1
    7     6     8    1
    8     8     9    1
    9     8    10    1
   10     8    11    1
   11    11    12    1
   12    11    13    1
   13    11    14    1
   14    14    15    1
   15    14    16    1
   16    14    17    1
@<TRIPOS>SUBSTRUCTURE
       1 MOL1            1 RESIDUE      1      MOL     
@<SCITEGIC>MOL_PROPERTY
VConf Rank
SciTegic.value.IntegerValue
808

@<SCITEGIC>MOL_PROPERTY
Conf_Id
SciTegic.value.IntegerValue
45

@<SCITEGIC>MOL_PROPERTY
Delta U+W
SciTegic.value.DoubleValue
0.562

@<SCITEGIC>MOL_PROPERTY
U+W
SciTegic.value.DoubleValue
-52.846

@<SCITEGIC>MOL_PROPERTY
Grad RMS
SciTegic.value.DoubleValue
0.000000

@<SCITEGIC>MOL_PROPERTY
U
SciTegic.value.DoubleValue
10.243

@<SCITEGIC>MOL_PROPERTY
W
SciTegic.value.DoubleValue
-63.089

@<SCITEGIC>MOL_PROPERTY
W(PB)
SciTegic.value.DoubleValue
-65.116

@<SCITEGIC>MOL_PROPERTY
W(SA)
SciTegic.value.DoubleValue
2.026

@<SCITEGIC>MOL_PROPERTY
Valence
SciTegic.value.DoubleValue
2.822

@<SCITEGIC>MOL_PROPERTY
Coulomb
SciTegic.value.DoubleValue
6.637

@<SCITEGIC>MOL_PROPERTY
VdW
SciTegic.value.DoubleValue
0.785

@<SCITEGIC>MOL_PROPERTY
VdW6
SciTegic.value.DoubleValue
-5.216

@<SCITEGIC>MOL_PROPERTY
VdW12
SciTegic.value.DoubleValue
6.001

@<SCITEGIC>MOL_PROPERTY
Bond
SciTegic.value.DoubleValue
0.080

@<SCITEGIC>MOL_PROPERTY
Angle
SciTegic.value.DoubleValue
2.678

@<SCITEGIC>MOL_PROPERTY
Pdih
SciTegic.value.DoubleValue
0.064

@<SCITEGIC>MOL_PROPERTY
Idih
SciTegic.value.DoubleValue
0.000

@<SCITEGIC>MOL_PROPERTY
Tether
SciTegic.value.DoubleValue
0.000

@<TRIPOS>MOLECULE
guest-s19_confgen4.mol2 : confsearch ligand conformer 809
          17          16           1
SMALL
USER_CHARGES
 
@<TRIPOS>ATOM
       1    C1      23.034317   17.679557   21.666368 C.2        1 MOL1         0.6173
       2    O1      23.413647   16.807110   20.909632 O.co2      1 MOL1        -0.6755
       3    O2      23.669692   18.028761   22.643480 O.co2      1 MOL1        -0.6755
       4    C2      21.733604   18.335369   21.362692 C.2        1 MOL1        -0.1504
       5    H1      21.216930   17.976598   20.475427 H          1 MOL1         0.0814
       6    C3      21.190447   19.317628   22.117167 C.2        1 MOL1        -0.1394
       7    H2      21.698455   19.682963   23.009485 H          1 MOL1         0.0817
       8    C4      19.865944   19.977876   21.802521 C.3        1 MOL1        -0.1849
       9    H3      19.760551   20.109818   20.717029 H          1 MOL1         0.0736
      10    H4      19.842459   20.983652   22.243259 H          1 MOL1         0.0736
      11    C5      18.682639   19.149547   22.343516 C.3        1 MOL1        -0.1866
      12    H5      18.702256   18.144209   21.900266 H          1 MOL1         0.0738
      13    H6      18.789214   19.020685   23.429612 H          1 MOL1         0.0738
      14    C6      17.329118   19.820651   22.035093 C.3        1 MOL1        -0.2879
      15    H7      17.270419   20.816218   22.494257 H          1 MOL1         0.0750
      16    H8      17.184012   19.933092   20.952624 H          1 MOL1         0.0750
      17    H9      16.500046   19.217303   22.427190 H          1 MOL1         0.0750
@<TRIPOS>BOND
    1     1     2    1
    2     1     3    2
    3     1     4    1
    4     4     5    1
    5     4     6    2
    6     6     7    1
    7     6     8    1
    8     8     9    1
    9     8    10    1
   10     8    11    1
   11    11    12    1
   12    11    13    1
   13    11    14    1
   14    14    15    1
   15    14    16    1
   16    14    17    1
@<TRIPOS>SUBSTRUCTURE
       1 MOL1            1 RESIDUE      1      MOL     
@<SCITEGIC>MOL_PROPERTY
VConf Rank
SciTegic.value.IntegerValue
809

@<SCITEGIC>MOL_PROPERTY
Conf_Id
SciTegic.value.IntegerValue
36

@<SCITEGIC>MOL_PROPERTY
Delta U+W
SciTegic.value.DoubleValue
0.000

@<SCITEGIC>MOL_PROPERTY
U+W
SciTegic.value.DoubleValue
-53.409

@<SCITEGIC>MOL_PROPERTY
Grad RMS
SciTegic.value.DoubleValue
0.000000

@<SCITEGIC>MOL_PROPERTY
U
SciTegic.value.DoubleValue
9.048

@<SCITEGIC>MOL_PROPERTY
W
SciTegic.value.DoubleValue
-62.457

@<SCITEGIC>MOL_PROPERTY
W(PB)
SciTegic.value.DoubleValue
-64.540

@<SCITEGIC>MOL_PROPERTY
W(SA)
SciTegic.value.DoubleValue
2.084

@<SCITEGIC>MOL_PROPERTY
Valence
SciTegic.value.DoubleValue
2.652

@<SCITEGIC>MOL_PROPERTY
Coulomb
SciTegic.value.DoubleValue
5.578

@<SCITEGIC>MOL_PROPERTY
VdW
SciTegic.value.DoubleValue
0.818

@<SCITEGIC>MOL_PROPERTY
VdW6
SciTegic.value.DoubleValue
-4.534

@<SCITEGIC>MOL_PROPERTY
VdW12
SciTegic.value.DoubleValue
5.352

@<SCITEGIC>MOL_PROPERTY
Bond
SciTegic.value.DoubleValue
0.063

@<SCITEGIC>MOL_PROPERTY
Angle
SciTegic.value.DoubleValue
2.579

@<SCITEGIC>MOL_PROPERTY
Pdih
SciTegic.value.DoubleValue
0.010

@<SCITEGIC>MOL_PROPERTY
Idih
SciTegic.value.DoubleValue
0.000

@<SCITEGIC>MOL_PROPERTY
Tether
SciTegic.value.DoubleValue
0.000

@<TRIPOS>MOLECULE
guest-s19_confgen4.mol2 : confsearch ligand conformer 810
          17          16           1
SMALL
USER_CHARGES
 
@<TRIPOS>ATOM
       1    C1      18.036592   21.653794   22.867987 C.2        1 MOL1         0.6173
       2    O1      18.684446   22.328617   23.645992 O.co2      1 MOL1        -0.6755
       3    O2      16.844529   21.812658   22.690630 O.co2      1 MOL1        -0.6755
       4    C2      18.711057   20.581841   22.086850 C.2        1 MOL1        -0.1504
       5    H1      18.075015   20.016259   21.409741 H          1 MOL1         0.0814
       6    C3      20.028965   20.294098   22.183849 C.2        1 MOL1        -0.1394
       7    H2      20.674940   20.853016   22.860680 H          1 MOL1         0.0817
       8    C4      20.706756   19.200911   21.387117 C.3        1 MOL1        -0.1849
       9    H3      21.776140   19.429597   21.284606 H          1 MOL1         0.0736
      10    H4      20.295253   19.167947   20.369087 H          1 MOL1         0.0736
      11    C5      20.535680   17.824840   22.062527 C.3        1 MOL1        -0.1866
      12    H5      20.949927   17.859707   23.079753 H          1 MOL1         0.0738
      13    H6      19.466231   17.592645   22.162150 H          1 MOL1         0.0738
      14    C6      21.231742   16.706355   21.261269 C.3        1 MOL1        -0.2879
      15    H7      22.309284   16.897858   21.173747 H          1 MOL1         0.0750
      16    H8      21.099282   15.735774   21.756805 H          1 MOL1         0.0750
      17    H9      20.813652   16.629817   20.248956 H          1 MOL1         0.0750
@<TRIPOS>BOND
    1     1     2    1
    2     1     3    2
    3     1     4    1
    4     4     5    1
    5     4     6    2
    6     6     7    1
    7     6     8    1
    8     8     9    1
    9     8    10    1
   10     8    11    1
   11    11    12    1
   12    11    13    1
   13    11    14    1
   14    14    15    1
   15    14    16    1
   16    14    17    1
@<TRIPOS>SUBSTRUCTURE
       1 MOL1            1 RESIDUE      1      MOL     
@<SCITEGIC>MOL_PROPERTY
VConf Rank
SciTegic.value.IntegerValue
810

@<SCITEGIC>MOL_PROPERTY
Conf_Id
SciTegic.value.IntegerValue
1

@<SCITEGIC>MOL_PROPERTY
Delta U+W
SciTegic.value.DoubleValue
0.030

@<SCITEGIC>MOL_PROPERTY
U+W
SciTegic.value.DoubleValue
-53.378

@<SCITEGIC>MOL_PROPERTY
Grad RMS
SciTegic.value.DoubleValue
0.000000

@<SCITEGIC>MOL_PROPERTY
U
SciTegic.value.DoubleValue
9.048

@<SCITEGIC>MOL_PROPERTY
W
SciTegic.value.DoubleValue
-62.426

@<SCITEGIC>MOL_PROPERTY
W(PB)
SciTegic.value.DoubleValue
-64.506

@<SCITEGIC>MOL_PROPERTY
W(SA)
SciTegic.value.DoubleValue
2.080

@<SCITEGIC>MOL_PROPERTY
Valence
SciTegic.value.DoubleValue
2.652

@<SCITEGIC>MOL_PROPERTY
Coulomb
SciTegic.value.DoubleValue
5.578

@<SCITEGIC>MOL_PROPERTY
VdW
SciTegic.value.DoubleValue
0.818

@<SCITEGIC>MOL_PROPERTY
VdW6
SciTegic.value.DoubleValue
-4.535

@<SCITEGIC>MOL_PROPERTY
VdW12
SciTegic.value.DoubleValue
5.352

@<SCITEGIC>MOL_PROPERTY
Bond
SciTegic.value.DoubleValue
0.063

@<SCITEGIC>MOL_PROPERTY
Angle
SciTegic.value.DoubleValue
2.579

@<SCITEGIC>MOL_PROPERTY
Pdih
SciTegic.value.DoubleValue
0.010

@<SCITEGIC>MOL_PROPERTY
Idih
SciTegic.value.DoubleValue
0.000

@<SCITEGIC>MOL_PROPERTY
Tether
SciTegic.value.DoubleValue
0.000

@<TRIPOS>MOLECULE
guest-s19_confgen4.mol2 : confsearch ligand conformer 811
          17          16           1
SMALL
USER_CHARGES
 
@<TRIPOS>ATOM
       1    C1      18.199334   16.600019   22.142203 C.2        1 MOL1         0.6173
       2    O1      17.114798   17.113442   21.940665 O.co2      1 MOL1        -0.6755
       3    O2      18.391652   15.403753   22.043357 O.co2      1 MOL1        -0.6755
       4    C2      19.355439   17.452172   22.531240 C.2        1 MOL1        -0.1504
       5    H1      20.295111   16.930442   22.697299 H          1 MOL1         0.0814
       6    C3      19.286640   18.794935   22.676976 C.2        1 MOL1        -0.1394
       7    H2      18.351061   19.328164   22.509773 H          1 MOL1         0.0817
       8    C4      20.468650   19.656231   23.069451 C.3        1 MOL1        -0.1849
       9    H3      21.052352   19.147641   23.848652 H          1 MOL1         0.0736
      10    H4      20.114081   20.594866   23.516149 H          1 MOL1         0.0736
      11    C5      21.390360   19.970727   21.870658 C.3        1 MOL1        -0.1866
      12    H5      22.279895   20.504895   22.231971 H          1 MOL1         0.0738
      13    H6      21.747774   19.033357   21.422306 H          1 MOL1         0.0738
      14    C6      20.689722   20.827606   20.794750 C.3        1 MOL1        -0.2879
      15    H7      20.334844   21.776313   21.218024 H          1 MOL1         0.0750
      16    H8      21.382146   21.060010   19.975332 H          1 MOL1         0.0750
      17    H9      19.827697   20.299226   20.367026 H          1 MOL1         0.0750
@<TRIPOS>BOND
    1     1     2    1
    2     1     3    2
    3     1     4    1
    4     4     5    1
    5     4     6    2
    6     6     7    1
    7     6     8    1
    8     8     9    1
    9     8    10    1
   10     8    11    1
   11    11    12    1
   12    11    13    1
   13    11    14    1
   14    14    15    1
   15    14    16    1
   16    14    17    1
@<TRIPOS>SUBSTRUCTURE
       1 MOL1            1 RESIDUE      1      MOL     
@<SCITEGIC>MOL_PROPERTY
VConf Rank
SciTegic.value.IntegerValue
811

@<SCITEGIC>MOL_PROPERTY
Conf_Id
SciTegic.value.IntegerValue
3

@<SCITEGIC>MOL_PROPERTY
Delta U+W
SciTegic.value.DoubleValue
0.531

@<SCITEGIC>MOL_PROPERTY
U+W
SciTegic.value.DoubleValue
-52.878

@<SCITEGIC>MOL_PROPERTY
Grad RMS
SciTegic.value.DoubleValue
0.000000

@<SCITEGIC>MOL_PROPERTY
U
SciTegic.value.DoubleValue
10.067

@<SCITEGIC>MOL_PROPERTY
W
SciTegic.value.DoubleValue
-62.945

@<SCITEGIC>MOL_PROPERTY
W(PB)
SciTegic.value.DoubleValue
-64.982

@<SCITEGIC>MOL_PROPERTY
W(SA)
SciTegic.value.DoubleValue
2.037

@<SCITEGIC>MOL_PROPERTY
Valence
SciTegic.value.DoubleValue
2.779

@<SCITEGIC>MOL_PROPERTY
Coulomb
SciTegic.value.DoubleValue
6.474

@<SCITEGIC>MOL_PROPERTY
VdW
SciTegic.value.DoubleValue
0.815

@<SCITEGIC>MOL_PROPERTY
VdW6
SciTegic.value.DoubleValue
-5.088

@<SCITEGIC>MOL_PROPERTY
VdW12
SciTegic.value.DoubleValue
5.902

@<SCITEGIC>MOL_PROPERTY
Bond
SciTegic.value.DoubleValue
0.078

@<SCITEGIC>MOL_PROPERTY
Angle
SciTegic.value.DoubleValue
2.651

@<SCITEGIC>MOL_PROPERTY
Pdih
SciTegic.value.DoubleValue
0.050

@<SCITEGIC>MOL_PROPERTY
Idih
SciTegic.value.DoubleValue
0.000

@<SCITEGIC>MOL_PROPERTY
Tether
SciTegic.value.DoubleValue
0.000

@<TRIPOS>MOLECULE
guest-s19_confgen4.mol2 : confsearch ligand conformer 812
          17          16           1
SMALL
USER_CHARGES
 
@<TRIPOS>ATOM
       1    C1      20.736555   21.222650   24.084963 C.2        1 MOL1         0.6173
       2    O1      20.367125   21.369717   25.233733 O.co2      1 MOL1        -0.6755
       3    O2      21.216361   22.125197   23.424930 O.co2      1 MOL1        -0.6755
       4    C2      20.588072   19.869984   23.483034 C.2        1 MOL1        -0.1504
       5    H1      20.152400   19.109840   24.127298 H          1 MOL1         0.0814
       6    C3      20.953991   19.564123   22.217278 C.2        1 MOL1        -0.1394
       7    H2      21.387874   20.320621   21.563845 H          1 MOL1         0.0817
       8    C4      20.799022   18.186751   21.606405 C.3        1 MOL1        -0.1849
       9    H3      20.652713   17.430780   22.389886 H          1 MOL1         0.0736
      10    H4      21.730480   17.916258   21.091401 H          1 MOL1         0.0736
      11    C5      19.631628   18.120992   20.597430 C.3        1 MOL1        -0.1866
      12    H5      19.775843   18.878696   19.814777 H          1 MOL1         0.0738
      13    H6      19.646752   17.144024   20.094933 H          1 MOL1         0.0738
      14    C6      18.255431   18.320538   21.267575 C.3        1 MOL1        -0.2879
      15    H7      18.178866   19.314652   21.726844 H          1 MOL1         0.0750
      16    H8      17.449145   18.228610   20.528443 H          1 MOL1         0.0750
      17    H9      18.086620   17.568286   22.049057 H          1 MOL1         0.0750
@<TRIPOS>BOND
    1     1     2    1
    2     1     3    2
    3     1     4    1
    4     4     5    1
    5     4     6    2
    6     6     7    1
    7     6     8    1
    8     8     9    1
    9     8    10    1
   10     8    11    1
   11    11    12    1
   12    11    13    1
   13    11    14    1
   14    14    15    1
   15    14    16    1
   16    14    17    1
@<TRIPOS>SUBSTRUCTURE
       1 MOL1            1 RESIDUE      1      MOL     
@<SCITEGIC>MOL_PROPERTY
VConf Rank
SciTegic.value.IntegerValue
812

@<SCITEGIC>MOL_PROPERTY
Conf_Id
SciTegic.value.IntegerValue
45

@<SCITEGIC>MOL_PROPERTY
Delta U+W
SciTegic.value.DoubleValue
0.562

@<SCITEGIC>MOL_PROPERTY
U+W
SciTegic.value.DoubleValue
-52.846

@<SCITEGIC>MOL_PROPERTY
Grad RMS
SciTegic.value.DoubleValue
0.000000

@<SCITEGIC>MOL_PROPERTY
U
SciTegic.value.DoubleValue
10.243

@<SCITEGIC>MOL_PROPERTY
W
SciTegic.value.DoubleValue
-63.089

@<SCITEGIC>MOL_PROPERTY
W(PB)
SciTegic.value.DoubleValue
-65.116

@<SCITEGIC>MOL_PROPERTY
W(SA)
SciTegic.value.DoubleValue
2.026

@<SCITEGIC>MOL_PROPERTY
Valence
SciTegic.value.DoubleValue
2.822

@<SCITEGIC>MOL_PROPERTY
Coulomb
SciTegic.value.DoubleValue
6.637

@<SCITEGIC>MOL_PROPERTY
VdW
SciTegic.value.DoubleValue
0.785

@<SCITEGIC>MOL_PROPERTY
VdW6
SciTegic.value.DoubleValue
-5.216

@<SCITEGIC>MOL_PROPERTY
VdW12
SciTegic.value.DoubleValue
6.001

@<SCITEGIC>MOL_PROPERTY
Bond
SciTegic.value.DoubleValue
0.080

@<SCITEGIC>MOL_PROPERTY
Angle
SciTegic.value.DoubleValue
2.678

@<SCITEGIC>MOL_PROPERTY
Pdih
SciTegic.value.DoubleValue
0.064

@<SCITEGIC>MOL_PROPERTY
Idih
SciTegic.value.DoubleValue
0.000

@<SCITEGIC>MOL_PROPERTY
Tether
SciTegic.value.DoubleValue
0.000

@<TRIPOS>MOLECULE
guest-s19_confgen4.mol2 : confsearch ligand conformer 813
          17          16           1
SMALL
USER_CHARGES
 
@<TRIPOS>ATOM
       1    C1      19.938785   15.746095   21.828353 C.2        1 MOL1         0.6173
       2    O1      19.168629   15.003328   21.251414 O.co2      1 MOL1        -0.6755
       3    O2      20.715013   15.359495   22.681819 O.co2      1 MOL1        -0.6755
       4    C2      19.913425   17.186604   21.456262 C.2        1 MOL1        -0.1504
       5    H1      19.196851   17.465552   20.687095 H          1 MOL1         0.0814
       6    C3      20.711908   18.123797   22.015888 C.2        1 MOL1        -0.1394
       7    H2      21.431717   17.855683   22.789039 H          1 MOL1         0.0817
       8    C4      20.678275   19.587252   21.633260 C.3        1 MOL1        -0.1849
       9    H3      20.526611   19.688834   20.549983 H          1 MOL1         0.0736
      10    H4      21.649605   20.048427   21.857365 H          1 MOL1         0.0736
      11    C5      19.563249   20.339839   22.387808 C.3        1 MOL1        -0.1866
      12    H5      18.590172   19.882244   22.161336 H          1 MOL1         0.0738
      13    H6      19.718258   20.238499   23.470984 H          1 MOL1         0.0738
      14    C6      19.528398   21.834444   22.010361 C.3        1 MOL1        -0.2879
      15    H7      20.479806   22.324150   22.256213 H          1 MOL1         0.0750
      16    H8      19.343527   21.964063   20.935904 H          1 MOL1         0.0750
      17    H9      18.729523   22.352732   22.556534 H          1 MOL1         0.0750
@<TRIPOS>BOND
    1     1     2    1
    2     1     3    2
    3     1     4    1
    4     4     5    1
    5     4     6    2
    6     6     7    1
    7     6     8    1
    8     8     9    1
    9     8    10    1
   10     8    11    1
   11    11    12    1
   12    11    13    1
   13    11    14    1
   14    14    15    1
   15    14    16    1
   16    14    17    1
@<TRIPOS>SUBSTRUCTURE
       1 MOL1            1 RESIDUE      1      MOL     
@<SCITEGIC>MOL_PROPERTY
VConf Rank
SciTegic.value.IntegerValue
813

@<SCITEGIC>MOL_PROPERTY
Conf_Id
SciTegic.value.IntegerValue
36

@<SCITEGIC>MOL_PROPERTY
Delta U+W
SciTegic.value.DoubleValue
0.000

@<SCITEGIC>MOL_PROPERTY
U+W
SciTegic.value.DoubleValue
-53.409

@<SCITEGIC>MOL_PROPERTY
Grad RMS
SciTegic.value.DoubleValue
0.000000

@<SCITEGIC>MOL_PROPERTY
U
SciTegic.value.DoubleValue
9.048

@<SCITEGIC>MOL_PROPERTY
W
SciTegic.value.DoubleValue
-62.457

@<SCITEGIC>MOL_PROPERTY
W(PB)
SciTegic.value.DoubleValue
-64.540

@<SCITEGIC>MOL_PROPERTY
W(SA)
SciTegic.value.DoubleValue
2.084

@<SCITEGIC>MOL_PROPERTY
Valence
SciTegic.value.DoubleValue
2.652

@<SCITEGIC>MOL_PROPERTY
Coulomb
SciTegic.value.DoubleValue
5.578

@<SCITEGIC>MOL_PROPERTY
VdW
SciTegic.value.DoubleValue
0.818

@<SCITEGIC>MOL_PROPERTY
VdW6
SciTegic.value.DoubleValue
-4.534

@<SCITEGIC>MOL_PROPERTY
VdW12
SciTegic.value.DoubleValue
5.352

@<SCITEGIC>MOL_PROPERTY
Bond
SciTegic.value.DoubleValue
0.063

@<SCITEGIC>MOL_PROPERTY
Angle
SciTegic.value.DoubleValue
2.579

@<SCITEGIC>MOL_PROPERTY
Pdih
SciTegic.value.DoubleValue
0.010

@<SCITEGIC>MOL_PROPERTY
Idih
SciTegic.value.DoubleValue
0.000

@<SCITEGIC>MOL_PROPERTY
Tether
SciTegic.value.DoubleValue
0.000

@<TRIPOS>MOLECULE
guest-s19_confgen4.mol2 : confsearch ligand conformer 814
          17          16           1
SMALL
USER_CHARGES
 
@<TRIPOS>ATOM
       1    C1      17.440105   21.238956   22.298606 C.2        1 MOL1         0.6173
       2    O1      17.697601   21.928252   23.267605 O.co2      1 MOL1        -0.6755
       3    O2      16.349714   21.236640   21.761253 O.co2      1 MOL1        -0.6755
       4    C2      18.490025   20.352728   21.727266 C.2        1 MOL1        -0.1504
       5    H1      18.194577   19.763632   20.862058 H          1 MOL1         0.0814
       6    C3      19.744485   20.253831   22.222884 C.2        1 MOL1        -0.1394
       7    H2      20.050449   20.837845   23.090690 H          1 MOL1         0.0817
       8    C4      20.805830   19.348588   21.636949 C.3        1 MOL1        -0.1849
       9    H3      21.801430   19.740000   21.885877 H          1 MOL1         0.0736
      10    H4      20.735435   19.347947   20.540660 H          1 MOL1         0.0736
      11    C5      20.670459   17.906859   22.168088 C.3        1 MOL1        -0.1866
      12    H5      20.743354   17.909849   23.264557 H          1 MOL1         0.0738
      13    H6      19.676266   17.512241   21.916261 H          1 MOL1         0.0738
      14    C6      21.754555   16.979785   21.582601 C.3        1 MOL1        -0.2879
      15    H7      22.759474   17.334411   21.846815 H          1 MOL1         0.0750
      16    H8      21.642184   15.959429   21.971670 H          1 MOL1         0.0750
      17    H9      21.683548   16.934739   20.487903 H          1 MOL1         0.0750
@<TRIPOS>BOND
    1     1     2    1
    2     1     3    2
    3     1     4    1
    4     4     5    1
    5     4     6    2
    6     6     7    1
    7     6     8    1
    8     8     9    1
    9     8    10    1
   10     8    11    1
   11    11    12    1
   12    11    13    1
   13    11    14    1
   14    14    15    1
   15    14    16    1
   16    14    17    1
@<TRIPOS>SUBSTRUCTURE
       1 MOL1            1 RESIDUE      1      MOL     
@<SCITEGIC>MOL_PROPERTY
VConf Rank
SciTegic.value.IntegerValue
814

@<SCITEGIC>MOL_PROPERTY
Conf_Id
SciTegic.value.IntegerValue
1

@<SCITEGIC>MOL_PROPERTY
Delta U+W
SciTegic.value.DoubleValue
0.030

@<SCITEGIC>MOL_PROPERTY
U+W
SciTegic.value.DoubleValue
-53.378

@<SCITEGIC>MOL_PROPERTY
Grad RMS
SciTegic.value.DoubleValue
0.000000

@<SCITEGIC>MOL_PROPERTY
U
SciTegic.value.DoubleValue
9.048

@<SCITEGIC>MOL_PROPERTY
W
SciTegic.value.DoubleValue
-62.426

@<SCITEGIC>MOL_PROPERTY
W(PB)
SciTegic.value.DoubleValue
-64.506

@<SCITEGIC>MOL_PROPERTY
W(SA)
SciTegic.value.DoubleValue
2.080

@<SCITEGIC>MOL_PROPERTY
Valence
SciTegic.value.DoubleValue
2.652

@<SCITEGIC>MOL_PROPERTY
Coulomb
SciTegic.value.DoubleValue
5.578

@<SCITEGIC>MOL_PROPERTY
VdW
SciTegic.value.DoubleValue
0.818

@<SCITEGIC>MOL_PROPERTY
VdW6
SciTegic.value.DoubleValue
-4.535

@<SCITEGIC>MOL_PROPERTY
VdW12
SciTegic.value.DoubleValue
5.352

@<SCITEGIC>MOL_PROPERTY
Bond
SciTegic.value.DoubleValue
0.063

@<SCITEGIC>MOL_PROPERTY
Angle
SciTegic.value.DoubleValue
2.579

@<SCITEGIC>MOL_PROPERTY
Pdih
SciTegic.value.DoubleValue
0.010

@<SCITEGIC>MOL_PROPERTY
Idih
SciTegic.value.DoubleValue
0.000

@<SCITEGIC>MOL_PROPERTY
Tether
SciTegic.value.DoubleValue
0.000

@<TRIPOS>MOLECULE
guest-s19_confgen4.mol2 : confsearch ligand conformer 815
          17          16           1
SMALL
USER_CHARGES
 
@<TRIPOS>ATOM
       1    C1      20.193263   18.143134   19.121793 C.2        1 MOL1         0.6173
       2    O1      20.042666   19.201522   18.540780 O.co2      1 MOL1        -0.6755
       3    O2      20.623629   17.145990   18.575623 O.co2      1 MOL1        -0.6755
       4    C2      19.839086   18.038659   20.563228 C.2        1 MOL1        -0.1504
       5    H1      19.996886   17.065076   21.021481 H          1 MOL1         0.0814
       6    C3      19.351979   19.065707   21.295953 C.2        1 MOL1        -0.1394
       7    H2      19.193196   20.046261   20.847735 H          1 MOL1         0.0817
       8    C4      18.997356   18.952895   22.763785 C.3        1 MOL1        -0.1849
       9    H3      18.500506   17.991089   22.949783 H          1 MOL1         0.0736
      10    H4      18.269615   19.730408   23.032409 H          1 MOL1         0.0736
      11    C5      20.236758   19.067619   23.678271 C.3        1 MOL1        -0.1866
      12    H5      19.935832   18.873857   24.717045 H          1 MOL1         0.0738
      13    H6      20.966311   18.290036   23.412669 H          1 MOL1         0.0738
      14    C6      20.904906   20.456771   23.597370 C.3        1 MOL1        -0.2879
      15    H7      20.196796   21.249664   23.871317 H          1 MOL1         0.0750
      16    H8      21.760007   20.514198   24.283236 H          1 MOL1         0.0750
      17    H9      21.272765   20.660913   22.583355 H          1 MOL1         0.0750
@<TRIPOS>BOND
    1     1     2    1
    2     1     3    2
    3     1     4    1
    4     4     5    1
    5     4     6    2
    6     6     7    1
    7     6     8    1
    8     8     9    1
    9     8    10    1
   10     8    11    1
   11    11    12    1
   12    11    13    1
   13    11    14    1
   14    14    15    1
   15    14    16    1
   16    14    17    1
@<TRIPOS>SUBSTRUCTURE
       1 MOL1            1 RESIDUE      1      MOL     
@<SCITEGIC>MOL_PROPERTY
VConf Rank
SciTegic.value.IntegerValue
815

@<SCITEGIC>MOL_PROPERTY
Conf_Id
SciTegic.value.IntegerValue
3

@<SCITEGIC>MOL_PROPERTY
Delta U+W
SciTegic.value.DoubleValue
0.531

@<SCITEGIC>MOL_PROPERTY
U+W
SciTegic.value.DoubleValue
-52.878

@<SCITEGIC>MOL_PROPERTY
Grad RMS
SciTegic.value.DoubleValue
0.000000

@<SCITEGIC>MOL_PROPERTY
U
SciTegic.value.DoubleValue
10.067

@<SCITEGIC>MOL_PROPERTY
W
SciTegic.value.DoubleValue
-62.945

@<SCITEGIC>MOL_PROPERTY
W(PB)
SciTegic.value.DoubleValue
-64.982

@<SCITEGIC>MOL_PROPERTY
W(SA)
SciTegic.value.DoubleValue
2.037

@<SCITEGIC>MOL_PROPERTY
Valence
SciTegic.value.DoubleValue
2.779

@<SCITEGIC>MOL_PROPERTY
Coulomb
SciTegic.value.DoubleValue
6.474

@<SCITEGIC>MOL_PROPERTY
VdW
SciTegic.value.DoubleValue
0.815

@<SCITEGIC>MOL_PROPERTY
VdW6
SciTegic.value.DoubleValue
-5.088

@<SCITEGIC>MOL_PROPERTY
VdW12
SciTegic.value.DoubleValue
5.902

@<SCITEGIC>MOL_PROPERTY
Bond
SciTegic.value.DoubleValue
0.078

@<SCITEGIC>MOL_PROPERTY
Angle
SciTegic.value.DoubleValue
2.651

@<SCITEGIC>MOL_PROPERTY
Pdih
SciTegic.value.DoubleValue
0.050

@<SCITEGIC>MOL_PROPERTY
Idih
SciTegic.value.DoubleValue
0.000

@<SCITEGIC>MOL_PROPERTY
Tether
SciTegic.value.DoubleValue
0.000

@<TRIPOS>MOLECULE
guest-s19_confgen4.mol2 : confsearch ligand conformer 816
          17          16           1
SMALL
USER_CHARGES
 
@<TRIPOS>ATOM
       1    C1      17.899589   16.941995   21.692176 C.2        1 MOL1         0.6173
       2    O1      16.787909   16.842540   22.173898 O.co2      1 MOL1        -0.6755
       3    O2      18.510128   15.992260   21.238641 O.co2      1 MOL1        -0.6755
       4    C2      18.518175   18.295013   21.664521 C.2        1 MOL1        -0.1504
       5    H1      17.918779   19.098797   22.085665 H          1 MOL1         0.0814
       6    C3      19.747363   18.551495   21.161630 C.2        1 MOL1        -0.1394
       7    H2      20.356066   17.751389   20.741119 H          1 MOL1         0.0817
       8    C4      20.375543   19.929587   21.137395 C.3        1 MOL1        -0.1849
       9    H3      19.611555   20.705152   21.284235 H          1 MOL1         0.0736
      10    H4      20.806197   20.109695   20.143359 H          1 MOL1         0.0736
      11    C5      21.485300   20.086661   22.199908 C.3        1 MOL1        -0.1866
      12    H5      22.248643   19.309566   22.055374 H          1 MOL1         0.0738
      13    H6      21.988593   21.052152   22.052529 H          1 MOL1         0.0738
      14    C6      20.940269   20.018729   23.642530 C.3        1 MOL1        -0.2879
      15    H7      20.485459   19.041102   23.848558 H          1 MOL1         0.0750
      16    H8      21.749037   20.173018   24.368446 H          1 MOL1         0.0750
      17    H9      20.180272   20.792570   23.811847 H          1 MOL1         0.0750
@<TRIPOS>BOND
    1     1     2    1
    2     1     3    2
    3     1     4    1
    4     4     5    1
    5     4     6    2
    6     6     7    1
    7     6     8    1
    8     8     9    1
    9     8    10    1
   10     8    11    1
   11    11    12    1
   12    11    13    1
   13    11    14    1
   14    14    15    1
   15    14    16    1
   16    14    17    1
@<TRIPOS>SUBSTRUCTURE
       1 MOL1            1 RESIDUE      1      MOL     
@<SCITEGIC>MOL_PROPERTY
VConf Rank
SciTegic.value.IntegerValue
816

@<SCITEGIC>MOL_PROPERTY
Conf_Id
SciTegic.value.IntegerValue
45

@<SCITEGIC>MOL_PROPERTY
Delta U+W
SciTegic.value.DoubleValue
0.562

@<SCITEGIC>MOL_PROPERTY
U+W
SciTegic.value.DoubleValue
-52.846

@<SCITEGIC>MOL_PROPERTY
Grad RMS
SciTegic.value.DoubleValue
0.000000

@<SCITEGIC>MOL_PROPERTY
U
SciTegic.value.DoubleValue
10.243

@<SCITEGIC>MOL_PROPERTY
W
SciTegic.value.DoubleValue
-63.089

@<SCITEGIC>MOL_PROPERTY
W(PB)
SciTegic.value.DoubleValue
-65.116

@<SCITEGIC>MOL_PROPERTY
W(SA)
SciTegic.value.DoubleValue
2.026

@<SCITEGIC>MOL_PROPERTY
Valence
SciTegic.value.DoubleValue
2.822

@<SCITEGIC>MOL_PROPERTY
Coulomb
SciTegic.value.DoubleValue
6.637

@<SCITEGIC>MOL_PROPERTY
VdW
SciTegic.value.DoubleValue
0.785

@<SCITEGIC>MOL_PROPERTY
VdW6
SciTegic.value.DoubleValue
-5.216

@<SCITEGIC>MOL_PROPERTY
VdW12
SciTegic.value.DoubleValue
6.001

@<SCITEGIC>MOL_PROPERTY
Bond
SciTegic.value.DoubleValue
0.080

@<SCITEGIC>MOL_PROPERTY
Angle
SciTegic.value.DoubleValue
2.678

@<SCITEGIC>MOL_PROPERTY
Pdih
SciTegic.value.DoubleValue
0.064

@<SCITEGIC>MOL_PROPERTY
Idih
SciTegic.value.DoubleValue
0.000

@<SCITEGIC>MOL_PROPERTY
Tether
SciTegic.value.DoubleValue
0.000

@<TRIPOS>MOLECULE
guest-s19_confgen4.mol2 : confsearch ligand conformer 817
          17          16           1
SMALL
USER_CHARGES
 
@<TRIPOS>ATOM
       1    C1      17.555689   18.357212   24.117674 C.2        1 MOL1         0.6173
       2    O1      16.774478   19.095171   24.685855 O.co2      1 MOL1        -0.6755
       3    O2      17.724171   17.196940   24.442908 O.co2      1 MOL1        -0.6755
       4    C2      18.327175   18.920005   22.976519 C.2        1 MOL1        -0.1504
       5    H1      18.129174   19.962495   22.737946 H          1 MOL1         0.0814
       6    C3      19.229245   18.215487   22.256095 C.2        1 MOL1        -0.1394
       7    H2      19.437059   17.171082   22.488052 H          1 MOL1         0.0817
       8    C4      20.011293   18.796072   21.098270 C.3        1 MOL1        -0.1849
       9    H3      19.371564   19.471570   20.514098 H          1 MOL1         0.0736
      10    H4      20.316018   17.988813   20.418665 H          1 MOL1         0.0736
      11    C5      21.260195   19.556659   21.588948 C.3        1 MOL1        -0.1866
      12    H5      20.956707   20.367425   22.265789 H          1 MOL1         0.0738
      13    H6      21.899426   18.878463   22.171188 H          1 MOL1         0.0738
      14    C6      22.068070   20.143592   20.414055 C.3        1 MOL1        -0.2879
      15    H7      22.411437   19.349725   19.737812 H          1 MOL1         0.0750
      16    H8      21.460206   20.849743   19.833289 H          1 MOL1         0.0750
      17    H9      22.951843   20.680584   20.782455 H          1 MOL1         0.0750
@<TRIPOS>BOND
    1     1     2    1
    2     1     3    2
    3     1     4    1
    4     4     5    1
    5     4     6    2
    6     6     7    1
    7     6     8    1
    8     8     9    1
    9     8    10    1
   10     8    11    1
   11    11    12    1
   12    11    13    1
   13    11    14    1
   14    14    15    1
   15    14    16    1
   16    14    17    1
@<TRIPOS>SUBSTRUCTURE
       1 MOL1            1 RESIDUE      1      MOL     
@<SCITEGIC>MOL_PROPERTY
VConf Rank
SciTegic.value.IntegerValue
817

@<SCITEGIC>MOL_PROPERTY
Conf_Id
SciTegic.value.IntegerValue
36

@<SCITEGIC>MOL_PROPERTY
Delta U+W
SciTegic.value.DoubleValue
0.000

@<SCITEGIC>MOL_PROPERTY
U+W
SciTegic.value.DoubleValue
-53.409

@<SCITEGIC>MOL_PROPERTY
Grad RMS
SciTegic.value.DoubleValue
0.000000

@<SCITEGIC>MOL_PROPERTY
U
SciTegic.value.DoubleValue
9.048

@<SCITEGIC>MOL_PROPERTY
W
SciTegic.value.DoubleValue
-62.457

@<SCITEGIC>MOL_PROPERTY
W(PB)
SciTegic.value.DoubleValue
-64.540

@<SCITEGIC>MOL_PROPERTY
W(SA)
SciTegic.value.DoubleValue
2.084

@<SCITEGIC>MOL_PROPERTY
Valence
SciTegic.value.DoubleValue
2.652

@<SCITEGIC>MOL_PROPERTY
Coulomb
SciTegic.value.DoubleValue
5.578

@<SCITEGIC>MOL_PROPERTY
VdW
SciTegic.value.DoubleValue
0.818

@<SCITEGIC>MOL_PROPERTY
VdW6
SciTegic.value.DoubleValue
-4.534

@<SCITEGIC>MOL_PROPERTY
VdW12
SciTegic.value.DoubleValue
5.352

@<SCITEGIC>MOL_PROPERTY
Bond
SciTegic.value.DoubleValue
0.063

@<SCITEGIC>MOL_PROPERTY
Angle
SciTegic.value.DoubleValue
2.579

@<SCITEGIC>MOL_PROPERTY
Pdih
SciTegic.value.DoubleValue
0.010

@<SCITEGIC>MOL_PROPERTY
Idih
SciTegic.value.DoubleValue
0.000

@<SCITEGIC>MOL_PROPERTY
Tether
SciTegic.value.DoubleValue
0.000

@<TRIPOS>MOLECULE
guest-s19_confgen4.mol2 : confsearch ligand conformer 818
          17          16           1
SMALL
USER_CHARGES
 
@<TRIPOS>ATOM
       1    C1      22.563348   21.129465   21.057628 C.2        1 MOL1         0.6173
       2    O1      23.541280   20.422921   20.900028 O.co2      1 MOL1        -0.6755
       3    O2      22.625127   22.342876   21.096660 O.co2      1 MOL1        -0.6755
       4    C2      21.221787   20.504091   21.210226 C.2        1 MOL1        -0.1504
       5    H1      20.390433   21.191775   21.347524 H          1 MOL1         0.0814
       6    C3      21.005488   19.169248   21.187988 C.2        1 MOL1        -0.1394
       7    H2      21.831498   18.471165   21.053228 H          1 MOL1         0.0817
       8    C4      19.638021   18.541259   21.345793 C.3        1 MOL1        -0.1849
       9    H3      19.630804   17.551282   20.870103 H          1 MOL1         0.0736
      10    H4      18.884672   19.145215   20.821857 H          1 MOL1         0.0736
      11    C5      19.251658   18.402292   22.832545 C.3        1 MOL1        -0.1866
      12    H5      20.005448   17.796065   23.353943 H          1 MOL1         0.0738
      13    H6      19.254407   19.392496   23.309040 H          1 MOL1         0.0738
      14    C6      17.862774   17.754411   23.002183 C.3        1 MOL1        -0.2879
      15    H7      17.841707   16.748933   22.561730 H          1 MOL1         0.0750
      16    H8      17.605502   17.663933   24.065553 H          1 MOL1         0.0750
      17    H9      17.085538   18.358308   22.515718 H          1 MOL1         0.0750
@<TRIPOS>BOND
    1     1     2    1
    2     1     3    2
    3     1     4    1
    4     4     5    1
    5     4     6    2
    6     6     7    1
    7     6     8    1
    8     8     9    1
    9     8    10    1
   10     8    11    1
   11    11    12    1
   12    11    13    1
   13    11    14    1
   14    14    15    1
   15    14    16    1
   16    14    17    1
@<TRIPOS>SUBSTRUCTURE
       1 MOL1            1 RESIDUE      1      MOL     
@<SCITEGIC>MOL_PROPERTY
VConf Rank
SciTegic.value.IntegerValue
818

@<SCITEGIC>MOL_PROPERTY
Conf_Id
SciTegic.value.IntegerValue
1

@<SCITEGIC>MOL_PROPERTY
Delta U+W
SciTegic.value.DoubleValue
0.030

@<SCITEGIC>MOL_PROPERTY
U+W
SciTegic.value.DoubleValue
-53.378

@<SCITEGIC>MOL_PROPERTY
Grad RMS
SciTegic.value.DoubleValue
0.000000

@<SCITEGIC>MOL_PROPERTY
U
SciTegic.value.DoubleValue
9.048

@<SCITEGIC>MOL_PROPERTY
W
SciTegic.value.DoubleValue
-62.426

@<SCITEGIC>MOL_PROPERTY
W(PB)
SciTegic.value.DoubleValue
-64.506

@<SCITEGIC>MOL_PROPERTY
W(SA)
SciTegic.value.DoubleValue
2.080

@<SCITEGIC>MOL_PROPERTY
Valence
SciTegic.value.DoubleValue
2.652

@<SCITEGIC>MOL_PROPERTY
Coulomb
SciTegic.value.DoubleValue
5.578

@<SCITEGIC>MOL_PROPERTY
VdW
SciTegic.value.DoubleValue
0.818

@<SCITEGIC>MOL_PROPERTY
VdW6
SciTegic.value.DoubleValue
-4.535

@<SCITEGIC>MOL_PROPERTY
VdW12
SciTegic.value.DoubleValue
5.352

@<SCITEGIC>MOL_PROPERTY
Bond
SciTegic.value.DoubleValue
0.063

@<SCITEGIC>MOL_PROPERTY
Angle
SciTegic.value.DoubleValue
2.579

@<SCITEGIC>MOL_PROPERTY
Pdih
SciTegic.value.DoubleValue
0.010

@<SCITEGIC>MOL_PROPERTY
Idih
SciTegic.value.DoubleValue
0.000

@<SCITEGIC>MOL_PROPERTY
Tether
SciTegic.value.DoubleValue
0.000

@<TRIPOS>MOLECULE
guest-s19_confgen4.mol2 : confsearch ligand conformer 819
          17          16           1
SMALL
USER_CHARGES
 
@<TRIPOS>ATOM
       1    C1      22.396433   20.796916   23.007181 C.2        1 MOL1         0.6173
       2    O1      23.198705   19.923130   23.277920 O.co2      1 MOL1        -0.6755
       3    O2      22.710858   21.963895   22.876391 O.co2      1 MOL1        -0.6755
       4    C2      20.961376   20.447389   22.826803 C.2        1 MOL1        -0.1504
       5    H1      20.297703   21.274967   22.587193 H          1 MOL1         0.0814
       6    C3      20.471308   19.192106   22.941189 C.2        1 MOL1        -0.1394
       7    H2      21.127873   18.355069   23.177596 H          1 MOL1         0.0817
       8    C4      19.009898   18.843339   22.752361 C.3        1 MOL1        -0.1849
       9    H3      18.383643   19.615889   23.218727 H          1 MOL1         0.0736
      10    H4      18.779708   17.905550   23.275677 H          1 MOL1         0.0736
      11    C5      18.625080   18.711084   21.262400 C.3        1 MOL1        -0.1866
      12    H5      17.539219   18.563245   21.183649 H          1 MOL1         0.0738
      13    H6      18.853127   19.648453   20.736318 H          1 MOL1         0.0738
      14    C6      19.345870   17.536272   20.567423 C.3        1 MOL1        -0.2879
      15    H7      19.122018   16.585995   21.069430 H          1 MOL1         0.0750
      16    H8      19.024456   17.450912   19.521329 H          1 MOL1         0.0750
      17    H9      20.434279   17.679588   20.574245 H          1 MOL1         0.0750
@<TRIPOS>BOND
    1     1     2    1
    2     1     3    2
    3     1     4    1
    4     4     5    1
    5     4     6    2
    6     6     7    1
    7     6     8    1
    8     8     9    1
    9     8    10    1
   10     8    11    1
   11    11    12    1
   12    11    13    1
   13    11    14    1
   14    14    15    1
   15    14    16    1
   16    14    17    1
@<TRIPOS>SUBSTRUCTURE
       1 MOL1            1 RESIDUE      1      MOL     
@<SCITEGIC>MOL_PROPERTY
VConf Rank
SciTegic.value.IntegerValue
819

@<SCITEGIC>MOL_PROPERTY
Conf_Id
SciTegic.value.IntegerValue
3

@<SCITEGIC>MOL_PROPERTY
Delta U+W
SciTegic.value.DoubleValue
0.531

@<SCITEGIC>MOL_PROPERTY
U+W
SciTegic.value.DoubleValue
-52.878

@<SCITEGIC>MOL_PROPERTY
Grad RMS
SciTegic.value.DoubleValue
0.000000

@<SCITEGIC>MOL_PROPERTY
U
SciTegic.value.DoubleValue
10.067

@<SCITEGIC>MOL_PROPERTY
W
SciTegic.value.DoubleValue
-62.945

@<SCITEGIC>MOL_PROPERTY
W(PB)
SciTegic.value.DoubleValue
-64.982

@<SCITEGIC>MOL_PROPERTY
W(SA)
SciTegic.value.DoubleValue
2.037

@<SCITEGIC>MOL_PROPERTY
Valence
SciTegic.value.DoubleValue
2.779

@<SCITEGIC>MOL_PROPERTY
Coulomb
SciTegic.value.DoubleValue
6.474

@<SCITEGIC>MOL_PROPERTY
VdW
SciTegic.value.DoubleValue
0.815

@<SCITEGIC>MOL_PROPERTY
VdW6
SciTegic.value.DoubleValue
-5.088

@<SCITEGIC>MOL_PROPERTY
VdW12
SciTegic.value.DoubleValue
5.902

@<SCITEGIC>MOL_PROPERTY
Bond
SciTegic.value.DoubleValue
0.078

@<SCITEGIC>MOL_PROPERTY
Angle
SciTegic.value.DoubleValue
2.651

@<SCITEGIC>MOL_PROPERTY
Pdih
SciTegic.value.DoubleValue
0.050

@<SCITEGIC>MOL_PROPERTY
Idih
SciTegic.value.DoubleValue
0.000

@<SCITEGIC>MOL_PROPERTY
Tether
SciTegic.value.DoubleValue
0.000

@<TRIPOS>MOLECULE
guest-s19_confgen4.mol2 : confsearch ligand conformer 820
          17          16           1
SMALL
USER_CHARGES
 
@<TRIPOS>ATOM
       1    C1      21.962334   20.964463   23.379896 C.2        1 MOL1         0.6173
       2    O1      23.136625   21.147206   23.124112 O.co2      1 MOL1        -0.6755
       3    O2      21.467705   21.252856   24.453497 O.co2      1 MOL1        -0.6755
       4    C2      21.112641   20.363618   22.316374 C.2        1 MOL1        -0.1504
       5    H1      21.617537   20.130201   21.381867 H          1 MOL1         0.0814
       6    C3      19.793504   20.103030   22.463193 C.2        1 MOL1        -0.1394
       7    H2      19.280630   20.330378   23.397426 H          1 MOL1         0.0817
       8    C4      18.931720   19.488720   21.379547 C.3        1 MOL1        -0.1849
       9    H3      19.423191   19.573086   20.400732 H          1 MOL1         0.0736
      10    H4      17.995414   20.057197   21.300968 H          1 MOL1         0.0736
      11    C5      18.596417   18.008615   21.665952 C.3        1 MOL1        -0.1866
      12    H5      18.107118   17.923007   22.646114 H          1 MOL1         0.0738
      13    H6      17.870493   17.654872   20.920904 H          1 MOL1         0.0738
      14    C6      19.842685   17.098675   21.625281 C.3        1 MOL1        -0.2879
      15    H7      20.565524   17.381955   22.401367 H          1 MOL1         0.0750
      16    H8      19.561514   16.051121   21.793922 H          1 MOL1         0.0750
      17    H9      20.343825   17.162721   20.650678 H          1 MOL1         0.0750
@<TRIPOS>BOND
    1     1     2    1
    2     1     3    2
    3     1     4    1
    4     4     5    1
    5     4     6    2
    6     6     7    1
    7     6     8    1
    8     8     9    1
    9     8    10    1
   10     8    11    1
   11    11    12    1
   12    11    13    1
   13    11    14    1
   14    14    15    1
   15    14    16    1
   16    14    17    1
@<TRIPOS>SUBSTRUCTURE
       1 MOL1            1 RESIDUE      1      MOL     
@<SCITEGIC>MOL_PROPERTY
VConf Rank
SciTegic.value.IntegerValue
820

@<SCITEGIC>MOL_PROPERTY
Conf_Id
SciTegic.value.IntegerValue
45

@<SCITEGIC>MOL_PROPERTY
Delta U+W
SciTegic.value.DoubleValue
0.562

@<SCITEGIC>MOL_PROPERTY
U+W
SciTegic.value.DoubleValue
-52.846

@<SCITEGIC>MOL_PROPERTY
Grad RMS
SciTegic.value.DoubleValue
0.000000

@<SCITEGIC>MOL_PROPERTY
U
SciTegic.value.DoubleValue
10.243

@<SCITEGIC>MOL_PROPERTY
W
SciTegic.value.DoubleValue
-63.089

@<SCITEGIC>MOL_PROPERTY
W(PB)
SciTegic.value.DoubleValue
-65.116

@<SCITEGIC>MOL_PROPERTY
W(SA)
SciTegic.value.DoubleValue
2.026

@<SCITEGIC>MOL_PROPERTY
Valence
SciTegic.value.DoubleValue
2.822

@<SCITEGIC>MOL_PROPERTY
Coulomb
SciTegic.value.DoubleValue
6.637

@<SCITEGIC>MOL_PROPERTY
VdW
SciTegic.value.DoubleValue
0.785

@<SCITEGIC>MOL_PROPERTY
VdW6
SciTegic.value.DoubleValue
-5.216

@<SCITEGIC>MOL_PROPERTY
VdW12
SciTegic.value.DoubleValue
6.001

@<SCITEGIC>MOL_PROPERTY
Bond
SciTegic.value.DoubleValue
0.080

@<SCITEGIC>MOL_PROPERTY
Angle
SciTegic.value.DoubleValue
2.678

@<SCITEGIC>MOL_PROPERTY
Pdih
SciTegic.value.DoubleValue
0.064

@<SCITEGIC>MOL_PROPERTY
Idih
SciTegic.value.DoubleValue
0.000

@<SCITEGIC>MOL_PROPERTY
Tether
SciTegic.value.DoubleValue
0.000

@<TRIPOS>MOLECULE
guest-s19_confgen4.mol2 : confsearch ligand conformer 821
          17          16           1
SMALL
USER_CHARGES
 
@<TRIPOS>ATOM
       1    C1      23.240832   18.207891   21.860113 C.2        1 MOL1         0.6173
       2    O1      24.166330   18.695297   21.240764 O.co2      1 MOL1        -0.6755
       3    O2      23.313149   17.127114   22.414265 O.co2      1 MOL1        -0.6755
       4    C2      21.974860   18.986673   21.930649 C.2        1 MOL1        -0.1504
       5    H1      21.977100   19.943883   21.414265 H          1 MOL1         0.0814
       6    C3      20.866934   18.566726   22.582744 C.2        1 MOL1        -0.1394
       7    H2      20.852988   17.608310   23.101414 H          1 MOL1         0.0817
       8    C4      19.582632   19.363953   22.647822 C.3        1 MOL1        -0.1849
       9    H3      19.809519   20.433676   22.752825 H          1 MOL1         0.0736
      10    H4      19.015619   19.075464   23.543176 H          1 MOL1         0.0736
      11    C5      18.715842   19.136468   21.392458 C.3        1 MOL1        -0.1866
      12    H5      19.280233   19.428609   20.495978 H          1 MOL1         0.0738
      13    H6      18.488541   18.066163   21.290734 H          1 MOL1         0.0738
      14    C6      17.400370   19.938407   21.455335 C.3        1 MOL1        -0.2879
      15    H7      16.801069   19.642660   22.326427 H          1 MOL1         0.0750
      16    H8      17.600033   21.015698   21.526158 H          1 MOL1         0.0750
      17    H9      16.797700   19.764045   20.554492 H          1 MOL1         0.0750
@<TRIPOS>BOND
    1     1     2    1
    2     1     3    2
    3     1     4    1
    4     4     5    1
    5     4     6    2
    6     6     7    1
    7     6     8    1
    8     8     9    1
    9     8    10    1
   10     8    11    1
   11    11    12    1
   12    11    13    1
   13    11    14    1
   14    14    15    1
   15    14    16    1
   16    14    17    1
@<TRIPOS>SUBSTRUCTURE
       1 MOL1            1 RESIDUE      1      MOL     
@<SCITEGIC>MOL_PROPERTY
VConf Rank
SciTegic.value.IntegerValue
821

@<SCITEGIC>MOL_PROPERTY
Conf_Id
SciTegic.value.IntegerValue
36

@<SCITEGIC>MOL_PROPERTY
Delta U+W
SciTegic.value.DoubleValue
0.000

@<SCITEGIC>MOL_PROPERTY
U+W
SciTegic.value.DoubleValue
-53.409

@<SCITEGIC>MOL_PROPERTY
Grad RMS
SciTegic.value.DoubleValue
0.000000

@<SCITEGIC>MOL_PROPERTY
U
SciTegic.value.DoubleValue
9.048

@<SCITEGIC>MOL_PROPERTY
W
SciTegic.value.DoubleValue
-62.457

@<SCITEGIC>MOL_PROPERTY
W(PB)
SciTegic.value.DoubleValue
-64.540

@<SCITEGIC>MOL_PROPERTY
W(SA)
SciTegic.value.DoubleValue
2.084

@<SCITEGIC>MOL_PROPERTY
Valence
SciTegic.value.DoubleValue
2.652

@<SCITEGIC>MOL_PROPERTY
Coulomb
SciTegic.value.DoubleValue
5.578

@<SCITEGIC>MOL_PROPERTY
VdW
SciTegic.value.DoubleValue
0.818

@<SCITEGIC>MOL_PROPERTY
VdW6
SciTegic.value.DoubleValue
-4.534

@<SCITEGIC>MOL_PROPERTY
VdW12
SciTegic.value.DoubleValue
5.352

@<SCITEGIC>MOL_PROPERTY
Bond
SciTegic.value.DoubleValue
0.063

@<SCITEGIC>MOL_PROPERTY
Angle
SciTegic.value.DoubleValue
2.579

@<SCITEGIC>MOL_PROPERTY
Pdih
SciTegic.value.DoubleValue
0.010

@<SCITEGIC>MOL_PROPERTY
Idih
SciTegic.value.DoubleValue
0.000

@<SCITEGIC>MOL_PROPERTY
Tether
SciTegic.value.DoubleValue
0.000

@<TRIPOS>MOLECULE
guest-s19_confgen4.mol2 : confsearch ligand conformer 822
          17          16           1
SMALL
USER_CHARGES
 
@<TRIPOS>ATOM
       1    C1      22.129421   20.367978   24.211029 C.2        1 MOL1         0.6173
       2    O1      22.564592   19.428091   24.849489 O.co2      1 MOL1        -0.6755
       3    O2      22.300933   21.525499   24.540320 O.co2      1 MOL1        -0.6755
       4    C2      21.351243   20.114803   22.968248 C.2        1 MOL1        -0.1504
       5    H1      20.991325   20.998005   22.445446 H          1 MOL1         0.0814
       6    C3      21.083417   18.880385   22.484960 C.2        1 MOL1        -0.1394
       7    H2      21.437314   17.988623   23.001962 H          1 MOL1         0.0817
       8    C4      20.289591   18.631555   21.221171 C.3        1 MOL1        -0.1849
       9    H3      20.567048   17.656473   20.798537 H          1 MOL1         0.0736
      10    H4      20.544543   19.384668   20.463129 H          1 MOL1         0.0736
      11    C5      18.772098   18.662181   21.495567 C.3        1 MOL1        -0.1866
      12    H5      18.519273   17.906650   22.252415 H          1 MOL1         0.0738
      13    H6      18.492128   19.638664   21.914683 H          1 MOL1         0.0738
      14    C6      17.955903   18.400160   20.213890 C.3        1 MOL1        -0.2879
      15    H7      18.193655   17.415218   19.791048 H          1 MOL1         0.0750
      16    H8      16.879656   18.425784   20.428752 H          1 MOL1         0.0750
      17    H9      18.167352   19.160996   19.451098 H          1 MOL1         0.0750
@<TRIPOS>BOND
    1     1     2    1
    2     1     3    2
    3     1     4    1
    4     4     5    1
    5     4     6    2
    6     6     7    1
    7     6     8    1
    8     8     9    1
    9     8    10    1
   10     8    11    1
   11    11    12    1
   12    11    13    1
   13    11    14    1
   14    14    15    1
   15    14    16    1
   16    14    17    1
@<TRIPOS>SUBSTRUCTURE
       1 MOL1            1 RESIDUE      1      MOL     
@<SCITEGIC>MOL_PROPERTY
VConf Rank
SciTegic.value.IntegerValue
822

@<SCITEGIC>MOL_PROPERTY
Conf_Id
SciTegic.value.IntegerValue
1

@<SCITEGIC>MOL_PROPERTY
Delta U+W
SciTegic.value.DoubleValue
0.030

@<SCITEGIC>MOL_PROPERTY
U+W
SciTegic.value.DoubleValue
-53.378

@<SCITEGIC>MOL_PROPERTY
Grad RMS
SciTegic.value.DoubleValue
0.000000

@<SCITEGIC>MOL_PROPERTY
U
SciTegic.value.DoubleValue
9.048

@<SCITEGIC>MOL_PROPERTY
W
SciTegic.value.DoubleValue
-62.426

@<SCITEGIC>MOL_PROPERTY
W(PB)
SciTegic.value.DoubleValue
-64.506

@<SCITEGIC>MOL_PROPERTY
W(SA)
SciTegic.value.DoubleValue
2.080

@<SCITEGIC>MOL_PROPERTY
Valence
SciTegic.value.DoubleValue
2.652

@<SCITEGIC>MOL_PROPERTY
Coulomb
SciTegic.value.DoubleValue
5.578

@<SCITEGIC>MOL_PROPERTY
VdW
SciTegic.value.DoubleValue
0.818

@<SCITEGIC>MOL_PROPERTY
VdW6
SciTegic.value.DoubleValue
-4.535

@<SCITEGIC>MOL_PROPERTY
VdW12
SciTegic.value.DoubleValue
5.352

@<SCITEGIC>MOL_PROPERTY
Bond
SciTegic.value.DoubleValue
0.063

@<SCITEGIC>MOL_PROPERTY
Angle
SciTegic.value.DoubleValue
2.579

@<SCITEGIC>MOL_PROPERTY
Pdih
SciTegic.value.DoubleValue
0.010

@<SCITEGIC>MOL_PROPERTY
Idih
SciTegic.value.DoubleValue
0.000

@<SCITEGIC>MOL_PROPERTY
Tether
SciTegic.value.DoubleValue
0.000

@<TRIPOS>MOLECULE
guest-s19_confgen4.mol2 : confsearch ligand conformer 823
          17          16           1
SMALL
USER_CHARGES
 
@<TRIPOS>ATOM
       1    C1      20.811494   17.121645   19.813783 C.2        1 MOL1         0.6173
       2    O1      20.788459   17.864685   18.850558 O.co2      1 MOL1        -0.6755
       3    O2      21.347634   16.030805   19.792976 O.co2      1 MOL1        -0.6755
       4    C2      20.158833   17.542597   21.083005 C.2        1 MOL1        -0.1504
       5    H1      20.215058   16.831794   21.904199 H          1 MOL1         0.0814
       6    C3      19.527594   18.727052   21.249102 C.2        1 MOL1        -0.1394
       7    H2      19.468279   19.448004   20.434051 H          1 MOL1         0.0817
       8    C4      18.868880   19.150286   22.545244 C.3        1 MOL1        -0.1849
       9    H3      18.343330   18.293488   22.988213 H          1 MOL1         0.0736
      10    H4      18.101071   19.909114   22.342895 H          1 MOL1         0.0736
      11    C5      19.885522   19.704221   23.567572 C.3        1 MOL1        -0.1866
      12    H5      19.370474   19.894633   24.519214 H          1 MOL1         0.0738
      13    H6      20.654458   18.946623   23.773025 H          1 MOL1         0.0738
      14    C6      20.556328   21.008805   23.087165 C.3        1 MOL1        -0.2879
      15    H7      19.806579   21.785435   22.887499 H          1 MOL1         0.0750
      16    H8      21.246047   21.391777   23.850400 H          1 MOL1         0.0750
      17    H9      21.131517   20.842833   22.166930 H          1 MOL1         0.0750
@<TRIPOS>BOND
    1     1     2    1
    2     1     3    2
    3     1     4    1
    4     4     5    1
    5     4     6    2
    6     6     7    1
    7     6     8    1
    8     8     9    1
    9     8    10    1
   10     8    11    1
   11    11    12    1
   12    11    13    1
   13    11    14    1
   14    14    15    1
   15    14    16    1
   16    14    17    1
@<TRIPOS>SUBSTRUCTURE
       1 MOL1            1 RESIDUE      1      MOL     
@<SCITEGIC>MOL_PROPERTY
VConf Rank
SciTegic.value.IntegerValue
823

@<SCITEGIC>MOL_PROPERTY
Conf_Id
SciTegic.value.IntegerValue
3

@<SCITEGIC>MOL_PROPERTY
Delta U+W
SciTegic.value.DoubleValue
0.531

@<SCITEGIC>MOL_PROPERTY
U+W
SciTegic.value.DoubleValue
-52.878

@<SCITEGIC>MOL_PROPERTY
Grad RMS
SciTegic.value.DoubleValue
0.000000

@<SCITEGIC>MOL_PROPERTY
U
SciTegic.value.DoubleValue
10.067

@<SCITEGIC>MOL_PROPERTY
W
SciTegic.value.DoubleValue
-62.945

@<SCITEGIC>MOL_PROPERTY
W(PB)
SciTegic.value.DoubleValue
-64.982

@<SCITEGIC>MOL_PROPERTY
W(SA)
SciTegic.value.DoubleValue
2.037

@<SCITEGIC>MOL_PROPERTY
Valence
SciTegic.value.DoubleValue
2.779

@<SCITEGIC>MOL_PROPERTY
Coulomb
SciTegic.value.DoubleValue
6.474

@<SCITEGIC>MOL_PROPERTY
VdW
SciTegic.value.DoubleValue
0.815

@<SCITEGIC>MOL_PROPERTY
VdW6
SciTegic.value.DoubleValue
-5.088

@<SCITEGIC>MOL_PROPERTY
VdW12
SciTegic.value.DoubleValue
5.902

@<SCITEGIC>MOL_PROPERTY
Bond
SciTegic.value.DoubleValue
0.078

@<SCITEGIC>MOL_PROPERTY
Angle
SciTegic.value.DoubleValue
2.651

@<SCITEGIC>MOL_PROPERTY
Pdih
SciTegic.value.DoubleValue
0.050

@<SCITEGIC>MOL_PROPERTY
Idih
SciTegic.value.DoubleValue
0.000

@<SCITEGIC>MOL_PROPERTY
Tether
SciTegic.value.DoubleValue
0.000

@<TRIPOS>MOLECULE
guest-s19_confgen4.mol2 : confsearch ligand conformer 824
          17          16           1
SMALL
USER_CHARGES
 
@<TRIPOS>ATOM
       1    C1      17.218220   19.262262   20.859640 C.2        1 MOL1         0.6173
       2    O1      16.691898   20.174789   20.252960 O.co2      1 MOL1        -0.6755
       3    O2      16.583955   18.371726   21.393589 O.co2      1 MOL1        -0.6755
       4    C2      18.704221   19.254376   20.935864 C.2        1 MOL1        -0.1504
       5    H1      19.208666   20.078868   20.437413 H          1 MOL1         0.0814
       6    C3      19.420781   18.304053   21.578525 C.2        1 MOL1        -0.1394
       7    H2      18.923189   17.476542   22.083645 H          1 MOL1         0.0817
       8    C4      20.933463   18.300253   21.656723 C.3        1 MOL1        -0.1849
       9    H3      21.361606   18.962421   20.891893 H          1 MOL1         0.0736
      10    H4      21.301618   17.291290   21.427670 H          1 MOL1         0.0736
      11    C5      21.449337   18.716924   23.051508 C.3        1 MOL1        -0.1866
      12    H5      21.019441   18.056676   23.817486 H          1 MOL1         0.0738
      13    H6      22.538011   18.573368   23.088641 H          1 MOL1         0.0738
      14    C6      21.124189   20.187452   23.390120 C.3        1 MOL1        -0.2879
      15    H7      20.039942   20.355306   23.425979 H          1 MOL1         0.0750
      16    H8      21.539038   20.458930   24.369440 H          1 MOL1         0.0750
      17    H9      21.551303   20.866487   22.640736 H          1 MOL1         0.0750
@<TRIPOS>BOND
    1     1     2    1
    2     1     3    2
    3     1     4    1
    4     4     5    1
    5     4     6    2
    6     6     7    1
    7     6     8    1
    8     8     9    1
    9     8    10    1
   10     8    11    1
   11    11    12    1
   12    11    13    1
   13    11    14    1
   14    14    15    1
   15    14    16    1
   16    14    17    1
@<TRIPOS>SUBSTRUCTURE
       1 MOL1            1 RESIDUE      1      MOL     
@<SCITEGIC>MOL_PROPERTY
VConf Rank
SciTegic.value.IntegerValue
824

@<SCITEGIC>MOL_PROPERTY
Conf_Id
SciTegic.value.IntegerValue
45

@<SCITEGIC>MOL_PROPERTY
Delta U+W
SciTegic.value.DoubleValue
0.562

@<SCITEGIC>MOL_PROPERTY
U+W
SciTegic.value.DoubleValue
-52.846

@<SCITEGIC>MOL_PROPERTY
Grad RMS
SciTegic.value.DoubleValue
0.000000

@<SCITEGIC>MOL_PROPERTY
U
SciTegic.value.DoubleValue
10.243

@<SCITEGIC>MOL_PROPERTY
W
SciTegic.value.DoubleValue
-63.089

@<SCITEGIC>MOL_PROPERTY
W(PB)
SciTegic.value.DoubleValue
-65.116

@<SCITEGIC>MOL_PROPERTY
W(SA)
SciTegic.value.DoubleValue
2.026

@<SCITEGIC>MOL_PROPERTY
Valence
SciTegic.value.DoubleValue
2.822

@<SCITEGIC>MOL_PROPERTY
Coulomb
SciTegic.value.DoubleValue
6.637

@<SCITEGIC>MOL_PROPERTY
VdW
SciTegic.value.DoubleValue
0.785

@<SCITEGIC>MOL_PROPERTY
VdW6
SciTegic.value.DoubleValue
-5.216

@<SCITEGIC>MOL_PROPERTY
VdW12
SciTegic.value.DoubleValue
6.001

@<SCITEGIC>MOL_PROPERTY
Bond
SciTegic.value.DoubleValue
0.080

@<SCITEGIC>MOL_PROPERTY
Angle
SciTegic.value.DoubleValue
2.678

@<SCITEGIC>MOL_PROPERTY
Pdih
SciTegic.value.DoubleValue
0.064

@<SCITEGIC>MOL_PROPERTY
Idih
SciTegic.value.DoubleValue
0.000

@<SCITEGIC>MOL_PROPERTY
Tether
SciTegic.value.DoubleValue
0.000

@<TRIPOS>MOLECULE
guest-s19_confgen4.mol2 : confsearch ligand conformer 825
          17          16           1
SMALL
USER_CHARGES
 
@<TRIPOS>ATOM
       1    C1      18.257808   16.269780   22.419307 C.2        1 MOL1         0.6173
       2    O1      18.560615   15.289846   23.071795 O.co2      1 MOL1        -0.6755
       3    O2      17.328471   16.279246   21.634045 O.co2      1 MOL1        -0.6755
       4    C2      19.073383   17.500043   22.607595 C.2        1 MOL1        -0.1504
       5    H1      19.888444   17.424140   23.323712 H          1 MOL1         0.0814
       6    C3      18.851190   18.659864   21.948406 C.2        1 MOL1        -0.1394
       7    H2      18.038822   18.746200   21.227035 H          1 MOL1         0.0817
       8    C4      19.686772   19.905951   22.144135 C.3        1 MOL1        -0.1849
       9    H3      19.956537   20.014690   23.203480 H          1 MOL1         0.0736
      10    H4      19.093484   20.791826   21.880275 H          1 MOL1         0.0736
      11    C5      20.965634   19.865957   21.282784 C.3        1 MOL1        -0.1866
      12    H5      21.562487   18.982377   21.548514 H          1 MOL1         0.0738
      13    H6      20.693183   19.759223   20.223564 H          1 MOL1         0.0738
      14    C6      21.818343   21.137007   21.469452 C.3        1 MOL1        -0.2879
      15    H7      21.255234   22.034015   21.180114 H          1 MOL1         0.0750
      16    H8      22.130285   21.250593   22.515983 H          1 MOL1         0.0750
      17    H9      22.723058   21.090279   20.849421 H          1 MOL1         0.0750
@<TRIPOS>BOND
    1     1     2    1
    2     1     3    2
    3     1     4    1
    4     4     5    1
    5     4     6    2
    6     6     7    1
    7     6     8    1
    8     8     9    1
    9     8    10    1
   10     8    11    1
   11    11    12    1
   12    11    13    1
   13    11    14    1
   14    14    15    1
   15    14    16    1
   16    14    17    1
@<TRIPOS>SUBSTRUCTURE
       1 MOL1            1 RESIDUE      1      MOL     
@<SCITEGIC>MOL_PROPERTY
VConf Rank
SciTegic.value.IntegerValue
825

@<SCITEGIC>MOL_PROPERTY
Conf_Id
SciTegic.value.IntegerValue
36

@<SCITEGIC>MOL_PROPERTY
Delta U+W
SciTegic.value.DoubleValue
0.000

@<SCITEGIC>MOL_PROPERTY
U+W
SciTegic.value.DoubleValue
-53.409

@<SCITEGIC>MOL_PROPERTY
Grad RMS
SciTegic.value.DoubleValue
0.000000

@<SCITEGIC>MOL_PROPERTY
U
SciTegic.value.DoubleValue
9.048

@<SCITEGIC>MOL_PROPERTY
W
SciTegic.value.DoubleValue
-62.457

@<SCITEGIC>MOL_PROPERTY
W(PB)
SciTegic.value.DoubleValue
-64.540

@<SCITEGIC>MOL_PROPERTY
W(SA)
SciTegic.value.DoubleValue
2.084

@<SCITEGIC>MOL_PROPERTY
Valence
SciTegic.value.DoubleValue
2.652

@<SCITEGIC>MOL_PROPERTY
Coulomb
SciTegic.value.DoubleValue
5.578

@<SCITEGIC>MOL_PROPERTY
VdW
SciTegic.value.DoubleValue
0.818

@<SCITEGIC>MOL_PROPERTY
VdW6
SciTegic.value.DoubleValue
-4.534

@<SCITEGIC>MOL_PROPERTY
VdW12
SciTegic.value.DoubleValue
5.352

@<SCITEGIC>MOL_PROPERTY
Bond
SciTegic.value.DoubleValue
0.063

@<SCITEGIC>MOL_PROPERTY
Angle
SciTegic.value.DoubleValue
2.579

@<SCITEGIC>MOL_PROPERTY
Pdih
SciTegic.value.DoubleValue
0.010

@<SCITEGIC>MOL_PROPERTY
Idih
SciTegic.value.DoubleValue
0.000

@<SCITEGIC>MOL_PROPERTY
Tether
SciTegic.value.DoubleValue
0.000

@<TRIPOS>MOLECULE
guest-s19_confgen4.mol2 : confsearch ligand conformer 826
          17          16           1
SMALL
USER_CHARGES
 
@<TRIPOS>ATOM
       1    C1      16.942788   18.628998   23.228579 C.2        1 MOL1         0.6173
       2    O1      17.075801   17.882433   24.180074 O.co2      1 MOL1        -0.6755
       3    O2      15.856970   18.928856   22.771644 O.co2      1 MOL1        -0.6755
       4    C2      18.147180   19.214337   22.579749 C.2        1 MOL1        -0.1504
       5    H1      17.958392   19.873060   21.735147 H          1 MOL1         0.0814
       6    C3      19.414775   18.967482   22.981436 C.2        1 MOL1        -0.1394
       7    H2      19.615409   18.307362   23.825095 H          1 MOL1         0.0817
       8    C4      20.634339   19.565425   22.314828 C.3        1 MOL1        -0.1849
       9    H3      21.465855   19.599279   23.031642 H          1 MOL1         0.0736
      10    H4      20.431041   20.604733   22.022739 H          1 MOL1         0.0736
      11    C5      21.054299   18.749043   21.075404 C.3        1 MOL1        -0.1866
      12    H5      21.259174   17.710513   21.370443 H          1 MOL1         0.0738
      13    H6      20.224799   18.717633   20.355332 H          1 MOL1         0.0738
      14    C6      22.302446   19.346836   20.395480 C.3        1 MOL1        -0.2879
      15    H7      23.156834   19.360724   21.084871 H          1 MOL1         0.0750
      16    H8      22.585837   18.753125   19.516659 H          1 MOL1         0.0750
      17    H9      22.113552   20.375894   20.062622 H          1 MOL1         0.0750
@<TRIPOS>BOND
    1     1     2    1
    2     1     3    2
    3     1     4    1
    4     4     5    1
    5     4     6    2
    6     6     7    1
    7     6     8    1
    8     8     9    1
    9     8    10    1
   10     8    11    1
   11    11    12    1
   12    11    13    1
   13    11    14    1
   14    14    15    1
   15    14    16    1
   16    14    17    1
@<TRIPOS>SUBSTRUCTURE
       1 MOL1            1 RESIDUE      1      MOL     
@<SCITEGIC>MOL_PROPERTY
VConf Rank
SciTegic.value.IntegerValue
826

@<SCITEGIC>MOL_PROPERTY
Conf_Id
SciTegic.value.IntegerValue
1

@<SCITEGIC>MOL_PROPERTY
Delta U+W
SciTegic.value.DoubleValue
0.030

@<SCITEGIC>MOL_PROPERTY
U+W
SciTegic.value.DoubleValue
-53.378

@<SCITEGIC>MOL_PROPERTY
Grad RMS
SciTegic.value.DoubleValue
0.000000

@<SCITEGIC>MOL_PROPERTY
U
SciTegic.value.DoubleValue
9.048

@<SCITEGIC>MOL_PROPERTY
W
SciTegic.value.DoubleValue
-62.426

@<SCITEGIC>MOL_PROPERTY
W(PB)
SciTegic.value.DoubleValue
-64.506

@<SCITEGIC>MOL_PROPERTY
W(SA)
SciTegic.value.DoubleValue
2.080

@<SCITEGIC>MOL_PROPERTY
Valence
SciTegic.value.DoubleValue
2.652

@<SCITEGIC>MOL_PROPERTY
Coulomb
SciTegic.value.DoubleValue
5.578

@<SCITEGIC>MOL_PROPERTY
VdW
SciTegic.value.DoubleValue
0.818

@<SCITEGIC>MOL_PROPERTY
VdW6
SciTegic.value.DoubleValue
-4.535

@<SCITEGIC>MOL_PROPERTY
VdW12
SciTegic.value.DoubleValue
5.352

@<SCITEGIC>MOL_PROPERTY
Bond
SciTegic.value.DoubleValue
0.063

@<SCITEGIC>MOL_PROPERTY
Angle
SciTegic.value.DoubleValue
2.579

@<SCITEGIC>MOL_PROPERTY
Pdih
SciTegic.value.DoubleValue
0.010

@<SCITEGIC>MOL_PROPERTY
Idih
SciTegic.value.DoubleValue
0.000

@<SCITEGIC>MOL_PROPERTY
Tether
SciTegic.value.DoubleValue
0.000

@<TRIPOS>MOLECULE
guest-s19_confgen4.mol2 : confsearch ligand conformer 827
          17          16           1
SMALL
USER_CHARGES
 
@<TRIPOS>ATOM
       1    C1      17.439243   20.640673   22.718466 C.2        1 MOL1         0.6173
       2    O1      16.706538   19.722642   23.035959 O.co2      1 MOL1        -0.6755
       3    O2      17.190077   21.802632   22.974550 O.co2      1 MOL1        -0.6755
       4    C2      18.699407   20.354410   21.980813 C.2        1 MOL1        -0.1504
       5    H1      19.307676   21.219388   21.726682 H          1 MOL1         0.0814
       6    C3      19.102572   19.111626   21.631625 C.2        1 MOL1        -0.1394
       7    H2      18.502527   18.237695   21.884186 H          1 MOL1         0.0817
       8    C4      20.388537   18.827633   20.884192 C.3        1 MOL1        -0.1849
       9    H3      20.535240   19.585287   20.102550 H          1 MOL1         0.0736
      10    H4      20.312751   17.862784   20.364945 H          1 MOL1         0.0736
      11    C5      21.619978   18.817002   21.816394 C.3        1 MOL1        -0.1866
      12    H5      22.529454   18.712470   21.208875 H          1 MOL1         0.0738
      13    H6      21.699181   19.781706   22.336490 H          1 MOL1         0.0738
      14    C6      21.569399   17.671727   22.850076 C.3        1 MOL1        -0.2879
      15    H7      21.502714   16.695759   22.351895 H          1 MOL1         0.0750
      16    H8      22.473565   17.673486   23.472481 H          1 MOL1         0.0750
      17    H9      20.702697   17.776879   23.515653 H          1 MOL1         0.0750
@<TRIPOS>BOND
    1     1     2    1
    2     1     3    2
    3     1     4    1
    4     4     5    1
    5     4     6    2
    6     6     7    1
    7     6     8    1
    8     8     9    1
    9     8    10    1
   10     8    11    1
   11    11    12    1
   12    11    13    1
   13    11    14    1
   14    14    15    1
   15    14    16    1
   16    14    17    1
@<TRIPOS>SUBSTRUCTURE
       1 MOL1            1 RESIDUE      1      MOL     
@<SCITEGIC>MOL_PROPERTY
VConf Rank
SciTegic.value.IntegerValue
827

@<SCITEGIC>MOL_PROPERTY
Conf_Id
SciTegic.value.IntegerValue
3

@<SCITEGIC>MOL_PROPERTY
Delta U+W
SciTegic.value.DoubleValue
0.531

@<SCITEGIC>MOL_PROPERTY
U+W
SciTegic.value.DoubleValue
-52.878

@<SCITEGIC>MOL_PROPERTY
Grad RMS
SciTegic.value.DoubleValue
0.000000

@<SCITEGIC>MOL_PROPERTY
U
SciTegic.value.DoubleValue
10.067

@<SCITEGIC>MOL_PROPERTY
W
SciTegic.value.DoubleValue
-62.945

@<SCITEGIC>MOL_PROPERTY
W(PB)
SciTegic.value.DoubleValue
-64.982

@<SCITEGIC>MOL_PROPERTY
W(SA)
SciTegic.value.DoubleValue
2.037

@<SCITEGIC>MOL_PROPERTY
Valence
SciTegic.value.DoubleValue
2.779

@<SCITEGIC>MOL_PROPERTY
Coulomb
SciTegic.value.DoubleValue
6.474

@<SCITEGIC>MOL_PROPERTY
VdW
SciTegic.value.DoubleValue
0.815

@<SCITEGIC>MOL_PROPERTY
VdW6
SciTegic.value.DoubleValue
-5.088

@<SCITEGIC>MOL_PROPERTY
VdW12
SciTegic.value.DoubleValue
5.902

@<SCITEGIC>MOL_PROPERTY
Bond
SciTegic.value.DoubleValue
0.078

@<SCITEGIC>MOL_PROPERTY
Angle
SciTegic.value.DoubleValue
2.651

@<SCITEGIC>MOL_PROPERTY
Pdih
SciTegic.value.DoubleValue
0.050

@<SCITEGIC>MOL_PROPERTY
Idih
SciTegic.value.DoubleValue
0.000

@<SCITEGIC>MOL_PROPERTY
Tether
SciTegic.value.DoubleValue
0.000

@<TRIPOS>MOLECULE
guest-s19_confgen4.mol2 : confsearch ligand conformer 828
          17          16           1
SMALL
USER_CHARGES
 
@<TRIPOS>ATOM
       1    C1      22.961834   19.190156   22.524645 C.2        1 MOL1         0.6173
       2    O1      23.703772   18.338567   22.974205 O.co2      1 MOL1        -0.6755
       3    O2      23.248902   20.372375   22.504696 O.co2      1 MOL1        -0.6755
       4    C2      21.652572   18.741968   21.977806 C.2        1 MOL1        -0.1504
       5    H1      21.459664   17.672801   22.026532 H          1 MOL1         0.0814
       6    C3      20.730329   19.578671   21.449620 C.2        1 MOL1        -0.1394
       7    H2      20.913996   20.651681   21.400273 H          1 MOL1         0.0817
       8    C4      19.397141   19.119681   20.896199 C.3        1 MOL1        -0.1849
       9    H3      19.411627   18.038922   20.700012 H          1 MOL1         0.0736
      10    H4      19.226266   19.603850   19.925431 H          1 MOL1         0.0736
      11    C5      18.222484   19.460146   21.839295 C.3        1 MOL1        -0.1866
      12    H5      18.208854   20.540755   22.038188 H          1 MOL1         0.0738
      13    H6      17.276403   19.222176   21.333826 H          1 MOL1         0.0738
      14    C6      18.288372   18.686324   23.173345 C.3        1 MOL1        -0.2879
      15    H7      19.192208   18.947852   23.738797 H          1 MOL1         0.0750
      16    H8      17.419147   18.923215   23.800399 H          1 MOL1         0.0750
      17    H9      18.295309   17.602582   22.998564 H          1 MOL1         0.0750
@<TRIPOS>BOND
    1     1     2    1
    2     1     3    2
    3     1     4    1
    4     4     5    1
    5     4     6    2
    6     6     7    1
    7     6     8    1
    8     8     9    1
    9     8    10    1
   10     8    11    1
   11    11    12    1
   12    11    13    1
   13    11    14    1
   14    14    15    1
   15    14    16    1
   16    14    17    1
@<TRIPOS>SUBSTRUCTURE
       1 MOL1            1 RESIDUE      1      MOL     
@<SCITEGIC>MOL_PROPERTY
VConf Rank
SciTegic.value.IntegerValue
828

@<SCITEGIC>MOL_PROPERTY
Conf_Id
SciTegic.value.IntegerValue
45

@<SCITEGIC>MOL_PROPERTY
Delta U+W
SciTegic.value.DoubleValue
0.562

@<SCITEGIC>MOL_PROPERTY
U+W
SciTegic.value.DoubleValue
-52.846

@<SCITEGIC>MOL_PROPERTY
Grad RMS
SciTegic.value.DoubleValue
0.000000

@<SCITEGIC>MOL_PROPERTY
U
SciTegic.value.DoubleValue
10.243

@<SCITEGIC>MOL_PROPERTY
W
SciTegic.value.DoubleValue
-63.089

@<SCITEGIC>MOL_PROPERTY
W(PB)
SciTegic.value.DoubleValue
-65.116

@<SCITEGIC>MOL_PROPERTY
W(SA)
SciTegic.value.DoubleValue
2.026

@<SCITEGIC>MOL_PROPERTY
Valence
SciTegic.value.DoubleValue
2.822

@<SCITEGIC>MOL_PROPERTY
Coulomb
SciTegic.value.DoubleValue
6.637

@<SCITEGIC>MOL_PROPERTY
VdW
SciTegic.value.DoubleValue
0.785

@<SCITEGIC>MOL_PROPERTY
VdW6
SciTegic.value.DoubleValue
-5.216

@<SCITEGIC>MOL_PROPERTY
VdW12
SciTegic.value.DoubleValue
6.001

@<SCITEGIC>MOL_PROPERTY
Bond
SciTegic.value.DoubleValue
0.080

@<SCITEGIC>MOL_PROPERTY
Angle
SciTegic.value.DoubleValue
2.678

@<SCITEGIC>MOL_PROPERTY
Pdih
SciTegic.value.DoubleValue
0.064

@<SCITEGIC>MOL_PROPERTY
Idih
SciTegic.value.DoubleValue
0.000

@<SCITEGIC>MOL_PROPERTY
Tether
SciTegic.value.DoubleValue
0.000

@<TRIPOS>MOLECULE
guest-s19_confgen4.mol2 : confsearch ligand conformer 829
          17          16           1
SMALL
USER_CHARGES
 
@<TRIPOS>ATOM
       1    C1      17.590598   21.234800   22.973500 C.2        1 MOL1         0.6173
       2    O1      17.697450   22.367165   23.402496 O.co2      1 MOL1        -0.6755
       3    O2      16.566658   20.584977   23.071839 O.co2      1 MOL1        -0.6755
       4    C2      18.777175   20.639377   22.301439 C.2        1 MOL1        -0.1504
       5    H1      19.659505   21.272979   22.247117 H          1 MOL1         0.0814
       6    C3      18.800783   19.391947   21.779476 C.2        1 MOL1        -0.1394
       7    H2      17.923139   18.747813   21.830508 H          1 MOL1         0.0817
       8    C4      20.012486   18.793105   21.099474 C.3        1 MOL1        -0.1849
       9    H3      20.525000   19.559488   20.502150 H          1 MOL1         0.0736
      10    H4      19.691543   18.012253   20.396869 H          1 MOL1         0.0736
      11    C5      20.993343   18.191653   22.126698 C.3        1 MOL1        -0.1866
      12    H5      21.318712   18.972648   22.827940 H          1 MOL1         0.0738
      13    H6      20.479020   17.424018   22.721489 H          1 MOL1         0.0738
      14    C6      22.226873   17.570716   21.440865 C.3        1 MOL1        -0.2879
      15    H7      21.931826   16.764097   20.756947 H          1 MOL1         0.0750
      16    H8      22.777077   18.325548   20.863855 H          1 MOL1         0.0750
      17    H9      22.912564   17.148453   22.186956 H          1 MOL1         0.0750
@<TRIPOS>BOND
    1     1     2    1
    2     1     3    2
    3     1     4    1
    4     4     5    1
    5     4     6    2
    6     6     7    1
    7     6     8    1
    8     8     9    1
    9     8    10    1
   10     8    11    1
   11    11    12    1
   12    11    13    1
   13    11    14    1
   14    14    15    1
   15    14    16    1
   16    14    17    1
@<TRIPOS>SUBSTRUCTURE
       1 MOL1            1 RESIDUE      1      MOL     
@<SCITEGIC>MOL_PROPERTY
VConf Rank
SciTegic.value.IntegerValue
829

@<SCITEGIC>MOL_PROPERTY
Conf_Id
SciTegic.value.IntegerValue
36

@<SCITEGIC>MOL_PROPERTY
Delta U+W
SciTegic.value.DoubleValue
0.000

@<SCITEGIC>MOL_PROPERTY
U+W
SciTegic.value.DoubleValue
-53.409

@<SCITEGIC>MOL_PROPERTY
Grad RMS
SciTegic.value.DoubleValue
0.000000

@<SCITEGIC>MOL_PROPERTY
U
SciTegic.value.DoubleValue
9.048

@<SCITEGIC>MOL_PROPERTY
W
SciTegic.value.DoubleValue
-62.457

@<SCITEGIC>MOL_PROPERTY
W(PB)
SciTegic.value.DoubleValue
-64.540

@<SCITEGIC>MOL_PROPERTY
W(SA)
SciTegic.value.DoubleValue
2.084

@<SCITEGIC>MOL_PROPERTY
Valence
SciTegic.value.DoubleValue
2.652

@<SCITEGIC>MOL_PROPERTY
Coulomb
SciTegic.value.DoubleValue
5.578

@<SCITEGIC>MOL_PROPERTY
VdW
SciTegic.value.DoubleValue
0.818

@<SCITEGIC>MOL_PROPERTY
VdW6
SciTegic.value.DoubleValue
-4.534

@<SCITEGIC>MOL_PROPERTY
VdW12
SciTegic.value.DoubleValue
5.352

@<SCITEGIC>MOL_PROPERTY
Bond
SciTegic.value.DoubleValue
0.063

@<SCITEGIC>MOL_PROPERTY
Angle
SciTegic.value.DoubleValue
2.579

@<SCITEGIC>MOL_PROPERTY
Pdih
SciTegic.value.DoubleValue
0.010

@<SCITEGIC>MOL_PROPERTY
Idih
SciTegic.value.DoubleValue
0.000

@<SCITEGIC>MOL_PROPERTY
Tether
SciTegic.value.DoubleValue
0.000

@<TRIPOS>MOLECULE
guest-s19_confgen4.mol2 : confsearch ligand conformer 830
          17          16           1
SMALL
USER_CHARGES
 
@<TRIPOS>ATOM
       1    C1      20.204875   15.726993   22.009813 C.2        1 MOL1         0.6173
       2    O1      21.354701   15.431272   21.743648 O.co2      1 MOL1        -0.6755
       3    O2      19.309347   14.907113   22.069244 O.co2      1 MOL1        -0.6755
       4    C2      19.855154   17.147914   22.279705 C.2        1 MOL1        -0.1504
       5    H1      18.810707   17.343864   22.511316 H          1 MOL1         0.0814
       6    C3      20.748080   18.163158   22.247304 C.2        1 MOL1        -0.1394
       7    H2      21.796552   17.978377   22.014206 H          1 MOL1         0.0817
       8    C4      20.383760   19.605892   22.521220 C.3        1 MOL1        -0.1849
       9    H3      21.271857   20.149527   22.870694 H          1 MOL1         0.0736
      10    H4      19.645297   19.659182   23.332785 H          1 MOL1         0.0736
      11    C5      19.821416   20.292690   21.259834 C.3        1 MOL1        -0.1866
      12    H5      20.562613   20.240005   20.450256 H          1 MOL1         0.0738
      13    H6      18.930315   19.752359   20.911206 H          1 MOL1         0.0738
      14    C6      19.456219   21.766479   21.528352 C.3        1 MOL1        -0.2879
      15    H7      20.337518   22.337714   21.848402 H          1 MOL1         0.0750
      16    H8      19.058315   22.237943   20.620318 H          1 MOL1         0.0750
      17    H9      18.692765   21.845250   22.313443 H          1 MOL1         0.0750
@<TRIPOS>BOND
    1     1     2    1
    2     1     3    2
    3     1     4    1
    4     4     5    1
    5     4     6    2
    6     6     7    1
    7     6     8    1
    8     8     9    1
    9     8    10    1
   10     8    11    1
   11    11    12    1
   12    11    13    1
   13    11    14    1
   14    14    15    1
   15    14    16    1
   16    14    17    1
@<TRIPOS>SUBSTRUCTURE
       1 MOL1            1 RESIDUE      1      MOL     
@<SCITEGIC>MOL_PROPERTY
VConf Rank
SciTegic.value.IntegerValue
830

@<SCITEGIC>MOL_PROPERTY
Conf_Id
SciTegic.value.IntegerValue
1

@<SCITEGIC>MOL_PROPERTY
Delta U+W
SciTegic.value.DoubleValue
0.030

@<SCITEGIC>MOL_PROPERTY
U+W
SciTegic.value.DoubleValue
-53.378

@<SCITEGIC>MOL_PROPERTY
Grad RMS
SciTegic.value.DoubleValue
0.000000

@<SCITEGIC>MOL_PROPERTY
U
SciTegic.value.DoubleValue
9.048

@<SCITEGIC>MOL_PROPERTY
W
SciTegic.value.DoubleValue
-62.426

@<SCITEGIC>MOL_PROPERTY
W(PB)
SciTegic.value.DoubleValue
-64.506

@<SCITEGIC>MOL_PROPERTY
W(SA)
SciTegic.value.DoubleValue
2.080

@<SCITEGIC>MOL_PROPERTY
Valence
SciTegic.value.DoubleValue
2.652

@<SCITEGIC>MOL_PROPERTY
Coulomb
SciTegic.value.DoubleValue
5.578

@<SCITEGIC>MOL_PROPERTY
VdW
SciTegic.value.DoubleValue
0.818

@<SCITEGIC>MOL_PROPERTY
VdW6
SciTegic.value.DoubleValue
-4.535

@<SCITEGIC>MOL_PROPERTY
VdW12
SciTegic.value.DoubleValue
5.352

@<SCITEGIC>MOL_PROPERTY
Bond
SciTegic.value.DoubleValue
0.063

@<SCITEGIC>MOL_PROPERTY
Angle
SciTegic.value.DoubleValue
2.579

@<SCITEGIC>MOL_PROPERTY
Pdih
SciTegic.value.DoubleValue
0.010

@<SCITEGIC>MOL_PROPERTY
Idih
SciTegic.value.DoubleValue
0.000

@<SCITEGIC>MOL_PROPERTY
Tether
SciTegic.value.DoubleValue
0.000

@<TRIPOS>MOLECULE
guest-s19_confgen4.mol2 : confsearch ligand conformer 831
          17          16           1
SMALL
USER_CHARGES
 
@<TRIPOS>ATOM
       1    C1      18.115196   18.900339   24.468978 C.2        1 MOL1         0.6173
       2    O1      17.504431   17.885859   24.189268 O.co2      1 MOL1        -0.6755
       3    O2      18.104479   19.391602   25.580894 O.co2      1 MOL1        -0.6755
       4    C2      18.914634   19.590076   23.420525 C.2        1 MOL1        -0.1504
       5    H1      19.435040   20.491255   23.736458 H          1 MOL1         0.0814
       6    C3      19.017617   19.155912   22.143857 C.2        1 MOL1        -0.1394
       7    H2      18.503151   18.252369   21.817464 H          1 MOL1         0.0817
       8    C4      19.836410   19.861143   21.083082 C.3        1 MOL1        -0.1849
       9    H3      19.708129   20.947674   21.180659 H          1 MOL1         0.0736
      10    H4      19.460967   19.596927   20.085322 H          1 MOL1         0.0736
      11    C5      21.339531   19.518446   21.176614 C.3        1 MOL1        -0.1866
      12    H5      21.894108   20.135556   20.456355 H          1 MOL1         0.0738
      13    H6      21.718401   19.782888   22.173587 H          1 MOL1         0.0738
      14    C6      21.625482   18.028870   20.890070 C.3        1 MOL1        -0.2879
      15    H7      21.266121   17.744865   19.892400 H          1 MOL1         0.0750
      16    H8      22.703821   17.827992   20.931787 H          1 MOL1         0.0750
      17    H9      21.134039   17.382024   21.628511 H          1 MOL1         0.0750
@<TRIPOS>BOND
    1     1     2    1
    2     1     3    2
    3     1     4    1
    4     4     5    1
    5     4     6    2
    6     6     7    1
    7     6     8    1
    8     8     9    1
    9     8    10    1
   10     8    11    1
   11    11    12    1
   12    11    13    1
   13    11    14    1
   14    14    15    1
   15    14    16    1
   16    14    17    1
@<TRIPOS>SUBSTRUCTURE
       1 MOL1            1 RESIDUE      1      MOL     
@<SCITEGIC>MOL_PROPERTY
VConf Rank
SciTegic.value.IntegerValue
831

@<SCITEGIC>MOL_PROPERTY
Conf_Id
SciTegic.value.IntegerValue
3

@<SCITEGIC>MOL_PROPERTY
Delta U+W
SciTegic.value.DoubleValue
0.531

@<SCITEGIC>MOL_PROPERTY
U+W
SciTegic.value.DoubleValue
-52.878

@<SCITEGIC>MOL_PROPERTY
Grad RMS
SciTegic.value.DoubleValue
0.000000

@<SCITEGIC>MOL_PROPERTY
U
SciTegic.value.DoubleValue
10.067

@<SCITEGIC>MOL_PROPERTY
W
SciTegic.value.DoubleValue
-62.945

@<SCITEGIC>MOL_PROPERTY
W(PB)
SciTegic.value.DoubleValue
-64.982

@<SCITEGIC>MOL_PROPERTY
W(SA)
SciTegic.value.DoubleValue
2.037

@<SCITEGIC>MOL_PROPERTY
Valence
SciTegic.value.DoubleValue
2.779

@<SCITEGIC>MOL_PROPERTY
Coulomb
SciTegic.value.DoubleValue
6.474

@<SCITEGIC>MOL_PROPERTY
VdW
SciTegic.value.DoubleValue
0.815

@<SCITEGIC>MOL_PROPERTY
VdW6
SciTegic.value.DoubleValue
-5.088

@<SCITEGIC>MOL_PROPERTY
VdW12
SciTegic.value.DoubleValue
5.902

@<SCITEGIC>MOL_PROPERTY
Bond
SciTegic.value.DoubleValue
0.078

@<SCITEGIC>MOL_PROPERTY
Angle
SciTegic.value.DoubleValue
2.651

@<SCITEGIC>MOL_PROPERTY
Pdih
SciTegic.value.DoubleValue
0.050

@<SCITEGIC>MOL_PROPERTY
Idih
SciTegic.value.DoubleValue
0.000

@<SCITEGIC>MOL_PROPERTY
Tether
SciTegic.value.DoubleValue
0.000

@<TRIPOS>MOLECULE
guest-s19_confgen4.mol2 : confsearch ligand conformer 832
          17          16           1
SMALL
USER_CHARGES
 
@<TRIPOS>ATOM
       1    C1      21.154523   16.482736   23.016875 C.2        1 MOL1         0.6173
       2    O1      22.134690   16.277685   23.706082 O.co2      1 MOL1        -0.6755
       3    O2      20.673790   15.638290   22.284580 O.co2      1 MOL1        -0.6755
       4    C2      20.531559   17.831943   23.091902 C.2        1 MOL1        -0.1504
       5    H1      21.010963   18.538449   23.765495 H          1 MOL1         0.0814
       6    C3      19.441219   18.199131   22.380625 C.2        1 MOL1        -0.1394
       7    H2      18.956914   17.498657   21.700696 H          1 MOL1         0.0817
       8    C4      18.810945   19.574357   22.457087 C.3        1 MOL1        -0.1849
       9    H3      19.148162   20.104419   23.358230 H          1 MOL1         0.0736
      10    H4      17.722781   19.464826   22.556640 H          1 MOL1         0.0736
      11    C5      19.115987   20.429228   21.207563 C.3        1 MOL1        -0.1866
      12    H5      18.781358   19.898539   20.305425 H          1 MOL1         0.0738
      13    H6      18.533419   21.359389   21.258674 H          1 MOL1         0.0738
      14    C6      20.613691   20.780310   21.079282 C.3        1 MOL1        -0.2879
      15    H7      21.223946   19.875531   20.960888 H          1 MOL1         0.0750
      16    H8      20.786768   21.419553   20.203908 H          1 MOL1         0.0750
      17    H9      20.968163   21.318677   21.967878 H          1 MOL1         0.0750
@<TRIPOS>BOND
    1     1     2    1
    2     1     3    2
    3     1     4    1
    4     4     5    1
    5     4     6    2
    6     6     7    1
    7     6     8    1
    8     8     9    1
    9     8    10    1
   10     8    11    1
   11    11    12    1
   12    11    13    1
   13    11    14    1
   14    14    15    1
   15    14    16    1
   16    14    17    1
@<TRIPOS>SUBSTRUCTURE
       1 MOL1            1 RESIDUE      1      MOL     
@<SCITEGIC>MOL_PROPERTY
VConf Rank
SciTegic.value.IntegerValue
832

@<SCITEGIC>MOL_PROPERTY
Conf_Id
SciTegic.value.IntegerValue
45

@<SCITEGIC>MOL_PROPERTY
Delta U+W
SciTegic.value.DoubleValue
0.562

@<SCITEGIC>MOL_PROPERTY
U+W
SciTegic.value.DoubleValue
-52.846

@<SCITEGIC>MOL_PROPERTY
Grad RMS
SciTegic.value.DoubleValue
0.000000

@<SCITEGIC>MOL_PROPERTY
U
SciTegic.value.DoubleValue
10.243

@<SCITEGIC>MOL_PROPERTY
W
SciTegic.value.DoubleValue
-63.089

@<SCITEGIC>MOL_PROPERTY
W(PB)
SciTegic.value.DoubleValue
-65.116

@<SCITEGIC>MOL_PROPERTY
W(SA)
SciTegic.value.DoubleValue
2.026

@<SCITEGIC>MOL_PROPERTY
Valence
SciTegic.value.DoubleValue
2.822

@<SCITEGIC>MOL_PROPERTY
Coulomb
SciTegic.value.DoubleValue
6.637

@<SCITEGIC>MOL_PROPERTY
VdW
SciTegic.value.DoubleValue
0.785

@<SCITEGIC>MOL_PROPERTY
VdW6
SciTegic.value.DoubleValue
-5.216

@<SCITEGIC>MOL_PROPERTY
VdW12
SciTegic.value.DoubleValue
6.001

@<SCITEGIC>MOL_PROPERTY
Bond
SciTegic.value.DoubleValue
0.080

@<SCITEGIC>MOL_PROPERTY
Angle
SciTegic.value.DoubleValue
2.678

@<SCITEGIC>MOL_PROPERTY
Pdih
SciTegic.value.DoubleValue
0.064

@<SCITEGIC>MOL_PROPERTY
Idih
SciTegic.value.DoubleValue
0.000

@<SCITEGIC>MOL_PROPERTY
Tether
SciTegic.value.DoubleValue
0.000

@<TRIPOS>MOLECULE
guest-s19_confgen4.mol2 : confsearch ligand conformer 833
          17          16           1
SMALL
USER_CHARGES
 
@<TRIPOS>ATOM
       1    C1      18.446545   16.481952   20.485661 C.2        1 MOL1         0.6173
       2    O1      17.451577   16.459249   19.787645 O.co2      1 MOL1        -0.6755
       3    O2      18.932160   15.480142   20.976528 O.co2      1 MOL1        -0.6755
       4    C2      19.081299   17.804443   20.735188 C.2        1 MOL1        -0.1504
       5    H1      18.597494   18.658894   20.267476 H          1 MOL1         0.0814
       6    C3      20.188930   17.978168   21.491534 C.2        1 MOL1        -0.1394
       7    H2      20.680285   17.129307   21.966695 H          1 MOL1         0.0817
       8    C4      20.826955   19.327007   21.742123 C.3        1 MOL1        -0.1849
       9    H3      20.782771   19.938543   20.830596 H          1 MOL1         0.0736
      10    H4      21.891478   19.192442   21.976796 H          1 MOL1         0.0736
      11    C5      20.132746   20.070243   22.901730 C.3        1 MOL1        -0.1866
      12    H5      19.068357   20.209421   22.666643 H          1 MOL1         0.0738
      13    H6      20.180033   19.457543   23.812736 H          1 MOL1         0.0738
      14    C6      20.783334   21.442259   23.169743 C.3        1 MOL1        -0.2879
      15    H7      21.841818   21.329470   23.438668 H          1 MOL1         0.0750
      16    H8      20.721562   22.086308   22.282714 H          1 MOL1         0.0750
      17    H9      20.276407   21.955644   23.997144 H          1 MOL1         0.0750
@<TRIPOS>BOND
    1     1     2    1
    2     1     3    2
    3     1     4    1
    4     4     5    1
    5     4     6    2
    6     6     7    1
    7     6     8    1
    8     8     9    1
    9     8    10    1
   10     8    11    1
   11    11    12    1
   12    11    13    1
   13    11    14    1
   14    14    15    1
   15    14    16    1
   16    14    17    1
@<TRIPOS>SUBSTRUCTURE
       1 MOL1            1 RESIDUE      1      MOL     
@<SCITEGIC>MOL_PROPERTY
VConf Rank
SciTegic.value.IntegerValue
833

@<SCITEGIC>MOL_PROPERTY
Conf_Id
SciTegic.value.IntegerValue
36

@<SCITEGIC>MOL_PROPERTY
Delta U+W
SciTegic.value.DoubleValue
0.000

@<SCITEGIC>MOL_PROPERTY
U+W
SciTegic.value.DoubleValue
-53.409

@<SCITEGIC>MOL_PROPERTY
Grad RMS
SciTegic.value.DoubleValue
0.000000

@<SCITEGIC>MOL_PROPERTY
U
SciTegic.value.DoubleValue
9.048

@<SCITEGIC>MOL_PROPERTY
W
SciTegic.value.DoubleValue
-62.457

@<SCITEGIC>MOL_PROPERTY
W(PB)
SciTegic.value.DoubleValue
-64.540

@<SCITEGIC>MOL_PROPERTY
W(SA)
SciTegic.value.DoubleValue
2.084

@<SCITEGIC>MOL_PROPERTY
Valence
SciTegic.value.DoubleValue
2.652

@<SCITEGIC>MOL_PROPERTY
Coulomb
SciTegic.value.DoubleValue
5.578

@<SCITEGIC>MOL_PROPERTY
VdW
SciTegic.value.DoubleValue
0.818

@<SCITEGIC>MOL_PROPERTY
VdW6
SciTegic.value.DoubleValue
-4.534

@<SCITEGIC>MOL_PROPERTY
VdW12
SciTegic.value.DoubleValue
5.352

@<SCITEGIC>MOL_PROPERTY
Bond
SciTegic.value.DoubleValue
0.063

@<SCITEGIC>MOL_PROPERTY
Angle
SciTegic.value.DoubleValue
2.579

@<SCITEGIC>MOL_PROPERTY
Pdih
SciTegic.value.DoubleValue
0.010

@<SCITEGIC>MOL_PROPERTY
Idih
SciTegic.value.DoubleValue
0.000

@<SCITEGIC>MOL_PROPERTY
Tether
SciTegic.value.DoubleValue
0.000

@<TRIPOS>MOLECULE
guest-s19_confgen4.mol2 : confsearch ligand conformer 834
          17          16           1
SMALL
USER_CHARGES
 
@<TRIPOS>ATOM
       1    C1      20.769133   16.017452   20.753149 C.2        1 MOL1         0.6173
       2    O1      19.717714   15.490095   20.442013 O.co2      1 MOL1        -0.6755
       3    O2      21.820388   15.409866   20.811540 O.co2      1 MOL1        -0.6755
       4    C2      20.794924   17.468987   21.079555 C.2        1 MOL1        -0.1504
       5    H1      21.766086   17.877577   21.349387 H          1 MOL1         0.0814
       6    C3      19.702654   18.266179   21.056824 C.2        1 MOL1        -0.1394
       7    H2      18.724379   17.866723   20.790016 H          1 MOL1         0.0817
       8    C4      19.737188   19.741207   21.391993 C.3        1 MOL1        -0.1849
       9    H3      18.897959   20.250158   20.898991 H          1 MOL1         0.0736
      10    H4      20.655100   20.195283   20.994426 H          1 MOL1         0.0736
      11    C5      19.658911   19.973426   22.914808 C.3        1 MOL1        -0.1866
      12    H5      18.738993   19.520281   23.309747 H          1 MOL1         0.0738
      13    H6      20.500260   19.468230   23.409244 H          1 MOL1         0.0738
      14    C6      19.684225   21.475016   23.264254 C.3        1 MOL1        -0.2879
      15    H7      18.834341   21.999139   22.807721 H          1 MOL1         0.0750
      16    H8      19.627713   21.620212   24.350925 H          1 MOL1         0.0750
      17    H9      20.609525   21.945902   22.907153 H          1 MOL1         0.0750
@<TRIPOS>BOND
    1     1     2    1
    2     1     3    2
    3     1     4    1
    4     4     5    1
    5     4     6    2
    6     6     7    1
    7     6     8    1
    8     8     9    1
    9     8    10    1
   10     8    11    1
   11    11    12    1
   12    11    13    1
   13    11    14    1
   14    14    15    1
   15    14    16    1
   16    14    17    1
@<TRIPOS>SUBSTRUCTURE
       1 MOL1            1 RESIDUE      1      MOL     
@<SCITEGIC>MOL_PROPERTY
VConf Rank
SciTegic.value.IntegerValue
834

@<SCITEGIC>MOL_PROPERTY
Conf_Id
SciTegic.value.IntegerValue
1

@<SCITEGIC>MOL_PROPERTY
Delta U+W
SciTegic.value.DoubleValue
0.030

@<SCITEGIC>MOL_PROPERTY
U+W
SciTegic.value.DoubleValue
-53.378

@<SCITEGIC>MOL_PROPERTY
Grad RMS
SciTegic.value.DoubleValue
0.000000

@<SCITEGIC>MOL_PROPERTY
U
SciTegic.value.DoubleValue
9.048

@<SCITEGIC>MOL_PROPERTY
W
SciTegic.value.DoubleValue
-62.426

@<SCITEGIC>MOL_PROPERTY
W(PB)
SciTegic.value.DoubleValue
-64.506

@<SCITEGIC>MOL_PROPERTY
W(SA)
SciTegic.value.DoubleValue
2.080

@<SCITEGIC>MOL_PROPERTY
Valence
SciTegic.value.DoubleValue
2.652

@<SCITEGIC>MOL_PROPERTY
Coulomb
SciTegic.value.DoubleValue
5.578

@<SCITEGIC>MOL_PROPERTY
VdW
SciTegic.value.DoubleValue
0.818

@<SCITEGIC>MOL_PROPERTY
VdW6
SciTegic.value.DoubleValue
-4.535

@<SCITEGIC>MOL_PROPERTY
VdW12
SciTegic.value.DoubleValue
5.352

@<SCITEGIC>MOL_PROPERTY
Bond
SciTegic.value.DoubleValue
0.063

@<SCITEGIC>MOL_PROPERTY
Angle
SciTegic.value.DoubleValue
2.579

@<SCITEGIC>MOL_PROPERTY
Pdih
SciTegic.value.DoubleValue
0.010

@<SCITEGIC>MOL_PROPERTY
Idih
SciTegic.value.DoubleValue
0.000

@<SCITEGIC>MOL_PROPERTY
Tether
SciTegic.value.DoubleValue
0.000

@<TRIPOS>MOLECULE
guest-s19_confgen4.mol2 : confsearch ligand conformer 835
          17          16           1
SMALL
USER_CHARGES
 
@<TRIPOS>ATOM
       1    C1      18.370171   19.612092   19.497943 C.2        1 MOL1         0.6173
       2    O1      19.219763   20.118850   18.789542 O.co2      1 MOL1        -0.6755
       3    O2      17.317324   19.186503   19.064127 O.co2      1 MOL1        -0.6755
       4    C2      18.605368   19.500126   20.962947 C.2        1 MOL1        -0.1504
       5    H1      17.806173   19.038367   21.538123 H          1 MOL1         0.0814
       6    C3      19.729184   19.929418   21.580792 C.2        1 MOL1        -0.1394
       7    H2      20.537565   20.390419   21.013698 H          1 MOL1         0.0817
       8    C4      19.963164   19.808558   23.071987 C.3        1 MOL1        -0.1849
       9    H3      19.035064   20.043131   23.610628 H          1 MOL1         0.0736
      10    H4      20.701633   20.554525   23.395235 H          1 MOL1         0.0736
      11    C5      20.442069   18.397757   23.479235 C.3        1 MOL1        -0.1866
      12    H5      20.492964   18.338169   24.575142 H          1 MOL1         0.0738
      13    H6      19.704508   17.649187   23.158182 H          1 MOL1         0.0738
      14    C6      21.825880   18.049998   22.890301 C.3        1 MOL1        -0.2879
      15    H7      22.582582   18.778809   23.208705 H          1 MOL1         0.0750
      16    H8      22.149658   17.056462   23.226396 H          1 MOL1         0.0750
      17    H9      21.798488   18.041425   21.792850 H          1 MOL1         0.0750
@<TRIPOS>BOND
    1     1     2    1
    2     1     3    2
    3     1     4    1
    4     4     5    1
    5     4     6    2
    6     6     7    1
    7     6     8    1
    8     8     9    1
    9     8    10    1
   10     8    11    1
   11    11    12    1
   12    11    13    1
   13    11    14    1
   14    14    15    1
   15    14    16    1
   16    14    17    1
@<TRIPOS>SUBSTRUCTURE
       1 MOL1            1 RESIDUE      1      MOL     
@<SCITEGIC>MOL_PROPERTY
VConf Rank
SciTegic.value.IntegerValue
835

@<SCITEGIC>MOL_PROPERTY
Conf_Id
SciTegic.value.IntegerValue
3

@<SCITEGIC>MOL_PROPERTY
Delta U+W
SciTegic.value.DoubleValue
0.531

@<SCITEGIC>MOL_PROPERTY
U+W
SciTegic.value.DoubleValue
-52.878

@<SCITEGIC>MOL_PROPERTY
Grad RMS
SciTegic.value.DoubleValue
0.000000

@<SCITEGIC>MOL_PROPERTY
U
SciTegic.value.DoubleValue
10.067

@<SCITEGIC>MOL_PROPERTY
W
SciTegic.value.DoubleValue
-62.945

@<SCITEGIC>MOL_PROPERTY
W(PB)
SciTegic.value.DoubleValue
-64.982

@<SCITEGIC>MOL_PROPERTY
W(SA)
SciTegic.value.DoubleValue
2.037

@<SCITEGIC>MOL_PROPERTY
Valence
SciTegic.value.DoubleValue
2.779

@<SCITEGIC>MOL_PROPERTY
Coulomb
SciTegic.value.DoubleValue
6.474

@<SCITEGIC>MOL_PROPERTY
VdW
SciTegic.value.DoubleValue
0.815

@<SCITEGIC>MOL_PROPERTY
VdW6
SciTegic.value.DoubleValue
-5.088

@<SCITEGIC>MOL_PROPERTY
VdW12
SciTegic.value.DoubleValue
5.902

@<SCITEGIC>MOL_PROPERTY
Bond
SciTegic.value.DoubleValue
0.078

@<SCITEGIC>MOL_PROPERTY
Angle
SciTegic.value.DoubleValue
2.651

@<SCITEGIC>MOL_PROPERTY
Pdih
SciTegic.value.DoubleValue
0.050

@<SCITEGIC>MOL_PROPERTY
Idih
SciTegic.value.DoubleValue
0.000

@<SCITEGIC>MOL_PROPERTY
Tether
SciTegic.value.DoubleValue
0.000

@<TRIPOS>MOLECULE
guest-s19_confgen4.mol2 : confsearch ligand conformer 836
          17          16           1
SMALL
USER_CHARGES
 
@<TRIPOS>ATOM
       1    C1      20.010228   20.434373   19.368202 C.2        1 MOL1         0.6173
       2    O1      19.161063   21.119134   18.831730 O.co2      1 MOL1        -0.6755
       3    O2      20.892248   19.870227   18.748342 O.co2      1 MOL1        -0.6755
       4    C2      19.949003   20.298092   20.848659 C.2        1 MOL1        -0.1504
       5    H1      19.136234   20.827817   21.340089 H          1 MOL1         0.0814
       6    C3      20.825370   19.567371   21.575030 C.2        1 MOL1        -0.1394
       7    H2      21.640435   19.030527   21.090278 H          1 MOL1         0.0817
       8    C4      20.758793   19.428311   23.081870 C.3        1 MOL1        -0.1849
       9    H3      20.127838   20.216284   23.515153 H          1 MOL1         0.0736
      10    H4      21.763222   19.577040   23.500214 H          1 MOL1         0.0736
      11    C5      20.233778   18.043576   23.520087 C.3        1 MOL1        -0.1866
      12    H5      20.862822   17.254654   23.084927 H          1 MOL1         0.0738
      13    H6      20.327473   17.953534   24.611102 H          1 MOL1         0.0738
      14    C6      18.760409   17.813544   23.121216 C.3        1 MOL1        -0.2879
      15    H7      18.637729   17.832189   22.030503 H          1 MOL1         0.0750
      16    H8      18.410519   16.837809   23.482306 H          1 MOL1         0.0750
      17    H9      18.111714   18.587241   23.552124 H          1 MOL1         0.0750
@<TRIPOS>BOND
    1     1     2    1
    2     1     3    2
    3     1     4    1
    4     4     5    1
    5     4     6    2
    6     6     7    1
    7     6     8    1
    8     8     9    1
    9     8    10    1
   10     8    11    1
   11    11    12    1
   12    11    13    1
   13    11    14    1
   14    14    15    1
   15    14    16    1
   16    14    17    1
@<TRIPOS>SUBSTRUCTURE
       1 MOL1            1 RESIDUE      1      MOL     
@<SCITEGIC>MOL_PROPERTY
VConf Rank
SciTegic.value.IntegerValue
836

@<SCITEGIC>MOL_PROPERTY
Conf_Id
SciTegic.value.IntegerValue
45

@<SCITEGIC>MOL_PROPERTY
Delta U+W
SciTegic.value.DoubleValue
0.562

@<SCITEGIC>MOL_PROPERTY
U+W
SciTegic.value.DoubleValue
-52.846

@<SCITEGIC>MOL_PROPERTY
Grad RMS
SciTegic.value.DoubleValue
0.000000

@<SCITEGIC>MOL_PROPERTY
U
SciTegic.value.DoubleValue
10.243

@<SCITEGIC>MOL_PROPERTY
W
SciTegic.value.DoubleValue
-63.089

@<SCITEGIC>MOL_PROPERTY
W(PB)
SciTegic.value.DoubleValue
-65.116

@<SCITEGIC>MOL_PROPERTY
W(SA)
SciTegic.value.DoubleValue
2.026

@<SCITEGIC>MOL_PROPERTY
Valence
SciTegic.value.DoubleValue
2.822

@<SCITEGIC>MOL_PROPERTY
Coulomb
SciTegic.value.DoubleValue
6.637

@<SCITEGIC>MOL_PROPERTY
VdW
SciTegic.value.DoubleValue
0.785

@<SCITEGIC>MOL_PROPERTY
VdW6
SciTegic.value.DoubleValue
-5.216

@<SCITEGIC>MOL_PROPERTY
VdW12
SciTegic.value.DoubleValue
6.001

@<SCITEGIC>MOL_PROPERTY
Bond
SciTegic.value.DoubleValue
0.080

@<SCITEGIC>MOL_PROPERTY
Angle
SciTegic.value.DoubleValue
2.678

@<SCITEGIC>MOL_PROPERTY
Pdih
SciTegic.value.DoubleValue
0.064

@<SCITEGIC>MOL_PROPERTY
Idih
SciTegic.value.DoubleValue
0.000

@<SCITEGIC>MOL_PROPERTY
Tether
SciTegic.value.DoubleValue
0.000

@<TRIPOS>MOLECULE
guest-s19_confgen4.mol2 : confsearch ligand conformer 837
          17          16           1
SMALL
USER_CHARGES
 
@<TRIPOS>ATOM
       1    C1      21.908214   20.779591   19.688940 C.2        1 MOL1         0.6173
       2    O1      21.587137   21.627818   18.879543 O.co2      1 MOL1        -0.6755
       3    O2      22.987981   20.219275   19.665585 O.co2      1 MOL1        -0.6755
       4    C2      20.921159   20.429219   20.745880 C.2        1 MOL1        -0.1504
       5    H1      19.976303   20.966669   20.709815 H          1 MOL1         0.0814
       6    C3      21.143228   19.505104   21.708056 C.2        1 MOL1        -0.1394
       7    H2      22.085405   18.959082   21.752062 H          1 MOL1         0.0817
       8    C4      20.133124   19.153110   22.778115 C.3        1 MOL1        -0.1849
       9    H3      19.608689   20.058800   23.112038 H          1 MOL1         0.0736
      10    H4      20.654001   18.751432   23.657734 H          1 MOL1         0.0736
      11    C5      19.110328   18.118068   22.266656 C.3        1 MOL1        -0.1866
      12    H5      18.585282   18.520125   21.389025 H          1 MOL1         0.0738
      13    H6      19.637064   17.212398   21.935174 H          1 MOL1         0.0738
      14    C6      18.082686   17.746821   23.354615 C.3        1 MOL1        -0.2879
      15    H7      18.579106   17.312257   24.232199 H          1 MOL1         0.0750
      16    H8      17.520043   18.631080   23.681654 H          1 MOL1         0.0750
      17    H9      17.364002   17.010187   22.972526 H          1 MOL1         0.0750
@<TRIPOS>BOND
    1     1     2    1
    2     1     3    2
    3     1     4    1
    4     4     5    1
    5     4     6    2
    6     6     7    1
    7     6     8    1
    8     8     9    1
    9     8    10    1
   10     8    11    1
   11    11    12    1
   12    11    13    1
   13    11    14    1
   14    14    15    1
   15    14    16    1
   16    14    17    1
@<TRIPOS>SUBSTRUCTURE
       1 MOL1            1 RESIDUE      1      MOL     
@<SCITEGIC>MOL_PROPERTY
VConf Rank
SciTegic.value.IntegerValue
837

@<SCITEGIC>MOL_PROPERTY
Conf_Id
SciTegic.value.IntegerValue
36

@<SCITEGIC>MOL_PROPERTY
Delta U+W
SciTegic.value.DoubleValue
0.000

@<SCITEGIC>MOL_PROPERTY
U+W
SciTegic.value.DoubleValue
-53.409

@<SCITEGIC>MOL_PROPERTY
Grad RMS
SciTegic.value.DoubleValue
0.000000

@<SCITEGIC>MOL_PROPERTY
U
SciTegic.value.DoubleValue
9.048

@<SCITEGIC>MOL_PROPERTY
W
SciTegic.value.DoubleValue
-62.457

@<SCITEGIC>MOL_PROPERTY
W(PB)
SciTegic.value.DoubleValue
-64.540

@<SCITEGIC>MOL_PROPERTY
W(SA)
SciTegic.value.DoubleValue
2.084

@<SCITEGIC>MOL_PROPERTY
Valence
SciTegic.value.DoubleValue
2.652

@<SCITEGIC>MOL_PROPERTY
Coulomb
SciTegic.value.DoubleValue
5.578

@<SCITEGIC>MOL_PROPERTY
VdW
SciTegic.value.DoubleValue
0.818

@<SCITEGIC>MOL_PROPERTY
VdW6
SciTegic.value.DoubleValue
-4.534

@<SCITEGIC>MOL_PROPERTY
VdW12
SciTegic.value.DoubleValue
5.352

@<SCITEGIC>MOL_PROPERTY
Bond
SciTegic.value.DoubleValue
0.063

@<SCITEGIC>MOL_PROPERTY
Angle
SciTegic.value.DoubleValue
2.579

@<SCITEGIC>MOL_PROPERTY
Pdih
SciTegic.value.DoubleValue
0.010

@<SCITEGIC>MOL_PROPERTY
Idih
SciTegic.value.DoubleValue
0.000

@<SCITEGIC>MOL_PROPERTY
Tether
SciTegic.value.DoubleValue
0.000

@<TRIPOS>MOLECULE
guest-s19_confgen4.mol2 : confsearch ligand conformer 838
          17          16           1
SMALL
USER_CHARGES
 
@<TRIPOS>ATOM
       1    C1      20.874104   22.248233   21.086494 C.2        1 MOL1         0.6173
       2    O1      22.030297   22.211137   20.709352 O.co2      1 MOL1        -0.6755
       3    O2      20.283546   23.288448   21.303059 O.co2      1 MOL1        -0.6755
       4    C2      20.128870   20.977726   21.297683 C.2        1 MOL1        -0.1504
       5    H1      19.100049   21.081398   21.634860 H          1 MOL1         0.0814
       6    C3      20.659859   19.750163   21.097122 C.2        1 MOL1        -0.1394
       7    H2      21.690290   19.634733   20.761472 H          1 MOL1         0.0817
       8    C4      19.895588   18.462841   21.316054 C.3        1 MOL1        -0.1849
       9    H3      20.332383   17.666249   20.698771 H          1 MOL1         0.0736
      10    H4      18.855735   18.582057   20.982439 H          1 MOL1         0.0736
      11    C5      19.921187   18.039377   22.798971 C.3        1 MOL1        -0.1866
      12    H5      20.962157   17.918679   23.129697 H          1 MOL1         0.0738
      13    H6      19.480729   18.833640   23.417602 H          1 MOL1         0.0738
      14    C6      19.152022   16.722940   23.028981 C.3        1 MOL1        -0.2879
      15    H7      19.592077   15.903573   22.445526 H          1 MOL1         0.0750
      16    H8      19.181303   16.438008   24.088738 H          1 MOL1         0.0750
      17    H9      18.099295   16.826531   22.734923 H          1 MOL1         0.0750
@<TRIPOS>BOND
    1     1     2    1
    2     1     3    2
    3     1     4    1
    4     4     5    1
    5     4     6    2
    6     6     7    1
    7     6     8    1
    8     8     9    1
    9     8    10    1
   10     8    11    1
   11    11    12    1
   12    11    13    1
   13    11    14    1
   14    14    15    1
   15    14    16    1
   16    14    17    1
@<TRIPOS>SUBSTRUCTURE
       1 MOL1            1 RESIDUE      1      MOL     
@<SCITEGIC>MOL_PROPERTY
VConf Rank
SciTegic.value.IntegerValue
838

@<SCITEGIC>MOL_PROPERTY
Conf_Id
SciTegic.value.IntegerValue
1

@<SCITEGIC>MOL_PROPERTY
Delta U+W
SciTegic.value.DoubleValue
0.030

@<SCITEGIC>MOL_PROPERTY
U+W
SciTegic.value.DoubleValue
-53.378

@<SCITEGIC>MOL_PROPERTY
Grad RMS
SciTegic.value.DoubleValue
0.000000

@<SCITEGIC>MOL_PROPERTY
U
SciTegic.value.DoubleValue
9.048

@<SCITEGIC>MOL_PROPERTY
W
SciTegic.value.DoubleValue
-62.426

@<SCITEGIC>MOL_PROPERTY
W(PB)
SciTegic.value.DoubleValue
-64.506

@<SCITEGIC>MOL_PROPERTY
W(SA)
SciTegic.value.DoubleValue
2.080

@<SCITEGIC>MOL_PROPERTY
Valence
SciTegic.value.DoubleValue
2.652

@<SCITEGIC>MOL_PROPERTY
Coulomb
SciTegic.value.DoubleValue
5.578

@<SCITEGIC>MOL_PROPERTY
VdW
SciTegic.value.DoubleValue
0.818

@<SCITEGIC>MOL_PROPERTY
VdW6
SciTegic.value.DoubleValue
-4.535

@<SCITEGIC>MOL_PROPERTY
VdW12
SciTegic.value.DoubleValue
5.352

@<SCITEGIC>MOL_PROPERTY
Bond
SciTegic.value.DoubleValue
0.063

@<SCITEGIC>MOL_PROPERTY
Angle
SciTegic.value.DoubleValue
2.579

@<SCITEGIC>MOL_PROPERTY
Pdih
SciTegic.value.DoubleValue
0.010

@<SCITEGIC>MOL_PROPERTY
Idih
SciTegic.value.DoubleValue
0.000

@<SCITEGIC>MOL_PROPERTY
Tether
SciTegic.value.DoubleValue
0.000

@<TRIPOS>MOLECULE
guest-s19_confgen4.mol2 : confsearch ligand conformer 839
          17          16           1
SMALL
USER_CHARGES
 
@<TRIPOS>ATOM
       1    C1      17.398937   20.689453   22.338667 C.2        1 MOL1         0.6173
       2    O1      17.697034   21.705906   21.740000 O.co2      1 MOL1        -0.6755
       3    O2      16.251221   20.398409   22.614083 O.co2      1 MOL1        -0.6755
       4    C2      18.468398   19.747277   22.766042 C.2        1 MOL1        -0.1504
       5    H1      18.134144   18.859112   23.297265 H          1 MOL1         0.0814
       6    C3      19.784967   19.942818   22.526468 C.2        1 MOL1        -0.1394
       7    H2      20.130561   20.827505   21.992154 H          1 MOL1         0.0817
       8    C4      20.867564   18.977396   22.961161 C.3        1 MOL1        -0.1849
       9    H3      20.643695   18.602484   23.969055 H          1 MOL1         0.0736
      10    H4      21.828400   19.504046   23.036838 H          1 MOL1         0.0736
      11    C5      21.009577   17.780209   21.995689 C.3        1 MOL1        -0.1866
      12    H5      21.730390   17.064561   22.414532 H          1 MOL1         0.0738
      13    H6      20.049949   17.250456   21.918856 H          1 MOL1         0.0738
      14    C6      21.481709   18.207231   20.589468 C.3        1 MOL1        -0.2879
      15    H7      22.446604   18.728295   20.640598 H          1 MOL1         0.0750
      16    H8      21.604035   17.330294   19.940680 H          1 MOL1         0.0750
      17    H9      20.754371   18.878345   20.114278 H          1 MOL1         0.0750
@<TRIPOS>BOND
    1     1     2    1
    2     1     3    2
    3     1     4    1
    4     4     5    1
    5     4     6    2
    6     6     7    1
    7     6     8    1
    8     8     9    1
    9     8    10    1
   10     8    11    1
   11    11    12    1
   12    11    13    1
   13    11    14    1
   14    14    15    1
   15    14    16    1
   16    14    17    1
@<TRIPOS>SUBSTRUCTURE
       1 MOL1            1 RESIDUE      1      MOL     
@<SCITEGIC>MOL_PROPERTY
VConf Rank
SciTegic.value.IntegerValue
839

@<SCITEGIC>MOL_PROPERTY
Conf_Id
SciTegic.value.IntegerValue
3

@<SCITEGIC>MOL_PROPERTY
Delta U+W
SciTegic.value.DoubleValue
0.531

@<SCITEGIC>MOL_PROPERTY
U+W
SciTegic.value.DoubleValue
-52.878

@<SCITEGIC>MOL_PROPERTY
Grad RMS
SciTegic.value.DoubleValue
0.000000

@<SCITEGIC>MOL_PROPERTY
U
SciTegic.value.DoubleValue
10.067

@<SCITEGIC>MOL_PROPERTY
W
SciTegic.value.DoubleValue
-62.945

@<SCITEGIC>MOL_PROPERTY
W(PB)
SciTegic.value.DoubleValue
-64.982

@<SCITEGIC>MOL_PROPERTY
W(SA)
SciTegic.value.DoubleValue
2.037

@<SCITEGIC>MOL_PROPERTY
Valence
SciTegic.value.DoubleValue
2.779

@<SCITEGIC>MOL_PROPERTY
Coulomb
SciTegic.value.DoubleValue
6.474

@<SCITEGIC>MOL_PROPERTY
VdW
SciTegic.value.DoubleValue
0.815

@<SCITEGIC>MOL_PROPERTY
VdW6
SciTegic.value.DoubleValue
-5.088

@<SCITEGIC>MOL_PROPERTY
VdW12
SciTegic.value.DoubleValue
5.902

@<SCITEGIC>MOL_PROPERTY
Bond
SciTegic.value.DoubleValue
0.078

@<SCITEGIC>MOL_PROPERTY
Angle
SciTegic.value.DoubleValue
2.651

@<SCITEGIC>MOL_PROPERTY
Pdih
SciTegic.value.DoubleValue
0.050

@<SCITEGIC>MOL_PROPERTY
Idih
SciTegic.value.DoubleValue
0.000

@<SCITEGIC>MOL_PROPERTY
Tether
SciTegic.value.DoubleValue
0.000

@<TRIPOS>MOLECULE
guest-s19_confgen4.mol2 : confsearch ligand conformer 840
          17          16           1
SMALL
USER_CHARGES
 
@<TRIPOS>ATOM
       1    C1      19.199269   18.928120   24.989313 C.2        1 MOL1         0.6173
       2    O1      19.434808   19.697628   25.900444 O.co2      1 MOL1        -0.6755
       3    O2      18.904152   17.761591   25.169769 O.co2      1 MOL1        -0.6755
       4    C2      19.278694   19.460491   23.602106 C.2        1 MOL1        -0.1504
       5    H1      19.547281   20.510478   23.512145 H          1 MOL1         0.0814
       6    C3      19.044571   18.718521   22.495647 C.2        1 MOL1        -0.1394
       7    H2      18.778516   17.664872   22.576622 H          1 MOL1         0.0817
       8    C4      19.128911   19.262679   21.084578 C.3        1 MOL1        -0.1849
       9    H3      19.095000   20.360653   21.091163 H          1 MOL1         0.0736
      10    H4      18.246279   18.933430   20.520162 H          1 MOL1         0.0736
      11    C5      20.400368   18.787228   20.348026 C.3        1 MOL1        -0.1866
      12    H5      20.436424   17.688986   20.343286 H          1 MOL1         0.0738
      13    H6      20.345542   19.103911   19.297358 H          1 MOL1         0.0738
      14    C6      21.694723   19.347632   20.975260 C.3        1 MOL1        -0.2879
      15    H7      21.817401   18.998683   22.008816 H          1 MOL1         0.0750
      16    H8      22.573289   19.021507   20.403743 H          1 MOL1         0.0750
      17    H9      21.683652   20.445313   20.983391 H          1 MOL1         0.0750
@<TRIPOS>BOND
    1     1     2    1
    2     1     3    2
    3     1     4    1
    4     4     5    1
    5     4     6    2
    6     6     7    1
    7     6     8    1
    8     8     9    1
    9     8    10    1
   10     8    11    1
   11    11    12    1
   12    11    13    1
   13    11    14    1
   14    14    15    1
   15    14    16    1
   16    14    17    1
@<TRIPOS>SUBSTRUCTURE
       1 MOL1            1 RESIDUE      1      MOL     
@<SCITEGIC>MOL_PROPERTY
VConf Rank
SciTegic.value.IntegerValue
840

@<SCITEGIC>MOL_PROPERTY
Conf_Id
SciTegic.value.IntegerValue
45

@<SCITEGIC>MOL_PROPERTY
Delta U+W
SciTegic.value.DoubleValue
0.562

@<SCITEGIC>MOL_PROPERTY
U+W
SciTegic.value.DoubleValue
-52.846

@<SCITEGIC>MOL_PROPERTY
Grad RMS
SciTegic.value.DoubleValue
0.000000

@<SCITEGIC>MOL_PROPERTY
U
SciTegic.value.DoubleValue
10.243

@<SCITEGIC>MOL_PROPERTY
W
SciTegic.value.DoubleValue
-63.089

@<SCITEGIC>MOL_PROPERTY
W(PB)
SciTegic.value.DoubleValue
-65.116

@<SCITEGIC>MOL_PROPERTY
W(SA)
SciTegic.value.DoubleValue
2.026

@<SCITEGIC>MOL_PROPERTY
Valence
SciTegic.value.DoubleValue
2.822

@<SCITEGIC>MOL_PROPERTY
Coulomb
SciTegic.value.DoubleValue
6.637

@<SCITEGIC>MOL_PROPERTY
VdW
SciTegic.value.DoubleValue
0.785

@<SCITEGIC>MOL_PROPERTY
VdW6
SciTegic.value.DoubleValue
-5.216

@<SCITEGIC>MOL_PROPERTY
VdW12
SciTegic.value.DoubleValue
6.001

@<SCITEGIC>MOL_PROPERTY
Bond
SciTegic.value.DoubleValue
0.080

@<SCITEGIC>MOL_PROPERTY
Angle
SciTegic.value.DoubleValue
2.678

@<SCITEGIC>MOL_PROPERTY
Pdih
SciTegic.value.DoubleValue
0.064

@<SCITEGIC>MOL_PROPERTY
Idih
SciTegic.value.DoubleValue
0.000

@<SCITEGIC>MOL_PROPERTY
Tether
SciTegic.value.DoubleValue
0.000

@<TRIPOS>MOLECULE
guest-s19_confgen4.mol2 : confsearch ligand conformer 841
          17          16           1
SMALL
USER_CHARGES
 
@<TRIPOS>ATOM
       1    C1      22.760506   18.332855   20.151748 C.2        1 MOL1         0.6173
       2    O1      22.976278   17.364898   19.448750 O.co2      1 MOL1        -0.6755
       3    O2      23.637492   19.093656   20.515715 O.co2      1 MOL1        -0.6755
       4    C2      21.354120   18.577936   20.571482 C.2        1 MOL1        -0.1504
       5    H1      20.619694   17.860860   20.211858 H          1 MOL1         0.0814
       6    C3      20.970108   19.613269   21.352318 C.2        1 MOL1        -0.1394
       7    H2      21.698009   20.336229   21.720096 H          1 MOL1         0.0817
       8    C4      19.537863   19.854126   21.776463 C.3        1 MOL1        -0.1849
       9    H3      18.855840   19.614443   20.949295 H          1 MOL1         0.0736
      10    H4      19.394884   20.919843   22.000502 H          1 MOL1         0.0736
      11    C5      19.169592   19.012349   23.015334 C.3        1 MOL1        -0.1866
      12    H5      19.308093   17.945455   22.791470 H          1 MOL1         0.0738
      13    H6      19.851783   19.255321   23.841862 H          1 MOL1         0.0738
      14    C6      17.713906   19.259250   23.459793 C.3        1 MOL1        -0.2879
      15    H7      17.556141   20.314032   23.720514 H          1 MOL1         0.0750
      16    H8      17.008931   18.994264   22.660900 H          1 MOL1         0.0750
      17    H9      17.470513   18.652249   24.341519 H          1 MOL1         0.0750
@<TRIPOS>BOND
    1     1     2    1
    2     1     3    2
    3     1     4    1
    4     4     5    1
    5     4     6    2
    6     6     7    1
    7     6     8    1
    8     8     9    1
    9     8    10    1
   10     8    11    1
   11    11    12    1
   12    11    13    1
   13    11    14    1
   14    14    15    1
   15    14    16    1
   16    14    17    1
@<TRIPOS>SUBSTRUCTURE
       1 MOL1            1 RESIDUE      1      MOL     
@<SCITEGIC>MOL_PROPERTY
VConf Rank
SciTegic.value.IntegerValue
841

@<SCITEGIC>MOL_PROPERTY
Conf_Id
SciTegic.value.IntegerValue
36

@<SCITEGIC>MOL_PROPERTY
Delta U+W
SciTegic.value.DoubleValue
0.000

@<SCITEGIC>MOL_PROPERTY
U+W
SciTegic.value.DoubleValue
-53.409

@<SCITEGIC>MOL_PROPERTY
Grad RMS
SciTegic.value.DoubleValue
0.000000

@<SCITEGIC>MOL_PROPERTY
U
SciTegic.value.DoubleValue
9.048

@<SCITEGIC>MOL_PROPERTY
W
SciTegic.value.DoubleValue
-62.457

@<SCITEGIC>MOL_PROPERTY
W(PB)
SciTegic.value.DoubleValue
-64.540

@<SCITEGIC>MOL_PROPERTY
W(SA)
SciTegic.value.DoubleValue
2.084

@<SCITEGIC>MOL_PROPERTY
Valence
SciTegic.value.DoubleValue
2.652

@<SCITEGIC>MOL_PROPERTY
Coulomb
SciTegic.value.DoubleValue
5.578

@<SCITEGIC>MOL_PROPERTY
VdW
SciTegic.value.DoubleValue
0.818

@<SCITEGIC>MOL_PROPERTY
VdW6
SciTegic.value.DoubleValue
-4.534

@<SCITEGIC>MOL_PROPERTY
VdW12
SciTegic.value.DoubleValue
5.352

@<SCITEGIC>MOL_PROPERTY
Bond
SciTegic.value.DoubleValue
0.063

@<SCITEGIC>MOL_PROPERTY
Angle
SciTegic.value.DoubleValue
2.579

@<SCITEGIC>MOL_PROPERTY
Pdih
SciTegic.value.DoubleValue
0.010

@<SCITEGIC>MOL_PROPERTY
Idih
SciTegic.value.DoubleValue
0.000

@<SCITEGIC>MOL_PROPERTY
Tether
SciTegic.value.DoubleValue
0.000

@<TRIPOS>MOLECULE
guest-s19_confgen4.mol2 : confsearch ligand conformer 842
          17          16           1
SMALL
USER_CHARGES
 
@<TRIPOS>ATOM
       1    C1      20.214874   15.860452   22.854930 C.2        1 MOL1         0.6173
       2    O1      21.363675   15.665981   23.205405 O.co2      1 MOL1        -0.6755
       3    O2      19.412373   14.961459   22.695209 O.co2      1 MOL1        -0.6755
       4    C2      19.747867   17.251197   22.606145 C.2        1 MOL1        -0.1504
       5    H1      18.710700   17.355172   22.295689 H          1 MOL1         0.0814
       6    C3      20.531125   18.345181   22.743227 C.2        1 MOL1        -0.1394
       7    H2      21.572295   18.252292   23.051627 H          1 MOL1         0.0817
       8    C4      20.048825   19.756091   22.486402 C.3        1 MOL1        -0.1849
       9    H3      20.661727   20.464434   23.059978 H          1 MOL1         0.0736
      10    H4      19.017590   19.871927   22.846878 H          1 MOL1         0.0736
      11    C5      20.118811   20.109635   20.986694 C.3        1 MOL1        -0.1866
      12    H5      21.151536   19.995116   20.629018 H          1 MOL1         0.0738
      13    H6      19.502780   19.404293   20.411752 H          1 MOL1         0.0738
      14    C6      19.637529   21.549608   20.717677 C.3        1 MOL1        -0.2879
      15    H7      20.257403   22.278260   21.256428 H          1 MOL1         0.0750
      16    H8      19.694554   21.782662   19.646432 H          1 MOL1         0.0750
      17    H9      18.595826   21.681972   21.038253 H          1 MOL1         0.0750
@<TRIPOS>BOND
    1     1     2    1
    2     1     3    2
    3     1     4    1
    4     4     5    1
    5     4     6    2
    6     6     7    1
    7     6     8    1
    8     8     9    1
    9     8    10    1
   10     8    11    1
   11    11    12    1
   12    11    13    1
   13    11    14    1
   14    14    15    1
   15    14    16    1
   16    14    17    1
@<TRIPOS>SUBSTRUCTURE
       1 MOL1            1 RESIDUE      1      MOL     
@<SCITEGIC>MOL_PROPERTY
VConf Rank
SciTegic.value.IntegerValue
842

@<SCITEGIC>MOL_PROPERTY
Conf_Id
SciTegic.value.IntegerValue
1

@<SCITEGIC>MOL_PROPERTY
Delta U+W
SciTegic.value.DoubleValue
0.030

@<SCITEGIC>MOL_PROPERTY
U+W
SciTegic.value.DoubleValue
-53.378

@<SCITEGIC>MOL_PROPERTY
Grad RMS
SciTegic.value.DoubleValue
0.000000

@<SCITEGIC>MOL_PROPERTY
U
SciTegic.value.DoubleValue
9.048

@<SCITEGIC>MOL_PROPERTY
W
SciTegic.value.DoubleValue
-62.426

@<SCITEGIC>MOL_PROPERTY
W(PB)
SciTegic.value.DoubleValue
-64.506

@<SCITEGIC>MOL_PROPERTY
W(SA)
SciTegic.value.DoubleValue
2.080

@<SCITEGIC>MOL_PROPERTY
Valence
SciTegic.value.DoubleValue
2.652

@<SCITEGIC>MOL_PROPERTY
Coulomb
SciTegic.value.DoubleValue
5.578

@<SCITEGIC>MOL_PROPERTY
VdW
SciTegic.value.DoubleValue
0.818

@<SCITEGIC>MOL_PROPERTY
VdW6
SciTegic.value.DoubleValue
-4.535

@<SCITEGIC>MOL_PROPERTY
VdW12
SciTegic.value.DoubleValue
5.352

@<SCITEGIC>MOL_PROPERTY
Bond
SciTegic.value.DoubleValue
0.063

@<SCITEGIC>MOL_PROPERTY
Angle
SciTegic.value.DoubleValue
2.579

@<SCITEGIC>MOL_PROPERTY
Pdih
SciTegic.value.DoubleValue
0.010

@<SCITEGIC>MOL_PROPERTY
Idih
SciTegic.value.DoubleValue
0.000

@<SCITEGIC>MOL_PROPERTY
Tether
SciTegic.value.DoubleValue
0.000

@<TRIPOS>MOLECULE
guest-s19_confgen4.mol2 : confsearch ligand conformer 843
          17          16           1
SMALL
USER_CHARGES
 
@<TRIPOS>ATOM
       1    C1      20.096310   17.905838   24.895795 C.2        1 MOL1         0.6173
       2    O1      18.935717   17.563499   25.023338 O.co2      1 MOL1        -0.6755
       3    O2      20.984064   17.514204   25.628138 O.co2      1 MOL1        -0.6755
       4    C2      20.469806   18.846973   23.805448 C.2        1 MOL1        -0.1504
       5    H1      21.522776   19.112849   23.747793 H          1 MOL1         0.0814
       6    C3      19.587811   19.360556   22.918146 C.2        1 MOL1        -0.1394
       7    H2      18.531105   19.098249   22.964684 H          1 MOL1         0.0817
       8    C4      19.976017   20.315006   21.808490 C.3        1 MOL1        -0.1849
       9    H3      20.709348   21.040284   22.186277 H          1 MOL1         0.0736
      10    H4      19.100255   20.899580   21.496065 H          1 MOL1         0.0736
      11    C5      20.571458   19.583309   20.585530 C.3        1 MOL1        -0.1866
      12    H5      20.930000   20.327577   19.861193 H          1 MOL1         0.0738
      13    H6      21.448776   18.998426   20.894809 H          1 MOL1         0.0738
      14    C6      19.547628   18.658326   19.893510 C.3        1 MOL1        -0.2879
      15    H7      18.666628   19.224502   19.564224 H          1 MOL1         0.0750
      16    H8      19.993284   18.181351   19.011017 H          1 MOL1         0.0750
      17    H9      19.210573   17.863270   20.571375 H          1 MOL1         0.0750
@<TRIPOS>BOND
    1     1     2    1
    2     1     3    2
    3     1     4    1
    4     4     5    1
    5     4     6    2
    6     6     7    1
    7     6     8    1
    8     8     9    1
    9     8    10    1
   10     8    11    1
   11    11    12    1
   12    11    13    1
   13    11    14    1
   14    14    15    1
   15    14    16    1
   16    14    17    1
@<TRIPOS>SUBSTRUCTURE
       1 MOL1            1 RESIDUE      1      MOL     
@<SCITEGIC>MOL_PROPERTY
VConf Rank
SciTegic.value.IntegerValue
843

@<SCITEGIC>MOL_PROPERTY
Conf_Id
SciTegic.value.IntegerValue
3

@<SCITEGIC>MOL_PROPERTY
Delta U+W
SciTegic.value.DoubleValue
0.531

@<SCITEGIC>MOL_PROPERTY
U+W
SciTegic.value.DoubleValue
-52.878

@<SCITEGIC>MOL_PROPERTY
Grad RMS
SciTegic.value.DoubleValue
0.000000

@<SCITEGIC>MOL_PROPERTY
U
SciTegic.value.DoubleValue
10.067

@<SCITEGIC>MOL_PROPERTY
W
SciTegic.value.DoubleValue
-62.945

@<SCITEGIC>MOL_PROPERTY
W(PB)
SciTegic.value.DoubleValue
-64.982

@<SCITEGIC>MOL_PROPERTY
W(SA)
SciTegic.value.DoubleValue
2.037

@<SCITEGIC>MOL_PROPERTY
Valence
SciTegic.value.DoubleValue
2.779

@<SCITEGIC>MOL_PROPERTY
Coulomb
SciTegic.value.DoubleValue
6.474

@<SCITEGIC>MOL_PROPERTY
VdW
SciTegic.value.DoubleValue
0.815

@<SCITEGIC>MOL_PROPERTY
VdW6
SciTegic.value.DoubleValue
-5.088

@<SCITEGIC>MOL_PROPERTY
VdW12
SciTegic.value.DoubleValue
5.902

@<SCITEGIC>MOL_PROPERTY
Bond
SciTegic.value.DoubleValue
0.078

@<SCITEGIC>MOL_PROPERTY
Angle
SciTegic.value.DoubleValue
2.651

@<SCITEGIC>MOL_PROPERTY
Pdih
SciTegic.value.DoubleValue
0.050

@<SCITEGIC>MOL_PROPERTY
Idih
SciTegic.value.DoubleValue
0.000

@<SCITEGIC>MOL_PROPERTY
Tether
SciTegic.value.DoubleValue
0.000

@<TRIPOS>MOLECULE
guest-s19_confgen4.mol2 : confsearch ligand conformer 844
          17          16           1
SMALL
USER_CHARGES
 
@<TRIPOS>ATOM
       1    C1      21.649730   20.499624   19.988543 C.2        1 MOL1         0.6173
       2    O1      22.085412   21.634463   19.978425 O.co2      1 MOL1        -0.6755
       3    O2      21.516865   19.834263   18.978548 O.co2      1 MOL1        -0.6755
       4    C2      21.272486   19.919923   21.306004 C.2        1 MOL1        -0.1504
       5    H1      21.416494   20.567809   22.167522 H          1 MOL1         0.0814
       6    C3      20.773676   18.672795   21.465519 C.2        1 MOL1        -0.1394
       7    H2      20.622782   18.018411   20.607305 H          1 MOL1         0.0817
       8    C4      20.387958   18.086425   22.807804 C.3        1 MOL1        -0.1849
       9    H3      20.841868   18.662215   23.625833 H          1 MOL1         0.0736
      10    H4      20.797276   17.070375   22.885972 H          1 MOL1         0.0736
      11    C5      18.857130   18.026018   23.002956 C.3        1 MOL1        -0.1866
      12    H5      18.401989   17.452433   22.183624 H          1 MOL1         0.0738
      13    H6      18.635228   17.479277   23.929796 H          1 MOL1         0.0738
      14    C6      18.212302   19.426485   23.078585 C.3        1 MOL1        -0.2879
      15    H7      18.358098   19.980825   22.142367 H          1 MOL1         0.0750
      16    H8      17.132207   19.345091   23.256449 H          1 MOL1         0.0750
      17    H9      18.647377   20.015288   23.896578 H          1 MOL1         0.0750
@<TRIPOS>BOND
    1     1     2    1
    2     1     3    2
    3     1     4    1
    4     4     5    1
    5     4     6    2
    6     6     7    1
    7     6     8    1
    8     8     9    1
    9     8    10    1
   10     8    11    1
   11    11    12    1
   12    11    13    1
   13    11    14    1
   14    14    15    1
   15    14    16    1
   16    14    17    1
@<TRIPOS>SUBSTRUCTURE
       1 MOL1            1 RESIDUE      1      MOL     
@<SCITEGIC>MOL_PROPERTY
VConf Rank
SciTegic.value.IntegerValue
844

@<SCITEGIC>MOL_PROPERTY
Conf_Id
SciTegic.value.IntegerValue
45

@<SCITEGIC>MOL_PROPERTY
Delta U+W
SciTegic.value.DoubleValue
0.562

@<SCITEGIC>MOL_PROPERTY
U+W
SciTegic.value.DoubleValue
-52.846

@<SCITEGIC>MOL_PROPERTY
Grad RMS
SciTegic.value.DoubleValue
0.000000

@<SCITEGIC>MOL_PROPERTY
U
SciTegic.value.DoubleValue
10.243

@<SCITEGIC>MOL_PROPERTY
W
SciTegic.value.DoubleValue
-63.089

@<SCITEGIC>MOL_PROPERTY
W(PB)
SciTegic.value.DoubleValue
-65.116

@<SCITEGIC>MOL_PROPERTY
W(SA)
SciTegic.value.DoubleValue
2.026

@<SCITEGIC>MOL_PROPERTY
Valence
SciTegic.value.DoubleValue
2.822

@<SCITEGIC>MOL_PROPERTY
Coulomb
SciTegic.value.DoubleValue
6.637

@<SCITEGIC>MOL_PROPERTY
VdW
SciTegic.value.DoubleValue
0.785

@<SCITEGIC>MOL_PROPERTY
VdW6
SciTegic.value.DoubleValue
-5.216

@<SCITEGIC>MOL_PROPERTY
VdW12
SciTegic.value.DoubleValue
6.001

@<SCITEGIC>MOL_PROPERTY
Bond
SciTegic.value.DoubleValue
0.080

@<SCITEGIC>MOL_PROPERTY
Angle
SciTegic.value.DoubleValue
2.678

@<SCITEGIC>MOL_PROPERTY
Pdih
SciTegic.value.DoubleValue
0.064

@<SCITEGIC>MOL_PROPERTY
Idih
SciTegic.value.DoubleValue
0.000

@<SCITEGIC>MOL_PROPERTY
Tether
SciTegic.value.DoubleValue
0.000

@<TRIPOS>MOLECULE
guest-s19_confgen4.mol2 : confsearch ligand conformer 845
          17          16           1
SMALL
USER_CHARGES
 
@<TRIPOS>ATOM
       1    C1      21.359287   16.052216   22.251803 C.2        1 MOL1         0.6173
       2    O1      21.761306   15.495438   23.254839 O.co2      1 MOL1        -0.6755
       3    O2      21.602613   15.649113   21.129887 O.co2      1 MOL1        -0.6755
       4    C2      20.534229   17.277719   22.429527 C.2        1 MOL1        -0.1504
       5    H1      20.354152   17.583646   23.457579 H          1 MOL1         0.0814
       6    C3      20.022960   17.997287   21.404876 C.2        1 MOL1        -0.1394
       7    H2      20.199209   17.701090   20.370963 H          1 MOL1         0.0817
       8    C4      19.186596   19.243832   21.594234 C.3        1 MOL1        -0.1849
       9    H3      18.518794   19.120466   22.457733 H          1 MOL1         0.0736
      10    H4      18.540609   19.389939   20.718026 H          1 MOL1         0.0736
      11    C5      20.072956   20.489971   21.795531 C.3        1 MOL1        -0.1866
      12    H5      20.716982   20.347124   22.674385 H          1 MOL1         0.0738
      13    H6      20.738508   20.612403   20.929725 H          1 MOL1         0.0738
      14    C6      19.227964   21.766502   21.979880 C.3        1 MOL1        -0.2879
      15    H7      18.597096   21.950612   21.100369 H          1 MOL1         0.0750
      16    H8      18.575164   21.681992   22.858598 H          1 MOL1         0.0750
      17    H9      19.875326   22.641688   22.121664 H          1 MOL1         0.0750
@<TRIPOS>BOND
    1     1     2    1
    2     1     3    2
    3     1     4    1
    4     4     5    1
    5     4     6    2
    6     6     7    1
    7     6     8    1
    8     8     9    1
    9     8    10    1
   10     8    11    1
   11    11    12    1
   12    11    13    1
   13    11    14    1
   14    14    15    1
   15    14    16    1
   16    14    17    1
@<TRIPOS>SUBSTRUCTURE
       1 MOL1            1 RESIDUE      1      MOL     
@<SCITEGIC>MOL_PROPERTY
VConf Rank
SciTegic.value.IntegerValue
845

@<SCITEGIC>MOL_PROPERTY
Conf_Id
SciTegic.value.IntegerValue
36

@<SCITEGIC>MOL_PROPERTY
Delta U+W
SciTegic.value.DoubleValue
0.000

@<SCITEGIC>MOL_PROPERTY
U+W
SciTegic.value.DoubleValue
-53.409

@<SCITEGIC>MOL_PROPERTY
Grad RMS
SciTegic.value.DoubleValue
0.000000

@<SCITEGIC>MOL_PROPERTY
U
SciTegic.value.DoubleValue
9.048

@<SCITEGIC>MOL_PROPERTY
W
SciTegic.value.DoubleValue
-62.457

@<SCITEGIC>MOL_PROPERTY
W(PB)
SciTegic.value.DoubleValue
-64.540

@<SCITEGIC>MOL_PROPERTY
W(SA)
SciTegic.value.DoubleValue
2.084

@<SCITEGIC>MOL_PROPERTY
Valence
SciTegic.value.DoubleValue
2.652

@<SCITEGIC>MOL_PROPERTY
Coulomb
SciTegic.value.DoubleValue
5.578

@<SCITEGIC>MOL_PROPERTY
VdW
SciTegic.value.DoubleValue
0.818

@<SCITEGIC>MOL_PROPERTY
VdW6
SciTegic.value.DoubleValue
-4.534

@<SCITEGIC>MOL_PROPERTY
VdW12
SciTegic.value.DoubleValue
5.352

@<SCITEGIC>MOL_PROPERTY
Bond
SciTegic.value.DoubleValue
0.063

@<SCITEGIC>MOL_PROPERTY
Angle
SciTegic.value.DoubleValue
2.579

@<SCITEGIC>MOL_PROPERTY
Pdih
SciTegic.value.DoubleValue
0.010

@<SCITEGIC>MOL_PROPERTY
Idih
SciTegic.value.DoubleValue
0.000

@<SCITEGIC>MOL_PROPERTY
Tether
SciTegic.value.DoubleValue
0.000

@<TRIPOS>MOLECULE
guest-s19_confgen4.mol2 : confsearch ligand conformer 846
          17          16           1
SMALL
USER_CHARGES
 
@<TRIPOS>ATOM
       1    C1      22.600473   19.000987   19.750389 C.2        1 MOL1         0.6173
       2    O1      22.927261   17.834083   19.641127 O.co2      1 MOL1        -0.6755
       3    O2      23.265146   19.916890   19.306500 O.co2      1 MOL1        -0.6755
       4    C2      21.335202   19.347138   20.452836 C.2        1 MOL1        -0.1504
       5    H1      21.101924   20.407596   20.515426 H          1 MOL1         0.0814
       6    C3      20.499985   18.432436   20.995810 C.2        1 MOL1        -0.1394
       7    H2      20.725116   17.367514   20.940761 H          1 MOL1         0.0817
       8    C4      19.215920   18.793034   21.710223 C.3        1 MOL1        -0.1849
       9    H3      18.519792   17.944590   21.666229 H          1 MOL1         0.0736
      10    H4      18.722340   19.629194   21.196394 H          1 MOL1         0.0736
      11    C5      19.478710   19.169195   23.182793 C.3        1 MOL1        -0.1866
      12    H5      19.970433   18.330567   23.695120 H          1 MOL1         0.0738
      13    H6      20.171894   20.020644   23.228508 H          1 MOL1         0.0738
      14    C6      18.173488   19.529182   23.920581 C.3        1 MOL1        -0.2879
      15    H7      17.473972   18.682957   23.917297 H          1 MOL1         0.0750
      16    H8      18.380351   19.793693   24.965747 H          1 MOL1         0.0750
      17    H9      17.677484   20.386032   23.446003 H          1 MOL1         0.0750
@<TRIPOS>BOND
    1     1     2    1
    2     1     3    2
    3     1     4    1
    4     4     5    1
    5     4     6    2
    6     6     7    1
    7     6     8    1
    8     8     9    1
    9     8    10    1
   10     8    11    1
   11    11    12    1
   12    11    13    1
   13    11    14    1
   14    14    15    1
   15    14    16    1
   16    14    17    1
@<TRIPOS>SUBSTRUCTURE
       1 MOL1            1 RESIDUE      1      MOL     
@<SCITEGIC>MOL_PROPERTY
VConf Rank
SciTegic.value.IntegerValue
846

@<SCITEGIC>MOL_PROPERTY
Conf_Id
SciTegic.value.IntegerValue
1

@<SCITEGIC>MOL_PROPERTY
Delta U+W
SciTegic.value.DoubleValue
0.030

@<SCITEGIC>MOL_PROPERTY
U+W
SciTegic.value.DoubleValue
-53.378

@<SCITEGIC>MOL_PROPERTY
Grad RMS
SciTegic.value.DoubleValue
0.000000

@<SCITEGIC>MOL_PROPERTY
U
SciTegic.value.DoubleValue
9.048

@<SCITEGIC>MOL_PROPERTY
W
SciTegic.value.DoubleValue
-62.426

@<SCITEGIC>MOL_PROPERTY
W(PB)
SciTegic.value.DoubleValue
-64.506

@<SCITEGIC>MOL_PROPERTY
W(SA)
SciTegic.value.DoubleValue
2.080

@<SCITEGIC>MOL_PROPERTY
Valence
SciTegic.value.DoubleValue
2.652

@<SCITEGIC>MOL_PROPERTY
Coulomb
SciTegic.value.DoubleValue
5.578

@<SCITEGIC>MOL_PROPERTY
VdW
SciTegic.value.DoubleValue
0.818

@<SCITEGIC>MOL_PROPERTY
VdW6
SciTegic.value.DoubleValue
-4.535

@<SCITEGIC>MOL_PROPERTY
VdW12
SciTegic.value.DoubleValue
5.352

@<SCITEGIC>MOL_PROPERTY
Bond
SciTegic.value.DoubleValue
0.063

@<SCITEGIC>MOL_PROPERTY
Angle
SciTegic.value.DoubleValue
2.579

@<SCITEGIC>MOL_PROPERTY
Pdih
SciTegic.value.DoubleValue
0.010

@<SCITEGIC>MOL_PROPERTY
Idih
SciTegic.value.DoubleValue
0.000

@<SCITEGIC>MOL_PROPERTY
Tether
SciTegic.value.DoubleValue
0.000

@<TRIPOS>MOLECULE
guest-s19_confgen4.mol2 : confsearch ligand conformer 847
          17          16           1
SMALL
USER_CHARGES
 
@<TRIPOS>ATOM
       1    C1      21.085539   17.645667   19.544850 C.2        1 MOL1         0.6173
       2    O1      22.052570   18.338456   19.289241 O.co2      1 MOL1        -0.6755
       3    O2      20.920161   16.540806   19.065535 O.co2      1 MOL1        -0.6755
       4    C2      20.044393   18.152284   20.479433 C.2        1 MOL1        -0.1504
       5    H1      19.206410   17.484074   20.663934 H          1 MOL1         0.0814
       6    C3      20.099201   19.359908   21.085754 C.2        1 MOL1        -0.1394
       7    H2      20.935870   20.035869   20.910659 H          1 MOL1         0.0817
       8    C4      19.037548   19.867229   22.038925 C.3        1 MOL1        -0.1849
       9    H3      18.042618   19.598447   21.658930 H          1 MOL1         0.0736
      10    H4      19.064457   20.964544   22.077252 H          1 MOL1         0.0736
      11    C5      19.206264   19.296492   23.464181 C.3        1 MOL1        -0.1866
      12    H5      18.353599   19.612438   24.080861 H          1 MOL1         0.0738
      13    H6      19.178507   18.198569   23.429220 H          1 MOL1         0.0738
      14    C6      20.515271   19.762279   24.136679 C.3        1 MOL1        -0.2879
      15    H7      20.559127   20.857697   24.193966 H          1 MOL1         0.0750
      16    H8      20.586480   19.366347   25.157990 H          1 MOL1         0.0750
      17    H9      21.393542   19.412692   23.578423 H          1 MOL1         0.0750
@<TRIPOS>BOND
    1     1     2    1
    2     1     3    2
    3     1     4    1
    4     4     5    1
    5     4     6    2
    6     6     7    1
    7     6     8    1
    8     8     9    1
    9     8    10    1
   10     8    11    1
   11    11    12    1
   12    11    13    1
   13    11    14    1
   14    14    15    1
   15    14    16    1
   16    14    17    1
@<TRIPOS>SUBSTRUCTURE
       1 MOL1            1 RESIDUE      1      MOL     
@<SCITEGIC>MOL_PROPERTY
VConf Rank
SciTegic.value.IntegerValue
847

@<SCITEGIC>MOL_PROPERTY
Conf_Id
SciTegic.value.IntegerValue
3

@<SCITEGIC>MOL_PROPERTY
Delta U+W
SciTegic.value.DoubleValue
0.531

@<SCITEGIC>MOL_PROPERTY
U+W
SciTegic.value.DoubleValue
-52.878

@<SCITEGIC>MOL_PROPERTY
Grad RMS
SciTegic.value.DoubleValue
0.000000

@<SCITEGIC>MOL_PROPERTY
U
SciTegic.value.DoubleValue
10.067

@<SCITEGIC>MOL_PROPERTY
W
SciTegic.value.DoubleValue
-62.945

@<SCITEGIC>MOL_PROPERTY
W(PB)
SciTegic.value.DoubleValue
-64.982

@<SCITEGIC>MOL_PROPERTY
W(SA)
SciTegic.value.DoubleValue
2.037

@<SCITEGIC>MOL_PROPERTY
Valence
SciTegic.value.DoubleValue
2.779

@<SCITEGIC>MOL_PROPERTY
Coulomb
SciTegic.value.DoubleValue
6.474

@<SCITEGIC>MOL_PROPERTY
VdW
SciTegic.value.DoubleValue
0.815

@<SCITEGIC>MOL_PROPERTY
VdW6
SciTegic.value.DoubleValue
-5.088

@<SCITEGIC>MOL_PROPERTY
VdW12
SciTegic.value.DoubleValue
5.902

@<SCITEGIC>MOL_PROPERTY
Bond
SciTegic.value.DoubleValue
0.078

@<SCITEGIC>MOL_PROPERTY
Angle
SciTegic.value.DoubleValue
2.651

@<SCITEGIC>MOL_PROPERTY
Pdih
SciTegic.value.DoubleValue
0.050

@<SCITEGIC>MOL_PROPERTY
Idih
SciTegic.value.DoubleValue
0.000

@<SCITEGIC>MOL_PROPERTY
Tether
SciTegic.value.DoubleValue
0.000

@<TRIPOS>MOLECULE
guest-s19_confgen4.mol2 : confsearch ligand conformer 848
          17          16           1
SMALL
USER_CHARGES
 
@<TRIPOS>ATOM
       1    C1      21.240492   17.270804   24.120508 C.2        1 MOL1         0.6173
       2    O1      20.969452   17.118054   25.295662 O.co2      1 MOL1        -0.6755
       3    O2      22.317165   16.961568   23.645539 O.co2      1 MOL1        -0.6755
       4    C2      20.192310   17.860560   23.244394 C.2        1 MOL1        -0.1504
       5    H1      19.254108   18.113880   23.732565 H          1 MOL1         0.0814
       6    C3      20.356773   18.088648   21.921324 C.2        1 MOL1        -0.1394
       7    H2      21.294849   17.841208   21.425032 H          1 MOL1         0.0817
       8    C4      19.288731   18.691752   21.032568 C.3        1 MOL1        -0.1849
       9    H3      18.303555   18.627455   21.514267 H          1 MOL1         0.0736
      10    H4      19.215993   18.102021   20.109023 H          1 MOL1         0.0736
      11    C5      19.592171   20.161002   20.665971 C.3        1 MOL1        -0.1866
      12    H5      20.578680   20.226581   20.186431 H          1 MOL1         0.0738
      13    H6      18.858792   20.503912   19.923162 H          1 MOL1         0.0738
      14    C6      19.545104   21.100437   21.889931 C.3        1 MOL1        -0.2879
      15    H7      20.310180   20.827627   22.628366 H          1 MOL1         0.0750
      16    H8      19.726316   22.139566   21.586222 H          1 MOL1         0.0750
      17    H9      18.564208   21.056646   22.380866 H          1 MOL1         0.0750
@<TRIPOS>BOND
    1     1     2    1
    2     1     3    2
    3     1     4    1
    4     4     5    1
    5     4     6    2
    6     6     7    1
    7     6     8    1
    8     8     9    1
    9     8    10    1
   10     8    11    1
   11    11    12    1
   12    11    13    1
   13    11    14    1
   14    14    15    1
   15    14    16    1
   16    14    17    1
@<TRIPOS>SUBSTRUCTURE
       1 MOL1            1 RESIDUE      1      MOL     
@<SCITEGIC>MOL_PROPERTY
VConf Rank
SciTegic.value.IntegerValue
848

@<SCITEGIC>MOL_PROPERTY
Conf_Id
SciTegic.value.IntegerValue
45

@<SCITEGIC>MOL_PROPERTY
Delta U+W
SciTegic.value.DoubleValue
0.562

@<SCITEGIC>MOL_PROPERTY
U+W
SciTegic.value.DoubleValue
-52.846

@<SCITEGIC>MOL_PROPERTY
Grad RMS
SciTegic.value.DoubleValue
0.000000

@<SCITEGIC>MOL_PROPERTY
U
SciTegic.value.DoubleValue
10.243

@<SCITEGIC>MOL_PROPERTY
W
SciTegic.value.DoubleValue
-63.089

@<SCITEGIC>MOL_PROPERTY
W(PB)
SciTegic.value.DoubleValue
-65.116

@<SCITEGIC>MOL_PROPERTY
W(SA)
SciTegic.value.DoubleValue
2.026

@<SCITEGIC>MOL_PROPERTY
Valence
SciTegic.value.DoubleValue
2.822

@<SCITEGIC>MOL_PROPERTY
Coulomb
SciTegic.value.DoubleValue
6.637

@<SCITEGIC>MOL_PROPERTY
VdW
SciTegic.value.DoubleValue
0.785

@<SCITEGIC>MOL_PROPERTY
VdW6
SciTegic.value.DoubleValue
-5.216

@<SCITEGIC>MOL_PROPERTY
VdW12
SciTegic.value.DoubleValue
6.001

@<SCITEGIC>MOL_PROPERTY
Bond
SciTegic.value.DoubleValue
0.080

@<SCITEGIC>MOL_PROPERTY
Angle
SciTegic.value.DoubleValue
2.678

@<SCITEGIC>MOL_PROPERTY
Pdih
SciTegic.value.DoubleValue
0.064

@<SCITEGIC>MOL_PROPERTY
Idih
SciTegic.value.DoubleValue
0.000

@<SCITEGIC>MOL_PROPERTY
Tether
SciTegic.value.DoubleValue
0.000

@<TRIPOS>MOLECULE
guest-s19_confgen4.mol2 : confsearch ligand conformer 849
          17          16           1
SMALL
USER_CHARGES
 
@<TRIPOS>ATOM
       1    C1      21.543383   17.275155   24.275666 C.2        1 MOL1         0.6173
       2    O1      22.656703   17.406076   24.745858 O.co2      1 MOL1        -0.6755
       3    O2      20.869584   16.275701   24.441435 O.co2      1 MOL1        -0.6755
       4    C2      21.001933   18.400672   23.466837 C.2        1 MOL1        -0.1504
       5    H1      21.654722   19.263728   23.357707 H          1 MOL1         0.0814
       6    C3      19.781387   18.391408   22.884371 C.2        1 MOL1        -0.1394
       7    H2      19.120221   17.530918   22.985318 H          1 MOL1         0.0817
       8    C4      19.239096   19.539461   22.061490 C.3        1 MOL1        -0.1849
       9    H3      19.534876   20.496859   22.511726 H          1 MOL1         0.0736
      10    H4      18.141095   19.514373   22.073815 H          1 MOL1         0.0736
      11    C5      19.740560   19.472486   20.604417 C.3        1 MOL1        -0.1866
      12    H5      20.838968   19.501728   20.590082 H          1 MOL1         0.0738
      13    H6      19.441760   18.514946   20.155635 H          1 MOL1         0.0738
      14    C6      19.184614   20.634164   19.756506 C.3        1 MOL1        -0.2879
      15    H7      18.087340   20.609720   19.727808 H          1 MOL1         0.0750
      16    H8      19.495465   21.603897   20.166902 H          1 MOL1         0.0750
      17    H9      19.552046   20.569743   18.724046 H          1 MOL1         0.0750
@<TRIPOS>BOND
    1     1     2    1
    2     1     3    2
    3     1     4    1
    4     4     5    1
    5     4     6    2
    6     6     7    1
    7     6     8    1
    8     8     9    1
    9     8    10    1
   10     8    11    1
   11    11    12    1
   12    11    13    1
   13    11    14    1
   14    14    15    1
   15    14    16    1
   16    14    17    1
@<TRIPOS>SUBSTRUCTURE
       1 MOL1            1 RESIDUE      1      MOL     
@<SCITEGIC>MOL_PROPERTY
VConf Rank
SciTegic.value.IntegerValue
849

@<SCITEGIC>MOL_PROPERTY
Conf_Id
SciTegic.value.IntegerValue
36

@<SCITEGIC>MOL_PROPERTY
Delta U+W
SciTegic.value.DoubleValue
0.000

@<SCITEGIC>MOL_PROPERTY
U+W
SciTegic.value.DoubleValue
-53.409

@<SCITEGIC>MOL_PROPERTY
Grad RMS
SciTegic.value.DoubleValue
0.000000

@<SCITEGIC>MOL_PROPERTY
U
SciTegic.value.DoubleValue
9.048

@<SCITEGIC>MOL_PROPERTY
W
SciTegic.value.DoubleValue
-62.457

@<SCITEGIC>MOL_PROPERTY
W(PB)
SciTegic.value.DoubleValue
-64.540

@<SCITEGIC>MOL_PROPERTY
W(SA)
SciTegic.value.DoubleValue
2.084

@<SCITEGIC>MOL_PROPERTY
Valence
SciTegic.value.DoubleValue
2.652

@<SCITEGIC>MOL_PROPERTY
Coulomb
SciTegic.value.DoubleValue
5.578

@<SCITEGIC>MOL_PROPERTY
VdW
SciTegic.value.DoubleValue
0.818

@<SCITEGIC>MOL_PROPERTY
VdW6
SciTegic.value.DoubleValue
-4.534

@<SCITEGIC>MOL_PROPERTY
VdW12
SciTegic.value.DoubleValue
5.352

@<SCITEGIC>MOL_PROPERTY
Bond
SciTegic.value.DoubleValue
0.063

@<SCITEGIC>MOL_PROPERTY
Angle
SciTegic.value.DoubleValue
2.579

@<SCITEGIC>MOL_PROPERTY
Pdih
SciTegic.value.DoubleValue
0.010

@<SCITEGIC>MOL_PROPERTY
Idih
SciTegic.value.DoubleValue
0.000

@<SCITEGIC>MOL_PROPERTY
Tether
SciTegic.value.DoubleValue
0.000

@<TRIPOS>MOLECULE
guest-s19_confgen4.mol2 : confsearch ligand conformer 850
          17          16           1
SMALL
USER_CHARGES
 
@<TRIPOS>ATOM
       1    C1      22.209175   21.623619   21.518036 C.2        1 MOL1         0.6173
       2    O1      22.873477   21.676484   22.536025 O.co2      1 MOL1        -0.6755
       3    O2      22.241855   22.487070   20.662998 O.co2      1 MOL1        -0.6755
       4    C2      21.310878   20.460208   21.286298 C.2        1 MOL1        -0.1504
       5    H1      20.745560   20.474745   20.357259 H          1 MOL1         0.0814
       6    C3      21.174156   19.429476   22.151158 C.2        1 MOL1        -0.1394
       7    H2      21.734107   19.405869   23.085862 H          1 MOL1         0.0817
       8    C4      20.256881   18.250889   21.908715 C.3        1 MOL1        -0.1849
       9    H3      20.620881   17.379914   22.470226 H          1 MOL1         0.0736
      10    H4      20.279204   17.969802   20.846972 H          1 MOL1         0.0736
      11    C5      18.808474   18.569598   22.332461 C.3        1 MOL1        -0.1866
      12    H5      18.788439   18.848336   23.395226 H          1 MOL1         0.0738
      13    H6      18.441295   19.438368   21.768565 H          1 MOL1         0.0738
      14    C6      17.868858   17.369911   22.097091 C.3        1 MOL1        -0.2879
      15    H7      18.195581   16.495507   22.675105 H          1 MOL1         0.0750
      16    H8      16.843892   17.615356   22.404224 H          1 MOL1         0.0750
      17    H9      17.846779   17.090581   21.035525 H          1 MOL1         0.0750
@<TRIPOS>BOND
    1     1     2    1
    2     1     3    2
    3     1     4    1
    4     4     5    1
    5     4     6    2
    6     6     7    1
    7     6     8    1
    8     8     9    1
    9     8    10    1
   10     8    11    1
   11    11    12    1
   12    11    13    1
   13    11    14    1
   14    14    15    1
   15    14    16    1
   16    14    17    1
@<TRIPOS>SUBSTRUCTURE
       1 MOL1            1 RESIDUE      1      MOL     
@<SCITEGIC>MOL_PROPERTY
VConf Rank
SciTegic.value.IntegerValue
850

@<SCITEGIC>MOL_PROPERTY
Conf_Id
SciTegic.value.IntegerValue
1

@<SCITEGIC>MOL_PROPERTY
Delta U+W
SciTegic.value.DoubleValue
0.030

@<SCITEGIC>MOL_PROPERTY
U+W
SciTegic.value.DoubleValue
-53.378

@<SCITEGIC>MOL_PROPERTY
Grad RMS
SciTegic.value.DoubleValue
0.000000

@<SCITEGIC>MOL_PROPERTY
U
SciTegic.value.DoubleValue
9.048

@<SCITEGIC>MOL_PROPERTY
W
SciTegic.value.DoubleValue
-62.426

@<SCITEGIC>MOL_PROPERTY
W(PB)
SciTegic.value.DoubleValue
-64.506

@<SCITEGIC>MOL_PROPERTY
W(SA)
SciTegic.value.DoubleValue
2.080

@<SCITEGIC>MOL_PROPERTY
Valence
SciTegic.value.DoubleValue
2.652

@<SCITEGIC>MOL_PROPERTY
Coulomb
SciTegic.value.DoubleValue
5.578

@<SCITEGIC>MOL_PROPERTY
VdW
SciTegic.value.DoubleValue
0.818

@<SCITEGIC>MOL_PROPERTY
VdW6
SciTegic.value.DoubleValue
-4.535

@<SCITEGIC>MOL_PROPERTY
VdW12
SciTegic.value.DoubleValue
5.352

@<SCITEGIC>MOL_PROPERTY
Bond
SciTegic.value.DoubleValue
0.063

@<SCITEGIC>MOL_PROPERTY
Angle
SciTegic.value.DoubleValue
2.579

@<SCITEGIC>MOL_PROPERTY
Pdih
SciTegic.value.DoubleValue
0.010

@<SCITEGIC>MOL_PROPERTY
Idih
SciTegic.value.DoubleValue
0.000

@<SCITEGIC>MOL_PROPERTY
Tether
SciTegic.value.DoubleValue
0.000

@<TRIPOS>MOLECULE
guest-s19_confgen4.mol2 : confsearch ligand conformer 851
          17          16           1
SMALL
USER_CHARGES
 
@<TRIPOS>ATOM
       1    C1      17.618524   19.555763   23.929346 C.2        1 MOL1         0.6173
       2    O1      17.036385   20.437580   23.326062 O.co2      1 MOL1        -0.6755
       3    O2      17.099017   18.911562   24.819811 O.co2      1 MOL1        -0.6755
       4    C2      19.029698   19.235571   23.582707 C.2        1 MOL1        -0.1504
       5    H1      19.491203   18.438053   24.160408 H          1 MOL1         0.0814
       6    C3      19.730429   19.869240   22.615017 C.2        1 MOL1        -0.1394
       7    H2      19.276730   20.667381   22.027883 H          1 MOL1         0.0817
       8    C4      21.165363   19.535207   22.265156 C.3        1 MOL1        -0.1849
       9    H3      21.735094   19.348947   23.185613 H          1 MOL1         0.0736
      10    H4      21.641335   20.397846   21.779772 H          1 MOL1         0.0736
      11    C5      21.273415   18.299988   21.344223 C.3        1 MOL1        -0.1866
      12    H5      22.333283   18.042925   21.210991 H          1 MOL1         0.0738
      13    H6      20.799055   17.434790   21.827797 H          1 MOL1         0.0738
      14    C6      20.633854   18.536923   19.959471 C.3        1 MOL1        -0.2879
      15    H7      21.101637   19.390454   19.451721 H          1 MOL1         0.0750
      16    H8      20.758081   17.652921   19.320711 H          1 MOL1         0.0750
      17    H9      19.558454   18.738649   20.049146 H          1 MOL1         0.0750
@<TRIPOS>BOND
    1     1     2    1
    2     1     3    2
    3     1     4    1
    4     4     5    1
    5     4     6    2
    6     6     7    1
    7     6     8    1
    8     8     9    1
    9     8    10    1
   10     8    11    1
   11    11    12    1
   12    11    13    1
   13    11    14    1
   14    14    15    1
   15    14    16    1
   16    14    17    1
@<TRIPOS>SUBSTRUCTURE
       1 MOL1            1 RESIDUE      1      MOL     
@<SCITEGIC>MOL_PROPERTY
VConf Rank
SciTegic.value.IntegerValue
851

@<SCITEGIC>MOL_PROPERTY
Conf_Id
SciTegic.value.IntegerValue
3

@<SCITEGIC>MOL_PROPERTY
Delta U+W
SciTegic.value.DoubleValue
0.531

@<SCITEGIC>MOL_PROPERTY
U+W
SciTegic.value.DoubleValue
-52.878

@<SCITEGIC>MOL_PROPERTY
Grad RMS
SciTegic.value.DoubleValue
0.000000

@<SCITEGIC>MOL_PROPERTY
U
SciTegic.value.DoubleValue
10.067

@<SCITEGIC>MOL_PROPERTY
W
SciTegic.value.DoubleValue
-62.945

@<SCITEGIC>MOL_PROPERTY
W(PB)
SciTegic.value.DoubleValue
-64.982

@<SCITEGIC>MOL_PROPERTY
W(SA)
SciTegic.value.DoubleValue
2.037

@<SCITEGIC>MOL_PROPERTY
Valence
SciTegic.value.DoubleValue
2.779

@<SCITEGIC>MOL_PROPERTY
Coulomb
SciTegic.value.DoubleValue
6.474

@<SCITEGIC>MOL_PROPERTY
VdW
SciTegic.value.DoubleValue
0.815

@<SCITEGIC>MOL_PROPERTY
VdW6
SciTegic.value.DoubleValue
-5.088

@<SCITEGIC>MOL_PROPERTY
VdW12
SciTegic.value.DoubleValue
5.902

@<SCITEGIC>MOL_PROPERTY
Bond
SciTegic.value.DoubleValue
0.078

@<SCITEGIC>MOL_PROPERTY
Angle
SciTegic.value.DoubleValue
2.651

@<SCITEGIC>MOL_PROPERTY
Pdih
SciTegic.value.DoubleValue
0.050

@<SCITEGIC>MOL_PROPERTY
Idih
SciTegic.value.DoubleValue
0.000

@<SCITEGIC>MOL_PROPERTY
Tether
SciTegic.value.DoubleValue
0.000

@<TRIPOS>MOLECULE
guest-s19_confgen4.mol2 : confsearch ligand conformer 852
          17          16           1
SMALL
USER_CHARGES
 
@<TRIPOS>ATOM
       1    C1      20.073763   22.079160   21.596376 C.2        1 MOL1         0.6173
       2    O1      19.401692   22.765910   20.851744 O.co2      1 MOL1        -0.6755
       3    O2      21.156334   22.433468   22.024107 O.co2      1 MOL1        -0.6755
       4    C2      19.525699   20.752997   21.990063 C.2        1 MOL1        -0.1504
       5    H1      18.554257   20.498803   21.572461 H          1 MOL1         0.0814
       6    C3      20.164845   19.886328   22.808575 C.2        1 MOL1        -0.1394
       7    H2      21.140109   20.131522   23.228405 H          1 MOL1         0.0817
       8    C4      19.605538   18.535741   23.205344 C.3        1 MOL1        -0.1849
       9    H3      18.526172   18.490819   23.006115 H          1 MOL1         0.0736
      10    H4      19.721547   18.404262   24.289440 H          1 MOL1         0.0736
      11    C5      20.315817   17.371379   22.480821 C.3        1 MOL1        -0.1866
      12    H5      21.395959   17.417114   22.677440 H          1 MOL1         0.0738
      13    H6      19.960834   16.419292   22.898810 H          1 MOL1         0.0738
      14    C6      20.063435   17.377221   20.957962 C.3        1 MOL1        -0.2879
      15    H7      20.463774   18.287772   20.493549 H          1 MOL1         0.0750
      16    H8      20.549853   16.515593   20.482715 H          1 MOL1         0.0750
      17    H9      18.989252   17.324341   20.737903 H          1 MOL1         0.0750
@<TRIPOS>BOND
    1     1     2    1
    2     1     3    2
    3     1     4    1
    4     4     5    1
    5     4     6    2
    6     6     7    1
    7     6     8    1
    8     8     9    1
    9     8    10    1
   10     8    11    1
   11    11    12    1
   12    11    13    1
   13    11    14    1
   14    14    15    1
   15    14    16    1
   16    14    17    1
@<TRIPOS>SUBSTRUCTURE
       1 MOL1            1 RESIDUE      1      MOL     
@<SCITEGIC>MOL_PROPERTY
VConf Rank
SciTegic.value.IntegerValue
852

@<SCITEGIC>MOL_PROPERTY
Conf_Id
SciTegic.value.IntegerValue
45

@<SCITEGIC>MOL_PROPERTY
Delta U+W
SciTegic.value.DoubleValue
0.562

@<SCITEGIC>MOL_PROPERTY
U+W
SciTegic.value.DoubleValue
-52.846

@<SCITEGIC>MOL_PROPERTY
Grad RMS
SciTegic.value.DoubleValue
0.000000

@<SCITEGIC>MOL_PROPERTY
U
SciTegic.value.DoubleValue
10.243

@<SCITEGIC>MOL_PROPERTY
W
SciTegic.value.DoubleValue
-63.089

@<SCITEGIC>MOL_PROPERTY
W(PB)
SciTegic.value.DoubleValue
-65.116

@<SCITEGIC>MOL_PROPERTY
W(SA)
SciTegic.value.DoubleValue
2.026

@<SCITEGIC>MOL_PROPERTY
Valence
SciTegic.value.DoubleValue
2.822

@<SCITEGIC>MOL_PROPERTY
Coulomb
SciTegic.value.DoubleValue
6.637

@<SCITEGIC>MOL_PROPERTY
VdW
SciTegic.value.DoubleValue
0.785

@<SCITEGIC>MOL_PROPERTY
VdW6
SciTegic.value.DoubleValue
-5.216

@<SCITEGIC>MOL_PROPERTY
VdW12
SciTegic.value.DoubleValue
6.001

@<SCITEGIC>MOL_PROPERTY
Bond
SciTegic.value.DoubleValue
0.080

@<SCITEGIC>MOL_PROPERTY
Angle
SciTegic.value.DoubleValue
2.678

@<SCITEGIC>MOL_PROPERTY
Pdih
SciTegic.value.DoubleValue
0.064

@<SCITEGIC>MOL_PROPERTY
Idih
SciTegic.value.DoubleValue
0.000

@<SCITEGIC>MOL_PROPERTY
Tether
SciTegic.value.DoubleValue
0.000

@<TRIPOS>MOLECULE
guest-s19_confgen4.mol2 : confsearch ligand conformer 853
          17          16           1
SMALL
USER_CHARGES
 
@<TRIPOS>ATOM
       1    C1      18.818720   15.967142   21.644061 C.2        1 MOL1         0.6173
       2    O1      18.215954   15.446612   20.725679 O.co2      1 MOL1        -0.6755
       3    O2      18.901617   15.464484   22.748985 O.co2      1 MOL1        -0.6755
       4    C2      19.476892   17.275408   21.380601 C.2        1 MOL1        -0.1504
       5    H1      19.364329   17.668909   20.372933 H          1 MOL1         0.0814
       6    C3      20.178333   17.966498   22.307671 C.2        1 MOL1        -0.1394
       7    H2      20.295361   17.582611   23.320937 H          1 MOL1         0.0817
       8    C4      20.842852   19.297561   22.032126 C.3        1 MOL1        -0.1849
       9    H3      21.274526   19.299851   21.021947 H          1 MOL1         0.0736
      10    H4      21.678919   19.442610   22.729506 H          1 MOL1         0.0736
      11    C5      19.844043   20.464292   22.174019 C.3        1 MOL1        -0.1866
      12    H5      19.008944   20.322853   21.473900 H          1 MOL1         0.0738
      13    H6      19.415197   20.461126   23.185774 H          1 MOL1         0.0738
      14    C6      20.515921   21.825599   21.903927 C.3        1 MOL1        -0.2879
      15    H7      21.335426   22.006703   22.611771 H          1 MOL1         0.0750
      16    H8      20.926339   21.866109   20.886405 H          1 MOL1         0.0750
      17    H9      19.790379   22.642668   22.009375 H          1 MOL1         0.0750
@<TRIPOS>BOND
    1     1     2    1
    2     1     3    2
    3     1     4    1
    4     4     5    1
    5     4     6    2
    6     6     7    1
    7     6     8    1
    8     8     9    1
    9     8    10    1
   10     8    11    1
   11    11    12    1
   12    11    13    1
   13    11    14    1
   14    14    15    1
   15    14    16    1
   16    14    17    1
@<TRIPOS>SUBSTRUCTURE
       1 MOL1            1 RESIDUE      1      MOL     
@<SCITEGIC>MOL_PROPERTY
VConf Rank
SciTegic.value.IntegerValue
853

@<SCITEGIC>MOL_PROPERTY
Conf_Id
SciTegic.value.IntegerValue
36

@<SCITEGIC>MOL_PROPERTY
Delta U+W
SciTegic.value.DoubleValue
0.000

@<SCITEGIC>MOL_PROPERTY
U+W
SciTegic.value.DoubleValue
-53.409

@<SCITEGIC>MOL_PROPERTY
Grad RMS
SciTegic.value.DoubleValue
0.000000

@<SCITEGIC>MOL_PROPERTY
U
SciTegic.value.DoubleValue
9.048

@<SCITEGIC>MOL_PROPERTY
W
SciTegic.value.DoubleValue
-62.457

@<SCITEGIC>MOL_PROPERTY
W(PB)
SciTegic.value.DoubleValue
-64.540

@<SCITEGIC>MOL_PROPERTY
W(SA)
SciTegic.value.DoubleValue
2.084

@<SCITEGIC>MOL_PROPERTY
Valence
SciTegic.value.DoubleValue
2.652

@<SCITEGIC>MOL_PROPERTY
Coulomb
SciTegic.value.DoubleValue
5.578

@<SCITEGIC>MOL_PROPERTY
VdW
SciTegic.value.DoubleValue
0.818

@<SCITEGIC>MOL_PROPERTY
VdW6
SciTegic.value.DoubleValue
-4.534

@<SCITEGIC>MOL_PROPERTY
VdW12
SciTegic.value.DoubleValue
5.352

@<SCITEGIC>MOL_PROPERTY
Bond
SciTegic.value.DoubleValue
0.063

@<SCITEGIC>MOL_PROPERTY
Angle
SciTegic.value.DoubleValue
2.579

@<SCITEGIC>MOL_PROPERTY
Pdih
SciTegic.value.DoubleValue
0.010

@<SCITEGIC>MOL_PROPERTY
Idih
SciTegic.value.DoubleValue
0.000

@<SCITEGIC>MOL_PROPERTY
Tether
SciTegic.value.DoubleValue
0.000

@<TRIPOS>MOLECULE
guest-s19_confgen4.mol2 : confsearch ligand conformer 854
          17          16           1
SMALL
USER_CHARGES
 
@<TRIPOS>ATOM
       1    C1      17.945179   20.789558   23.967841 C.2        1 MOL1         0.6173
       2    O1      18.154751   21.973330   23.780341 O.co2      1 MOL1        -0.6755
       3    O2      17.266713   20.377072   24.888301 O.co2      1 MOL1        -0.6755
       4    C2      18.533227   19.783540   23.042482 C.2        1 MOL1        -0.1504
       5    H1      18.307153   18.743499   23.266343 H          1 MOL1         0.0814
       6    C3      19.307511   20.099072   21.979463 C.2        1 MOL1        -0.1394
       7    H2      19.542090   21.137747   21.747296 H          1 MOL1         0.0817
       8    C4      19.903247   19.069607   21.044295 C.3        1 MOL1        -0.1849
       9    H3      20.093951   19.528978   20.065011 H          1 MOL1         0.0736
      10    H4      19.184282   18.256761   20.873483 H          1 MOL1         0.0736
      11    C5      21.217585   18.492061   21.608189 C.3        1 MOL1        -0.1866
      12    H5      21.935780   19.306648   21.776142 H          1 MOL1         0.0738
      13    H6      21.027736   18.028406   22.586218 H          1 MOL1         0.0738
      14    C6      21.836081   17.448526   20.656336 C.3        1 MOL1        -0.2879
      15    H7      22.065385   17.894599   19.679673 H          1 MOL1         0.0750
      16    H8      22.769519   17.049327   21.074024 H          1 MOL1         0.0750
      17    H9      21.149303   16.607003   20.496306 H          1 MOL1         0.0750
@<TRIPOS>BOND
    1     1     2    1
    2     1     3    2
    3     1     4    1
    4     4     5    1
    5     4     6    2
    6     6     7    1
    7     6     8    1
    8     8     9    1
    9     8    10    1
   10     8    11    1
   11    11    12    1
   12    11    13    1
   13    11    14    1
   14    14    15    1
   15    14    16    1
   16    14    17    1
@<TRIPOS>SUBSTRUCTURE
       1 MOL1            1 RESIDUE      1      MOL     
@<SCITEGIC>MOL_PROPERTY
VConf Rank
SciTegic.value.IntegerValue
854

@<SCITEGIC>MOL_PROPERTY
Conf_Id
SciTegic.value.IntegerValue
1

@<SCITEGIC>MOL_PROPERTY
Delta U+W
SciTegic.value.DoubleValue
0.030

@<SCITEGIC>MOL_PROPERTY
U+W
SciTegic.value.DoubleValue
-53.378

@<SCITEGIC>MOL_PROPERTY
Grad RMS
SciTegic.value.DoubleValue
0.000000

@<SCITEGIC>MOL_PROPERTY
U
SciTegic.value.DoubleValue
9.048

@<SCITEGIC>MOL_PROPERTY
W
SciTegic.value.DoubleValue
-62.426

@<SCITEGIC>MOL_PROPERTY
W(PB)
SciTegic.value.DoubleValue
-64.506

@<SCITEGIC>MOL_PROPERTY
W(SA)
SciTegic.value.DoubleValue
2.080

@<SCITEGIC>MOL_PROPERTY
Valence
SciTegic.value.DoubleValue
2.652

@<SCITEGIC>MOL_PROPERTY
Coulomb
SciTegic.value.DoubleValue
5.578

@<SCITEGIC>MOL_PROPERTY
VdW
SciTegic.value.DoubleValue
0.818

@<SCITEGIC>MOL_PROPERTY
VdW6
SciTegic.value.DoubleValue
-4.535

@<SCITEGIC>MOL_PROPERTY
VdW12
SciTegic.value.DoubleValue
5.352

@<SCITEGIC>MOL_PROPERTY
Bond
SciTegic.value.DoubleValue
0.063

@<SCITEGIC>MOL_PROPERTY
Angle
SciTegic.value.DoubleValue
2.579

@<SCITEGIC>MOL_PROPERTY
Pdih
SciTegic.value.DoubleValue
0.010

@<SCITEGIC>MOL_PROPERTY
Idih
SciTegic.value.DoubleValue
0.000

@<SCITEGIC>MOL_PROPERTY
Tether
SciTegic.value.DoubleValue
0.000

@<TRIPOS>MOLECULE
guest-s19_confgen4.mol2 : confsearch ligand conformer 855
          17          16           1
SMALL
USER_CHARGES
 
@<TRIPOS>ATOM
       1    C1      20.097814   21.987815   21.009247 C.2        1 MOL1         0.6173
       2    O1      19.699606   21.823234   19.871361 O.co2      1 MOL1        -0.6755
       3    O2      20.143086   23.080069   21.540982 O.co2      1 MOL1        -0.6755
       4    C2      20.558118   20.816973   21.803818 C.2        1 MOL1        -0.1504
       5    H1      20.902166   21.033482   22.812538 H          1 MOL1         0.0814
       6    C3      20.561891   19.546365   21.340649 C.2        1 MOL1        -0.1394
       7    H2      20.216164   19.317743   20.332779 H          1 MOL1         0.0817
       8    C4      21.028272   18.359077   22.156646 C.3        1 MOL1        -0.1849
       9    H3      21.926253   18.633723   22.726494 H          1 MOL1         0.0736
      10    H4      21.328481   17.541521   21.487488 H          1 MOL1         0.0736
      11    C5      19.943372   17.854814   23.133514 C.3        1 MOL1        -0.1866
      12    H5      20.370428   17.066705   23.768857 H          1 MOL1         0.0738
      13    H6      19.641803   18.670424   23.805276 H          1 MOL1         0.0738
      14    C6      18.702982   17.297257   22.403257 C.3        1 MOL1        -0.2879
      15    H7      18.979082   16.471420   21.734747 H          1 MOL1         0.0750
      16    H8      17.968335   16.917786   23.125201 H          1 MOL1         0.0750
      17    H9      18.213702   18.075390   21.802978 H          1 MOL1         0.0750
@<TRIPOS>BOND
    1     1     2    1
    2     1     3    2
    3     1     4    1
    4     4     5    1
    5     4     6    2
    6     6     7    1
    7     6     8    1
    8     8     9    1
    9     8    10    1
   10     8    11    1
   11    11    12    1
   12    11    13    1
   13    11    14    1
   14    14    15    1
   15    14    16    1
   16    14    17    1
@<TRIPOS>SUBSTRUCTURE
       1 MOL1            1 RESIDUE      1      MOL     
@<SCITEGIC>MOL_PROPERTY
VConf Rank
SciTegic.value.IntegerValue
855

@<SCITEGIC>MOL_PROPERTY
Conf_Id
SciTegic.value.IntegerValue
3

@<SCITEGIC>MOL_PROPERTY
Delta U+W
SciTegic.value.DoubleValue
0.531

@<SCITEGIC>MOL_PROPERTY
U+W
SciTegic.value.DoubleValue
-52.878

@<SCITEGIC>MOL_PROPERTY
Grad RMS
SciTegic.value.DoubleValue
0.000000

@<SCITEGIC>MOL_PROPERTY
U
SciTegic.value.DoubleValue
10.067

@<SCITEGIC>MOL_PROPERTY
W
SciTegic.value.DoubleValue
-62.945

@<SCITEGIC>MOL_PROPERTY
W(PB)
SciTegic.value.DoubleValue
-64.982

@<SCITEGIC>MOL_PROPERTY
W(SA)
SciTegic.value.DoubleValue
2.037

@<SCITEGIC>MOL_PROPERTY
Valence
SciTegic.value.DoubleValue
2.779

@<SCITEGIC>MOL_PROPERTY
Coulomb
SciTegic.value.DoubleValue
6.474

@<SCITEGIC>MOL_PROPERTY
VdW
SciTegic.value.DoubleValue
0.815

@<SCITEGIC>MOL_PROPERTY
VdW6
SciTegic.value.DoubleValue
-5.088

@<SCITEGIC>MOL_PROPERTY
VdW12
SciTegic.value.DoubleValue
5.902

@<SCITEGIC>MOL_PROPERTY
Bond
SciTegic.value.DoubleValue
0.078

@<SCITEGIC>MOL_PROPERTY
Angle
SciTegic.value.DoubleValue
2.651

@<SCITEGIC>MOL_PROPERTY
Pdih
SciTegic.value.DoubleValue
0.050

@<SCITEGIC>MOL_PROPERTY
Idih
SciTegic.value.DoubleValue
0.000

@<SCITEGIC>MOL_PROPERTY
Tether
SciTegic.value.DoubleValue
0.000

@<TRIPOS>MOLECULE
guest-s19_confgen4.mol2 : confsearch ligand conformer 856
          17          16           1
SMALL
USER_CHARGES
 
@<TRIPOS>ATOM
       1    C1      19.402104   21.659103   20.581166 C.2        1 MOL1         0.6173
       2    O1      19.708546   22.802729   20.856834 O.co2      1 MOL1        -0.6755
       3    O2      18.492321   21.384071   19.821495 O.co2      1 MOL1        -0.6755
       4    C2      20.190891   20.565466   21.210328 C.2        1 MOL1        -0.1504
       5    H1      20.989087   20.880716   21.878315 H          1 MOL1         0.0814
       6    C3      19.959489   19.250099   20.996207 C.2        1 MOL1        -0.1394
       7    H2      19.159435   18.925498   20.331326 H          1 MOL1         0.0817
       8    C4      20.762490   18.138975   21.640355 C.3        1 MOL1        -0.1849
       9    H3      21.711786   18.526676   22.034392 H          1 MOL1         0.0736
      10    H4      21.029553   17.399150   20.873970 H          1 MOL1         0.0736
      11    C5      19.982464   17.430907   22.769676 C.3        1 MOL1        -0.1866
      12    H5      19.031482   17.045068   22.376967 H          1 MOL1         0.0738
      13    H6      20.557834   16.559238   23.110764 H          1 MOL1         0.0738
      14    C6      19.710513   18.356725   23.974556 C.3        1 MOL1        -0.2879
      15    H7      19.081710   19.208818   23.685423 H          1 MOL1         0.0750
      16    H8      19.190296   17.810144   24.771731 H          1 MOL1         0.0750
      17    H9      20.648878   18.748338   24.388324 H          1 MOL1         0.0750
@<TRIPOS>BOND
    1     1     2    1
    2     1     3    2
    3     1     4    1
    4     4     5    1
    5     4     6    2
    6     6     7    1
    7     6     8    1
    8     8     9    1
    9     8    10    1
   10     8    11    1
   11    11    12    1
   12    11    13    1
   13    11    14    1
   14    14    15    1
   15    14    16    1
   16    14    17    1
@<TRIPOS>SUBSTRUCTURE
       1 MOL1            1 RESIDUE      1      MOL     
@<SCITEGIC>MOL_PROPERTY
VConf Rank
SciTegic.value.IntegerValue
856

@<SCITEGIC>MOL_PROPERTY
Conf_Id
SciTegic.value.IntegerValue
45

@<SCITEGIC>MOL_PROPERTY
Delta U+W
SciTegic.value.DoubleValue
0.562

@<SCITEGIC>MOL_PROPERTY
U+W
SciTegic.value.DoubleValue
-52.846

@<SCITEGIC>MOL_PROPERTY
Grad RMS
SciTegic.value.DoubleValue
0.000000

@<SCITEGIC>MOL_PROPERTY
U
SciTegic.value.DoubleValue
10.243

@<SCITEGIC>MOL_PROPERTY
W
SciTegic.value.DoubleValue
-63.089

@<SCITEGIC>MOL_PROPERTY
W(PB)
SciTegic.value.DoubleValue
-65.116

@<SCITEGIC>MOL_PROPERTY
W(SA)
SciTegic.value.DoubleValue
2.026

@<SCITEGIC>MOL_PROPERTY
Valence
SciTegic.value.DoubleValue
2.822

@<SCITEGIC>MOL_PROPERTY
Coulomb
SciTegic.value.DoubleValue
6.637

@<SCITEGIC>MOL_PROPERTY
VdW
SciTegic.value.DoubleValue
0.785

@<SCITEGIC>MOL_PROPERTY
VdW6
SciTegic.value.DoubleValue
-5.216

@<SCITEGIC>MOL_PROPERTY
VdW12
SciTegic.value.DoubleValue
6.001

@<SCITEGIC>MOL_PROPERTY
Bond
SciTegic.value.DoubleValue
0.080

@<SCITEGIC>MOL_PROPERTY
Angle
SciTegic.value.DoubleValue
2.678

@<SCITEGIC>MOL_PROPERTY
Pdih
SciTegic.value.DoubleValue
0.064

@<SCITEGIC>MOL_PROPERTY
Idih
SciTegic.value.DoubleValue
0.000

@<SCITEGIC>MOL_PROPERTY
Tether
SciTegic.value.DoubleValue
0.000

@<TRIPOS>MOLECULE
guest-s19_confgen4.mol2 : confsearch ligand conformer 857
          17          16           1
SMALL
USER_CHARGES
 
@<TRIPOS>ATOM
       1    C1      23.112917   20.334142   22.320195 C.2        1 MOL1         0.6173
       2    O1      23.546218   21.441222   22.066566 O.co2      1 MOL1        -0.6755
       3    O2      23.831634   19.384593   22.569592 O.co2      1 MOL1        -0.6755
       4    C2      21.635411   20.157687   22.321004 C.2        1 MOL1        -0.1504
       5    H1      21.051271   21.045649   22.090327 H          1 MOL1         0.0814
       6    C3      21.016611   18.984248   22.584087 C.2        1 MOL1        -0.1394
       7    H2      21.592254   18.087858   22.814074 H          1 MOL1         0.0817
       8    C4      19.513341   18.812772   22.580722 C.3        1 MOL1        -0.1849
       9    H3      19.032984   19.701522   23.012220 H          1 MOL1         0.0736
      10    H4      19.238329   17.965780   23.223654 H          1 MOL1         0.0736
      11    C5      18.978356   18.572857   21.154102 C.3        1 MOL1        -0.1866
      12    H5      19.249061   19.421430   20.510517 H          1 MOL1         0.0738
      13    H6      19.458724   17.682315   20.725440 H          1 MOL1         0.0738
      14    C6      17.447635   18.387649   21.143215 C.3        1 MOL1        -0.2879
      15    H7      17.151803   17.524935   21.754475 H          1 MOL1         0.0750
      16    H8      16.941386   19.277988   21.538746 H          1 MOL1         0.0750
      17    H9      17.085815   18.218388   20.120685 H          1 MOL1         0.0750
@<TRIPOS>BOND
    1     1     2    1
    2     1     3    2
    3     1     4    1
    4     4     5    1
    5     4     6    2
    6     6     7    1
    7     6     8    1
    8     8     9    1
    9     8    10    1
   10     8    11    1
   11    11    12    1
   12    11    13    1
   13    11    14    1
   14    14    15    1
   15    14    16    1
   16    14    17    1
@<TRIPOS>SUBSTRUCTURE
       1 MOL1            1 RESIDUE      1      MOL     
@<SCITEGIC>MOL_PROPERTY
VConf Rank
SciTegic.value.IntegerValue
857

@<SCITEGIC>MOL_PROPERTY
Conf_Id
SciTegic.value.IntegerValue
36

@<SCITEGIC>MOL_PROPERTY
Delta U+W
SciTegic.value.DoubleValue
0.000

@<SCITEGIC>MOL_PROPERTY
U+W
SciTegic.value.DoubleValue
-53.409

@<SCITEGIC>MOL_PROPERTY
Grad RMS
SciTegic.value.DoubleValue
0.000000

@<SCITEGIC>MOL_PROPERTY
U
SciTegic.value.DoubleValue
9.048

@<SCITEGIC>MOL_PROPERTY
W
SciTegic.value.DoubleValue
-62.457

@<SCITEGIC>MOL_PROPERTY
W(PB)
SciTegic.value.DoubleValue
-64.540

@<SCITEGIC>MOL_PROPERTY
W(SA)
SciTegic.value.DoubleValue
2.084

@<SCITEGIC>MOL_PROPERTY
Valence
SciTegic.value.DoubleValue
2.652

@<SCITEGIC>MOL_PROPERTY
Coulomb
SciTegic.value.DoubleValue
5.578

@<SCITEGIC>MOL_PROPERTY
VdW
SciTegic.value.DoubleValue
0.818

@<SCITEGIC>MOL_PROPERTY
VdW6
SciTegic.value.DoubleValue
-4.534

@<SCITEGIC>MOL_PROPERTY
VdW12
SciTegic.value.DoubleValue
5.352

@<SCITEGIC>MOL_PROPERTY
Bond
SciTegic.value.DoubleValue
0.063

@<SCITEGIC>MOL_PROPERTY
Angle
SciTegic.value.DoubleValue
2.579

@<SCITEGIC>MOL_PROPERTY
Pdih
SciTegic.value.DoubleValue
0.010

@<SCITEGIC>MOL_PROPERTY
Idih
SciTegic.value.DoubleValue
0.000

@<SCITEGIC>MOL_PROPERTY
Tether
SciTegic.value.DoubleValue
0.000

@<TRIPOS>MOLECULE
guest-s19_confgen4.mol2 : confsearch ligand conformer 858
          17          16           1
SMALL
USER_CHARGES
 
@<TRIPOS>ATOM
       1    C1      19.310636   17.619429   18.962285 C.2        1 MOL1         0.6173
       2    O1      20.264031   17.818034   18.232910 O.co2      1 MOL1        -0.6755
       3    O2      18.257705   17.162073   18.562450 O.co2      1 MOL1        -0.6755
       4    C2      19.414336   17.941225   20.411373 C.2        1 MOL1        -0.1504
       5    H1      18.526853   17.739812   21.006954 H          1 MOL1         0.0814
       6    C3      20.522459   18.455137   20.991928 C.2        1 MOL1        -0.1394
       7    H2      21.416442   18.662824   20.404191 H          1 MOL1         0.0817
       8    C4      20.619020   18.781337   22.466210 C.3        1 MOL1        -0.1849
       9    H3      21.670857   18.752520   22.781164 H          1 MOL1         0.0736
      10    H4      20.095357   18.016082   23.055251 H          1 MOL1         0.0736
      11    C5      20.025956   20.171462   22.774180 C.3        1 MOL1        -0.1866
      12    H5      20.552749   20.935357   22.185521 H          1 MOL1         0.0738
      13    H6      18.972336   20.200676   22.463388 H          1 MOL1         0.0738
      14    C6      20.128957   20.515411   24.273718 C.3        1 MOL1        -0.2879
      15    H7      21.176026   20.524278   24.603867 H          1 MOL1         0.0750
      16    H8      19.702399   21.507062   24.473238 H          1 MOL1         0.0750
      17    H9      19.583372   19.783014   24.883117 H          1 MOL1         0.0750
@<TRIPOS>BOND
    1     1     2    1
    2     1     3    2
    3     1     4    1
    4     4     5    1
    5     4     6    2
    6     6     7    1
    7     6     8    1
    8     8     9    1
    9     8    10    1
   10     8    11    1
   11    11    12    1
   12    11    13    1
   13    11    14    1
   14    14    15    1
   15    14    16    1
   16    14    17    1
@<TRIPOS>SUBSTRUCTURE
       1 MOL1            1 RESIDUE      1      MOL     
@<SCITEGIC>MOL_PROPERTY
VConf Rank
SciTegic.value.IntegerValue
858

@<SCITEGIC>MOL_PROPERTY
Conf_Id
SciTegic.value.IntegerValue
1

@<SCITEGIC>MOL_PROPERTY
Delta U+W
SciTegic.value.DoubleValue
0.030

@<SCITEGIC>MOL_PROPERTY
U+W
SciTegic.value.DoubleValue
-53.378

@<SCITEGIC>MOL_PROPERTY
Grad RMS
SciTegic.value.DoubleValue
0.000000

@<SCITEGIC>MOL_PROPERTY
U
SciTegic.value.DoubleValue
9.048

@<SCITEGIC>MOL_PROPERTY
W
SciTegic.value.DoubleValue
-62.426

@<SCITEGIC>MOL_PROPERTY
W(PB)
SciTegic.value.DoubleValue
-64.506

@<SCITEGIC>MOL_PROPERTY
W(SA)
SciTegic.value.DoubleValue
2.080

@<SCITEGIC>MOL_PROPERTY
Valence
SciTegic.value.DoubleValue
2.652

@<SCITEGIC>MOL_PROPERTY
Coulomb
SciTegic.value.DoubleValue
5.578

@<SCITEGIC>MOL_PROPERTY
VdW
SciTegic.value.DoubleValue
0.818

@<SCITEGIC>MOL_PROPERTY
VdW6
SciTegic.value.DoubleValue
-4.535

@<SCITEGIC>MOL_PROPERTY
VdW12
SciTegic.value.DoubleValue
5.352

@<SCITEGIC>MOL_PROPERTY
Bond
SciTegic.value.DoubleValue
0.063

@<SCITEGIC>MOL_PROPERTY
Angle
SciTegic.value.DoubleValue
2.579

@<SCITEGIC>MOL_PROPERTY
Pdih
SciTegic.value.DoubleValue
0.010

@<SCITEGIC>MOL_PROPERTY
Idih
SciTegic.value.DoubleValue
0.000

@<SCITEGIC>MOL_PROPERTY
Tether
SciTegic.value.DoubleValue
0.000

@<TRIPOS>MOLECULE
guest-s19_confgen4.mol2 : confsearch ligand conformer 859
          17          16           1
SMALL
USER_CHARGES
 
@<TRIPOS>ATOM
       1    C1      19.106837   20.601259   24.576648 C.2        1 MOL1         0.6173
       2    O1      19.840002   20.099863   25.408219 O.co2      1 MOL1        -0.6755
       3    O2      18.491683   21.630961   24.774410 O.co2      1 MOL1        -0.6755
       4    C2      18.936570   19.942250   23.253467 C.2        1 MOL1        -0.1504
       5    H1      18.266944   20.441644   22.557071 H          1 MOL1         0.0814
       6    C3      19.559013   18.795784   22.896866 C.2        1 MOL1        -0.1394
       7    H2      20.234597   18.288944   23.585558 H          1 MOL1         0.0817
       8    C4      19.383810   18.132890   21.546721 C.3        1 MOL1        -0.1849
       9    H3      18.329130   18.185943   21.244460 H          1 MOL1         0.0736
      10    H4      19.627507   17.064561   21.621407 H          1 MOL1         0.0736
      11    C5      20.257251   18.786537   20.453374 C.3        1 MOL1        -0.1866
      12    H5      20.011609   18.337376   19.481228 H          1 MOL1         0.0738
      13    H6      20.014773   19.855442   20.375432 H          1 MOL1         0.0738
      14    C6      21.767604   18.614284   20.721469 C.3        1 MOL1        -0.2879
      15    H7      22.035489   17.551935   20.790734 H          1 MOL1         0.0750
      16    H8      22.356894   19.060205   19.909805 H          1 MOL1         0.0750
      17    H9      22.061844   19.103921   21.658965 H          1 MOL1         0.0750
@<TRIPOS>BOND
    1     1     2    1
    2     1     3    2
    3     1     4    1
    4     4     5    1
    5     4     6    2
    6     6     7    1
    7     6     8    1
    8     8     9    1
    9     8    10    1
   10     8    11    1
   11    11    12    1
   12    11    13    1
   13    11    14    1
   14    14    15    1
   15    14    16    1
   16    14    17    1
@<TRIPOS>SUBSTRUCTURE
       1 MOL1            1 RESIDUE      1      MOL     
@<SCITEGIC>MOL_PROPERTY
VConf Rank
SciTegic.value.IntegerValue
859

@<SCITEGIC>MOL_PROPERTY
Conf_Id
SciTegic.value.IntegerValue
3

@<SCITEGIC>MOL_PROPERTY
Delta U+W
SciTegic.value.DoubleValue
0.531

@<SCITEGIC>MOL_PROPERTY
U+W
SciTegic.value.DoubleValue
-52.878

@<SCITEGIC>MOL_PROPERTY
Grad RMS
SciTegic.value.DoubleValue
0.000000

@<SCITEGIC>MOL_PROPERTY
U
SciTegic.value.DoubleValue
10.067

@<SCITEGIC>MOL_PROPERTY
W
SciTegic.value.DoubleValue
-62.945

@<SCITEGIC>MOL_PROPERTY
W(PB)
SciTegic.value.DoubleValue
-64.982

@<SCITEGIC>MOL_PROPERTY
W(SA)
SciTegic.value.DoubleValue
2.037

@<SCITEGIC>MOL_PROPERTY
Valence
SciTegic.value.DoubleValue
2.779

@<SCITEGIC>MOL_PROPERTY
Coulomb
SciTegic.value.DoubleValue
6.474

@<SCITEGIC>MOL_PROPERTY
VdW
SciTegic.value.DoubleValue
0.815

@<SCITEGIC>MOL_PROPERTY
VdW6
SciTegic.value.DoubleValue
-5.088

@<SCITEGIC>MOL_PROPERTY
VdW12
SciTegic.value.DoubleValue
5.902

@<SCITEGIC>MOL_PROPERTY
Bond
SciTegic.value.DoubleValue
0.078

@<SCITEGIC>MOL_PROPERTY
Angle
SciTegic.value.DoubleValue
2.651

@<SCITEGIC>MOL_PROPERTY
Pdih
SciTegic.value.DoubleValue
0.050

@<SCITEGIC>MOL_PROPERTY
Idih
SciTegic.value.DoubleValue
0.000

@<SCITEGIC>MOL_PROPERTY
Tether
SciTegic.value.DoubleValue
0.000

@<TRIPOS>MOLECULE
guest-s19_confgen4.mol2 : confsearch ligand conformer 860
          17          16           1
SMALL
USER_CHARGES
 
@<TRIPOS>ATOM
       1    C1      20.175834   20.267662   19.299143 C.2        1 MOL1         0.6173
       2    O1      20.431617   21.404751   18.953624 O.co2      1 MOL1        -0.6755
       3    O2      19.601235   19.472314   18.579626 O.co2      1 MOL1        -0.6755
       4    C2      20.596775   19.853130   20.664809 C.2        1 MOL1        -0.1504
       5    H1      21.105240   20.612140   21.254786 H          1 MOL1         0.0814
       6    C3      20.375916   18.622256   21.180324 C.2        1 MOL1        -0.1394
       7    H2      19.863948   17.857018   20.597384 H          1 MOL1         0.0817
       8    C4      20.803221   18.204084   22.572042 C.3        1 MOL1        -0.1849
       9    H3      21.558932   18.895830   22.968436 H          1 MOL1         0.0736
      10    H4      21.288512   17.220453   22.517526 H          1 MOL1         0.0736
      11    C5      19.611550   18.121019   23.550912 C.3        1 MOL1        -0.1866
      12    H5      18.853906   17.431248   23.153860 H          1 MOL1         0.0738
      13    H6      19.957890   17.693115   24.501778 H          1 MOL1         0.0738
      14    C6      18.969638   19.498165   23.823397 C.3        1 MOL1        -0.2879
      15    H7      18.553110   19.929955   22.904095 H          1 MOL1         0.0750
      16    H8      18.153455   19.406377   24.551605 H          1 MOL1         0.0750
      17    H9      19.708101   20.202203   24.228483 H          1 MOL1         0.0750
@<TRIPOS>BOND
    1     1     2    1
    2     1     3    2
    3     1     4    1
    4     4     5    1
    5     4     6    2
    6     6     7    1
    7     6     8    1
    8     8     9    1
    9     8    10    1
   10     8    11    1
   11    11    12    1
   12    11    13    1
   13    11    14    1
   14    14    15    1
   15    14    16    1
   16    14    17    1
@<TRIPOS>SUBSTRUCTURE
       1 MOL1            1 RESIDUE      1      MOL     
@<SCITEGIC>MOL_PROPERTY
VConf Rank
SciTegic.value.IntegerValue
860

@<SCITEGIC>MOL_PROPERTY
Conf_Id
SciTegic.value.IntegerValue
45

@<SCITEGIC>MOL_PROPERTY
Delta U+W
SciTegic.value.DoubleValue
0.562

@<SCITEGIC>MOL_PROPERTY
U+W
SciTegic.value.DoubleValue
-52.846

@<SCITEGIC>MOL_PROPERTY
Grad RMS
SciTegic.value.DoubleValue
0.000000

@<SCITEGIC>MOL_PROPERTY
U
SciTegic.value.DoubleValue
10.243

@<SCITEGIC>MOL_PROPERTY
W
SciTegic.value.DoubleValue
-63.089

@<SCITEGIC>MOL_PROPERTY
W(PB)
SciTegic.value.DoubleValue
-65.116

@<SCITEGIC>MOL_PROPERTY
W(SA)
SciTegic.value.DoubleValue
2.026

@<SCITEGIC>MOL_PROPERTY
Valence
SciTegic.value.DoubleValue
2.822

@<SCITEGIC>MOL_PROPERTY
Coulomb
SciTegic.value.DoubleValue
6.637

@<SCITEGIC>MOL_PROPERTY
VdW
SciTegic.value.DoubleValue
0.785

@<SCITEGIC>MOL_PROPERTY
VdW6
SciTegic.value.DoubleValue
-5.216

@<SCITEGIC>MOL_PROPERTY
VdW12
SciTegic.value.DoubleValue
6.001

@<SCITEGIC>MOL_PROPERTY
Bond
SciTegic.value.DoubleValue
0.080

@<SCITEGIC>MOL_PROPERTY
Angle
SciTegic.value.DoubleValue
2.678

@<SCITEGIC>MOL_PROPERTY
Pdih
SciTegic.value.DoubleValue
0.064

@<SCITEGIC>MOL_PROPERTY
Idih
SciTegic.value.DoubleValue
0.000

@<SCITEGIC>MOL_PROPERTY
Tether
SciTegic.value.DoubleValue
0.000

@<TRIPOS>MOLECULE
guest-s19_confgen4.mol2 : confsearch ligand conformer 861
          17          16           1
SMALL
USER_CHARGES
 
@<TRIPOS>ATOM
       1    C1      19.558781   18.283104   18.674259 C.2        1 MOL1         0.6173
       2    O1      20.196678   17.509700   17.986773 O.co2      1 MOL1        -0.6755
       3    O2      18.760293   19.075284   18.210295 O.co2      1 MOL1        -0.6755
       4    C2      19.780468   18.239216   20.145003 C.2        1 MOL1        -0.1504
       5    H1      20.506911   17.508820   20.493874 H          1 MOL1         0.0814
       6    C3      19.142051   19.040661   21.027723 C.2        1 MOL1        -0.1394
       7    H2      18.414085   19.777536   20.688823 H          1 MOL1         0.0817
       8    C4      19.374919   18.991107   22.521897 C.3        1 MOL1        -0.1849
       9    H3      19.507840   17.950210   22.846973 H          1 MOL1         0.0736
      10    H4      18.487136   19.370950   23.045297 H          1 MOL1         0.0736
      11    C5      20.608342   19.824263   22.926287 C.3        1 MOL1        -0.1866
      12    H5      21.498300   19.442805   22.406647 H          1 MOL1         0.0738
      13    H6      20.472146   20.865321   22.601914 H          1 MOL1         0.0738
      14    C6      20.847054   19.786590   24.449154 C.3        1 MOL1        -0.2879
      15    H7      19.983723   20.192710   24.992438 H          1 MOL1         0.0750
      16    H8      21.017118   18.758469   24.794814 H          1 MOL1         0.0750
      17    H9      21.727907   20.384292   24.717446 H          1 MOL1         0.0750
@<TRIPOS>BOND
    1     1     2    1
    2     1     3    2
    3     1     4    1
    4     4     5    1
    5     4     6    2
    6     6     7    1
    7     6     8    1
    8     8     9    1
    9     8    10    1
   10     8    11    1
   11    11    12    1
   12    11    13    1
   13    11    14    1
   14    14    15    1
   15    14    16    1
   16    14    17    1
@<TRIPOS>SUBSTRUCTURE
       1 MOL1            1 RESIDUE      1      MOL     
@<SCITEGIC>MOL_PROPERTY
VConf Rank
SciTegic.value.IntegerValue
861

@<SCITEGIC>MOL_PROPERTY
Conf_Id
SciTegic.value.IntegerValue
36

@<SCITEGIC>MOL_PROPERTY
Delta U+W
SciTegic.value.DoubleValue
0.000

@<SCITEGIC>MOL_PROPERTY
U+W
SciTegic.value.DoubleValue
-53.409

@<SCITEGIC>MOL_PROPERTY
Grad RMS
SciTegic.value.DoubleValue
0.000000

@<SCITEGIC>MOL_PROPERTY
U
SciTegic.value.DoubleValue
9.048

@<SCITEGIC>MOL_PROPERTY
W
SciTegic.value.DoubleValue
-62.457

@<SCITEGIC>MOL_PROPERTY
W(PB)
SciTegic.value.DoubleValue
-64.540

@<SCITEGIC>MOL_PROPERTY
W(SA)
SciTegic.value.DoubleValue
2.084

@<SCITEGIC>MOL_PROPERTY
Valence
SciTegic.value.DoubleValue
2.652

@<SCITEGIC>MOL_PROPERTY
Coulomb
SciTegic.value.DoubleValue
5.578

@<SCITEGIC>MOL_PROPERTY
VdW
SciTegic.value.DoubleValue
0.818

@<SCITEGIC>MOL_PROPERTY
VdW6
SciTegic.value.DoubleValue
-4.534

@<SCITEGIC>MOL_PROPERTY
VdW12
SciTegic.value.DoubleValue
5.352

@<SCITEGIC>MOL_PROPERTY
Bond
SciTegic.value.DoubleValue
0.063

@<SCITEGIC>MOL_PROPERTY
Angle
SciTegic.value.DoubleValue
2.579

@<SCITEGIC>MOL_PROPERTY
Pdih
SciTegic.value.DoubleValue
0.010

@<SCITEGIC>MOL_PROPERTY
Idih
SciTegic.value.DoubleValue
0.000

@<SCITEGIC>MOL_PROPERTY
Tether
SciTegic.value.DoubleValue
0.000

@<TRIPOS>MOLECULE
guest-s19_confgen4.mol2 : confsearch ligand conformer 862
          17          16           1
SMALL
USER_CHARGES
 
@<TRIPOS>ATOM
       1    C1      18.327225   18.357995   19.086729 C.2        1 MOL1         0.6173
       2    O1      17.177112   18.715545   19.259330 O.co2      1 MOL1        -0.6755
       3    O2      18.671932   17.677764   18.140068 O.co2      1 MOL1        -0.6755
       4    C2      19.376024   18.759617   20.062887 C.2        1 MOL1        -0.1504
       5    H1      20.382630   18.407091   19.849867 H          1 MOL1         0.0814
       6    C3      19.135681   19.512751   21.160207 C.2        1 MOL1        -0.1394
       7    H2      18.130535   19.869421   21.384356 H          1 MOL1         0.0817
       8    C4      20.207792   19.915259   22.149047 C.3        1 MOL1        -0.1849
       9    H3      19.904264   20.835383   22.666376 H          1 MOL1         0.0736
      10    H4      21.140400   20.148729   21.617502 H          1 MOL1         0.0736
      11    C5      20.463799   18.801328   23.184729 C.3        1 MOL1        -0.1866
      12    H5      19.530124   18.571112   23.716534 H          1 MOL1         0.0738
      13    H6      20.771578   17.881078   22.669005 H          1 MOL1         0.0738
      14    C6      21.548963   19.207592   24.202027 C.3        1 MOL1        -0.2879
      15    H7      21.251853   20.108439   24.754866 H          1 MOL1         0.0750
      16    H8      21.717080   18.403338   24.930067 H          1 MOL1         0.0750
      17    H9      22.502498   19.413290   23.698148 H          1 MOL1         0.0750
@<TRIPOS>BOND
    1     1     2    1
    2     1     3    2
    3     1     4    1
    4     4     5    1
    5     4     6    2
    6     6     7    1
    7     6     8    1
    8     8     9    1
    9     8    10    1
   10     8    11    1
   11    11    12    1
   12    11    13    1
   13    11    14    1
   14    14    15    1
   15    14    16    1
   16    14    17    1
@<TRIPOS>SUBSTRUCTURE
       1 MOL1            1 RESIDUE      1      MOL     
@<SCITEGIC>MOL_PROPERTY
VConf Rank
SciTegic.value.IntegerValue
862

@<SCITEGIC>MOL_PROPERTY
Conf_Id
SciTegic.value.IntegerValue
1

@<SCITEGIC>MOL_PROPERTY
Delta U+W
SciTegic.value.DoubleValue
0.030

@<SCITEGIC>MOL_PROPERTY
U+W
SciTegic.value.DoubleValue
-53.378

@<SCITEGIC>MOL_PROPERTY
Grad RMS
SciTegic.value.DoubleValue
0.000000

@<SCITEGIC>MOL_PROPERTY
U
SciTegic.value.DoubleValue
9.048

@<SCITEGIC>MOL_PROPERTY
W
SciTegic.value.DoubleValue
-62.426

@<SCITEGIC>MOL_PROPERTY
W(PB)
SciTegic.value.DoubleValue
-64.506

@<SCITEGIC>MOL_PROPERTY
W(SA)
SciTegic.value.DoubleValue
2.080

@<SCITEGIC>MOL_PROPERTY
Valence
SciTegic.value.DoubleValue
2.652

@<SCITEGIC>MOL_PROPERTY
Coulomb
SciTegic.value.DoubleValue
5.578

@<SCITEGIC>MOL_PROPERTY
VdW
SciTegic.value.DoubleValue
0.818

@<SCITEGIC>MOL_PROPERTY
VdW6
SciTegic.value.DoubleValue
-4.535

@<SCITEGIC>MOL_PROPERTY
VdW12
SciTegic.value.DoubleValue
5.352

@<SCITEGIC>MOL_PROPERTY
Bond
SciTegic.value.DoubleValue
0.063

@<SCITEGIC>MOL_PROPERTY
Angle
SciTegic.value.DoubleValue
2.579

@<SCITEGIC>MOL_PROPERTY
Pdih
SciTegic.value.DoubleValue
0.010

@<SCITEGIC>MOL_PROPERTY
Idih
SciTegic.value.DoubleValue
0.000

@<SCITEGIC>MOL_PROPERTY
Tether
SciTegic.value.DoubleValue
0.000

@<TRIPOS>MOLECULE
guest-s19_confgen4.mol2 : confsearch ligand conformer 863
          17          16           1
SMALL
USER_CHARGES
 
@<TRIPOS>ATOM
       1    C1      22.050390   21.109077   23.181017 C.2        1 MOL1         0.6173
       2    O1      21.384338   22.127021   23.156410 O.co2      1 MOL1        -0.6755
       3    O2      23.081749   21.010587   23.816949 O.co2      1 MOL1        -0.6755
       4    C2      21.605752   19.920410   22.404192 C.2        1 MOL1        -0.1504
       5    H1      22.246737   19.044206   22.468736 H          1 MOL1         0.0814
       6    C3      20.480414   19.887673   21.654839 C.2        1 MOL1        -0.1394
       7    H2      19.829219   20.758755   21.585845 H          1 MOL1         0.0817
       8    C4      20.032173   18.672783   20.869895 C.3        1 MOL1        -0.1849
       9    H3      20.902558   18.198176   20.396921 H          1 MOL1         0.0736
      10    H4      19.369205   18.981938   20.050633 H          1 MOL1         0.0736
      11    C5      19.308768   17.634827   21.755836 C.3        1 MOL1        -0.1866
      12    H5      19.102193   16.735406   21.159578 H          1 MOL1         0.0738
      13    H6      19.970181   17.322608   22.575885 H          1 MOL1         0.0738
      14    C6      17.982312   18.172557   22.333827 C.3        1 MOL1        -0.2879
      15    H7      17.299702   18.479296   21.530646 H          1 MOL1         0.0750
      16    H8      17.479418   17.399632   22.929304 H          1 MOL1         0.0750
      17    H9      18.156447   19.038846   22.985318 H          1 MOL1         0.0750
@<TRIPOS>BOND
    1     1     2    1
    2     1     3    2
    3     1     4    1
    4     4     5    1
    5     4     6    2
    6     6     7    1
    7     6     8    1
    8     8     9    1
    9     8    10    1
   10     8    11    1
   11    11    12    1
   12    11    13    1
   13    11    14    1
   14    14    15    1
   15    14    16    1
   16    14    17    1
@<TRIPOS>SUBSTRUCTURE
       1 MOL1            1 RESIDUE      1      MOL     
@<SCITEGIC>MOL_PROPERTY
VConf Rank
SciTegic.value.IntegerValue
863

@<SCITEGIC>MOL_PROPERTY
Conf_Id
SciTegic.value.IntegerValue
3

@<SCITEGIC>MOL_PROPERTY
Delta U+W
SciTegic.value.DoubleValue
0.531

@<SCITEGIC>MOL_PROPERTY
U+W
SciTegic.value.DoubleValue
-52.878

@<SCITEGIC>MOL_PROPERTY
Grad RMS
SciTegic.value.DoubleValue
0.000000

@<SCITEGIC>MOL_PROPERTY
U
SciTegic.value.DoubleValue
10.067

@<SCITEGIC>MOL_PROPERTY
W
SciTegic.value.DoubleValue
-62.945

@<SCITEGIC>MOL_PROPERTY
W(PB)
SciTegic.value.DoubleValue
-64.982

@<SCITEGIC>MOL_PROPERTY
W(SA)
SciTegic.value.DoubleValue
2.037

@<SCITEGIC>MOL_PROPERTY
Valence
SciTegic.value.DoubleValue
2.779

@<SCITEGIC>MOL_PROPERTY
Coulomb
SciTegic.value.DoubleValue
6.474

@<SCITEGIC>MOL_PROPERTY
VdW
SciTegic.value.DoubleValue
0.815

@<SCITEGIC>MOL_PROPERTY
VdW6
SciTegic.value.DoubleValue
-5.088

@<SCITEGIC>MOL_PROPERTY
VdW12
SciTegic.value.DoubleValue
5.902

@<SCITEGIC>MOL_PROPERTY
Bond
SciTegic.value.DoubleValue
0.078

@<SCITEGIC>MOL_PROPERTY
Angle
SciTegic.value.DoubleValue
2.651

@<SCITEGIC>MOL_PROPERTY
Pdih
SciTegic.value.DoubleValue
0.050

@<SCITEGIC>MOL_PROPERTY
Idih
SciTegic.value.DoubleValue
0.000

@<SCITEGIC>MOL_PROPERTY
Tether
SciTegic.value.DoubleValue
0.000

@<TRIPOS>MOLECULE
guest-s19_confgen4.mol2 : confsearch ligand conformer 864
          17          16           1
SMALL
USER_CHARGES
 
@<TRIPOS>ATOM
       1    C1      20.197230   20.725071   24.611792 C.2        1 MOL1         0.6173
       2    O1      20.372465   21.919684   24.753123 O.co2      1 MOL1        -0.6755
       3    O2      20.435251   19.914580   25.487519 O.co2      1 MOL1        -0.6755
       4    C2      19.664692   20.258587   23.303026 C.2        1 MOL1        -0.1504
       5    H1      19.473892   21.034542   22.565330 H          1 MOL1         0.0814
       6    C3      19.423996   18.960952   23.006729 C.2        1 MOL1        -0.1394
       7    H2      19.615834   18.176806   23.738735 H          1 MOL1         0.0817
       8    C4      18.884412   18.488885   21.672436 C.3        1 MOL1        -0.1849
       9    H3      18.437366   19.325588   21.118525 H          1 MOL1         0.0736
      10    H4      18.072471   17.770616   21.848078 H          1 MOL1         0.0736
      11    C5      19.970819   17.814661   20.806233 C.3        1 MOL1        -0.1866
      12    H5      20.420382   16.979190   21.360616 H          1 MOL1         0.0738
      13    H6      19.499515   17.381266   19.913350 H          1 MOL1         0.0738
      14    C6      21.074227   18.799644   20.364498 C.3        1 MOL1        -0.2879
      15    H7      21.612523   19.205915   21.230658 H          1 MOL1         0.0750
      16    H8      21.806006   18.295818   19.719886 H          1 MOL1         0.0750
      17    H9      20.647798   19.639915   19.801297 H          1 MOL1         0.0750
@<TRIPOS>BOND
    1     1     2    1
    2     1     3    2
    3     1     4    1
    4     4     5    1
    5     4     6    2
    6     6     7    1
    7     6     8    1
    8     8     9    1
    9     8    10    1
   10     8    11    1
   11    11    12    1
   12    11    13    1
   13    11    14    1
   14    14    15    1
   15    14    16    1
   16    14    17    1
@<TRIPOS>SUBSTRUCTURE
       1 MOL1            1 RESIDUE      1      MOL     
@<SCITEGIC>MOL_PROPERTY
VConf Rank
SciTegic.value.IntegerValue
864

@<SCITEGIC>MOL_PROPERTY
Conf_Id
SciTegic.value.IntegerValue
45

@<SCITEGIC>MOL_PROPERTY
Delta U+W
SciTegic.value.DoubleValue
0.562

@<SCITEGIC>MOL_PROPERTY
U+W
SciTegic.value.DoubleValue
-52.846

@<SCITEGIC>MOL_PROPERTY
Grad RMS
SciTegic.value.DoubleValue
0.000000

@<SCITEGIC>MOL_PROPERTY
U
SciTegic.value.DoubleValue
10.243

@<SCITEGIC>MOL_PROPERTY
W
SciTegic.value.DoubleValue
-63.089

@<SCITEGIC>MOL_PROPERTY
W(PB)
SciTegic.value.DoubleValue
-65.116

@<SCITEGIC>MOL_PROPERTY
W(SA)
SciTegic.value.DoubleValue
2.026

@<SCITEGIC>MOL_PROPERTY
Valence
SciTegic.value.DoubleValue
2.822

@<SCITEGIC>MOL_PROPERTY
Coulomb
SciTegic.value.DoubleValue
6.637

@<SCITEGIC>MOL_PROPERTY
VdW
SciTegic.value.DoubleValue
0.785

@<SCITEGIC>MOL_PROPERTY
VdW6
SciTegic.value.DoubleValue
-5.216

@<SCITEGIC>MOL_PROPERTY
VdW12
SciTegic.value.DoubleValue
6.001

@<SCITEGIC>MOL_PROPERTY
Bond
SciTegic.value.DoubleValue
0.080

@<SCITEGIC>MOL_PROPERTY
Angle
SciTegic.value.DoubleValue
2.678

@<SCITEGIC>MOL_PROPERTY
Pdih
SciTegic.value.DoubleValue
0.064

@<SCITEGIC>MOL_PROPERTY
Idih
SciTegic.value.DoubleValue
0.000

@<SCITEGIC>MOL_PROPERTY
Tether
SciTegic.value.DoubleValue
0.000

@<TRIPOS>MOLECULE
guest-s19_confgen4.mol2 : confsearch ligand conformer 865
          17          16           1
SMALL
USER_CHARGES
 
@<TRIPOS>ATOM
       1    C1      19.541032   21.212912   19.308958 C.2        1 MOL1         0.6173
       2    O1      18.518531   21.736087   18.910858 O.co2      1 MOL1        -0.6755
       3    O2      20.570307   21.196017   18.660343 O.co2      1 MOL1        -0.6755
       4    C2      19.508076   20.572909   20.651892 C.2        1 MOL1        -0.1504
       5    H1      18.557830   20.623526   21.178558 H          1 MOL1         0.0814
       6    C3      20.569048   19.954349   21.218291 C.2        1 MOL1        -0.1394
       7    H2      21.525125   19.895769   20.698428 H          1 MOL1         0.0817
       8    C4      20.526519   19.303992   22.583745 C.3        1 MOL1        -0.1849
       9    H3      19.917616   19.909157   23.269181 H          1 MOL1         0.0736
      10    H4      21.538922   19.274212   23.008644 H          1 MOL1         0.0736
      11    C5      19.956713   17.872756   22.506935 C.3        1 MOL1        -0.1866
      12    H5      18.942088   17.901220   22.085884 H          1 MOL1         0.0738
      13    H6      20.568566   17.268899   21.822420 H          1 MOL1         0.0738
      14    C6      19.918804   17.199367   23.893527 C.3        1 MOL1        -0.2879
      15    H7      20.926366   17.129225   24.324026 H          1 MOL1         0.0750
      16    H8      19.287425   17.767673   24.589102 H          1 MOL1         0.0750
      17    H9      19.510785   16.182965   23.818828 H          1 MOL1         0.0750
@<TRIPOS>BOND
    1     1     2    1
    2     1     3    2
    3     1     4    1
    4     4     5    1
    5     4     6    2
    6     6     7    1
    7     6     8    1
    8     8     9    1
    9     8    10    1
   10     8    11    1
   11    11    12    1
   12    11    13    1
   13    11    14    1
   14    14    15    1
   15    14    16    1
   16    14    17    1
@<TRIPOS>SUBSTRUCTURE
       1 MOL1            1 RESIDUE      1      MOL     
@<SCITEGIC>MOL_PROPERTY
VConf Rank
SciTegic.value.IntegerValue
865

@<SCITEGIC>MOL_PROPERTY
Conf_Id
SciTegic.value.IntegerValue
36

@<SCITEGIC>MOL_PROPERTY
Delta U+W
SciTegic.value.DoubleValue
0.000

@<SCITEGIC>MOL_PROPERTY
U+W
SciTegic.value.DoubleValue
-53.409

@<SCITEGIC>MOL_PROPERTY
Grad RMS
SciTegic.value.DoubleValue
0.000000

@<SCITEGIC>MOL_PROPERTY
U
SciTegic.value.DoubleValue
9.048

@<SCITEGIC>MOL_PROPERTY
W
SciTegic.value.DoubleValue
-62.457

@<SCITEGIC>MOL_PROPERTY
W(PB)
SciTegic.value.DoubleValue
-64.540

@<SCITEGIC>MOL_PROPERTY
W(SA)
SciTegic.value.DoubleValue
2.084

@<SCITEGIC>MOL_PROPERTY
Valence
SciTegic.value.DoubleValue
2.652

@<SCITEGIC>MOL_PROPERTY
Coulomb
SciTegic.value.DoubleValue
5.578

@<SCITEGIC>MOL_PROPERTY
VdW
SciTegic.value.DoubleValue
0.818

@<SCITEGIC>MOL_PROPERTY
VdW6
SciTegic.value.DoubleValue
-4.534

@<SCITEGIC>MOL_PROPERTY
VdW12
SciTegic.value.DoubleValue
5.352

@<SCITEGIC>MOL_PROPERTY
Bond
SciTegic.value.DoubleValue
0.063

@<SCITEGIC>MOL_PROPERTY
Angle
SciTegic.value.DoubleValue
2.579

@<SCITEGIC>MOL_PROPERTY
Pdih
SciTegic.value.DoubleValue
0.010

@<SCITEGIC>MOL_PROPERTY
Idih
SciTegic.value.DoubleValue
0.000

@<SCITEGIC>MOL_PROPERTY
Tether
SciTegic.value.DoubleValue
0.000

@<TRIPOS>MOLECULE
guest-s19_confgen4.mol2 : confsearch ligand conformer 866
          17          16           1
SMALL
USER_CHARGES
 
@<TRIPOS>ATOM
       1    C1      19.491438   18.349461   18.665387 C.2        1 MOL1         0.6173
       2    O1      18.664170   19.139797   18.251394 O.co2      1 MOL1        -0.6755
       3    O2      19.847642   17.374666   18.032457 O.co2      1 MOL1        -0.6755
       4    C2      20.109510   18.565035   20.001679 C.2        1 MOL1        -0.1504
       5    H1      20.841087   17.822302   20.311604 H          1 MOL1         0.0814
       6    C3      19.807739   19.604220   20.812921 C.2        1 MOL1        -0.1394
       7    H2      19.074650   20.352921   20.513255 H          1 MOL1         0.0817
       8    C4      20.439628   19.815125   22.171403 C.3        1 MOL1        -0.1849
       9    H3      20.397991   20.880567   22.435007 H          1 MOL1         0.0736
      10    H4      21.503393   19.543027   22.137119 H          1 MOL1         0.0736
      11    C5      19.725088   18.986232   23.258319 C.3        1 MOL1        -0.1866
      12    H5      18.661819   19.261698   23.292160 H          1 MOL1         0.0738
      13    H6      19.769404   17.919503   22.998154 H          1 MOL1         0.0738
      14    C6      20.357479   19.202827   24.647813 C.3        1 MOL1        -0.2879
      15    H7      20.297905   20.257626   24.946612 H          1 MOL1         0.0750
      16    H8      19.836280   18.605602   25.407288 H          1 MOL1         0.0750
      17    H9      21.414270   18.905125   24.649172 H          1 MOL1         0.0750
@<TRIPOS>BOND
    1     1     2    1
    2     1     3    2
    3     1     4    1
    4     4     5    1
    5     4     6    2
    6     6     7    1
    7     6     8    1
    8     8     9    1
    9     8    10    1
   10     8    11    1
   11    11    12    1
   12    11    13    1
   13    11    14    1
   14    14    15    1
   15    14    16    1
   16    14    17    1
@<TRIPOS>SUBSTRUCTURE
       1 MOL1            1 RESIDUE      1      MOL     
@<SCITEGIC>MOL_PROPERTY
VConf Rank
SciTegic.value.IntegerValue
866

@<SCITEGIC>MOL_PROPERTY
Conf_Id
SciTegic.value.IntegerValue
1

@<SCITEGIC>MOL_PROPERTY
Delta U+W
SciTegic.value.DoubleValue
0.030

@<SCITEGIC>MOL_PROPERTY
U+W
SciTegic.value.DoubleValue
-53.378

@<SCITEGIC>MOL_PROPERTY
Grad RMS
SciTegic.value.DoubleValue
0.000000

@<SCITEGIC>MOL_PROPERTY
U
SciTegic.value.DoubleValue
9.048

@<SCITEGIC>MOL_PROPERTY
W
SciTegic.value.DoubleValue
-62.426

@<SCITEGIC>MOL_PROPERTY
W(PB)
SciTegic.value.DoubleValue
-64.506

@<SCITEGIC>MOL_PROPERTY
W(SA)
SciTegic.value.DoubleValue
2.080

@<SCITEGIC>MOL_PROPERTY
Valence
SciTegic.value.DoubleValue
2.652

@<SCITEGIC>MOL_PROPERTY
Coulomb
SciTegic.value.DoubleValue
5.578

@<SCITEGIC>MOL_PROPERTY
VdW
SciTegic.value.DoubleValue
0.818

@<SCITEGIC>MOL_PROPERTY
VdW6
SciTegic.value.DoubleValue
-4.535

@<SCITEGIC>MOL_PROPERTY
VdW12
SciTegic.value.DoubleValue
5.352

@<SCITEGIC>MOL_PROPERTY
Bond
SciTegic.value.DoubleValue
0.063

@<SCITEGIC>MOL_PROPERTY
Angle
SciTegic.value.DoubleValue
2.579

@<SCITEGIC>MOL_PROPERTY
Pdih
SciTegic.value.DoubleValue
0.010

@<SCITEGIC>MOL_PROPERTY
Idih
SciTegic.value.DoubleValue
0.000

@<SCITEGIC>MOL_PROPERTY
Tether
SciTegic.value.DoubleValue
0.000

@<TRIPOS>MOLECULE
guest-s19_confgen4.mol2 : confsearch ligand conformer 867
          17          16           1
SMALL
USER_CHARGES
 
@<TRIPOS>ATOM
       1    C1      21.865479   18.799666   24.499548 C.2        1 MOL1         0.6173
       2    O1      21.039340   18.677939   25.384487 O.co2      1 MOL1        -0.6755
       3    O2      23.039051   18.520272   24.649477 O.co2      1 MOL1        -0.6755
       4    C2      21.446182   19.314272   23.167834 C.2        1 MOL1        -0.1504
       5    H1      22.233538   19.399595   22.422481 H          1 MOL1         0.0814
       6    C3      20.176073   19.662337   22.860164 C.2        1 MOL1        -0.1394
       7    H2      19.378833   19.577633   23.598291 H          1 MOL1         0.0817
       8    C4      19.756036   20.181744   21.501194 C.3        1 MOL1        -0.1849
       9    H3      20.518185   20.874904   21.120162 H          1 MOL1         0.0736
      10    H4      18.830572   20.765716   21.594936 H          1 MOL1         0.0736
      11    C5      19.547810   19.045138   20.476339 C.3        1 MOL1        -0.1866
      12    H5      19.349268   19.483883   19.488798 H          1 MOL1         0.0738
      13    H6      20.472651   18.459725   20.379442 H          1 MOL1         0.0738
      14    C6      18.379181   18.111587   20.857786 C.3        1 MOL1        -0.2879
      15    H7      17.440683   18.673937   20.947943 H          1 MOL1         0.0750
      16    H8      18.238212   17.337357   20.092539 H          1 MOL1         0.0750
      17    H9      18.570461   17.608095   21.814410 H          1 MOL1         0.0750
@<TRIPOS>BOND
    1     1     2    1
    2     1     3    2
    3     1     4    1
    4     4     5    1
    5     4     6    2
    6     6     7    1
    7     6     8    1
    8     8     9    1
    9     8    10    1
   10     8    11    1
   11    11    12    1
   12    11    13    1
   13    11    14    1
   14    14    15    1
   15    14    16    1
   16    14    17    1
@<TRIPOS>SUBSTRUCTURE
       1 MOL1            1 RESIDUE      1      MOL     
@<SCITEGIC>MOL_PROPERTY
VConf Rank
SciTegic.value.IntegerValue
867

@<SCITEGIC>MOL_PROPERTY
Conf_Id
SciTegic.value.IntegerValue
3

@<SCITEGIC>MOL_PROPERTY
Delta U+W
SciTegic.value.DoubleValue
0.531

@<SCITEGIC>MOL_PROPERTY
U+W
SciTegic.value.DoubleValue
-52.878

@<SCITEGIC>MOL_PROPERTY
Grad RMS
SciTegic.value.DoubleValue
0.000000

@<SCITEGIC>MOL_PROPERTY
U
SciTegic.value.DoubleValue
10.067

@<SCITEGIC>MOL_PROPERTY
W
SciTegic.value.DoubleValue
-62.945

@<SCITEGIC>MOL_PROPERTY
W(PB)
SciTegic.value.DoubleValue
-64.982

@<SCITEGIC>MOL_PROPERTY
W(SA)
SciTegic.value.DoubleValue
2.037

@<SCITEGIC>MOL_PROPERTY
Valence
SciTegic.value.DoubleValue
2.779

@<SCITEGIC>MOL_PROPERTY
Coulomb
SciTegic.value.DoubleValue
6.474

@<SCITEGIC>MOL_PROPERTY
VdW
SciTegic.value.DoubleValue
0.815

@<SCITEGIC>MOL_PROPERTY
VdW6
SciTegic.value.DoubleValue
-5.088

@<SCITEGIC>MOL_PROPERTY
VdW12
SciTegic.value.DoubleValue
5.902

@<SCITEGIC>MOL_PROPERTY
Bond
SciTegic.value.DoubleValue
0.078

@<SCITEGIC>MOL_PROPERTY
Angle
SciTegic.value.DoubleValue
2.651

@<SCITEGIC>MOL_PROPERTY
Pdih
SciTegic.value.DoubleValue
0.050

@<SCITEGIC>MOL_PROPERTY
Idih
SciTegic.value.DoubleValue
0.000

@<SCITEGIC>MOL_PROPERTY
Tether
SciTegic.value.DoubleValue
0.000

@<TRIPOS>MOLECULE
guest-s19_confgen4.mol2 : confsearch ligand conformer 868
          17          16           1
SMALL
USER_CHARGES
 
@<TRIPOS>ATOM
       1    C1      21.327887   18.818928   19.390575 C.2        1 MOL1         0.6173
       2    O1      21.725927   17.819519   18.824426 O.co2      1 MOL1        -0.6755
       3    O2      21.729717   19.935187   19.120490 O.co2      1 MOL1        -0.6755
       4    C2      20.302248   18.643909   20.454298 C.2        1 MOL1        -0.1504
       5    H1      19.987261   17.620637   20.645095 H          1 MOL1         0.0814
       6    C3      19.773085   19.665059   21.166213 C.2        1 MOL1        -0.1394
       7    H2      20.085744   20.692952   20.984006 H          1 MOL1         0.0817
       8    C4      18.731073   19.483420   22.250443 C.3        1 MOL1        -0.1849
       9    H3      18.253942   18.497493   22.166569 H          1 MOL1         0.0736
      10    H4      17.931704   20.222576   22.106683 H          1 MOL1         0.0736
      11    C5      19.322777   19.654726   23.666673 C.3        1 MOL1        -0.1866
      12    H5      19.802588   20.639712   23.750597 H          1 MOL1         0.0738
      13    H6      18.505437   19.640277   24.400801 H          1 MOL1         0.0738
      14    C6      20.338895   18.548860   24.023594 C.3        1 MOL1        -0.2879
      15    H7      21.204390   18.573341   23.348781 H          1 MOL1         0.0750
      16    H8      20.708133   18.680169   25.048917 H          1 MOL1         0.0750
      17    H9      19.878070   17.554957   23.953672 H          1 MOL1         0.0750
@<TRIPOS>BOND
    1     1     2    1
    2     1     3    2
    3     1     4    1
    4     4     5    1
    5     4     6    2
    6     6     7    1
    7     6     8    1
    8     8     9    1
    9     8    10    1
   10     8    11    1
   11    11    12    1
   12    11    13    1
   13    11    14    1
   14    14    15    1
   15    14    16    1
   16    14    17    1
@<TRIPOS>SUBSTRUCTURE
       1 MOL1            1 RESIDUE      1      MOL     
@<SCITEGIC>MOL_PROPERTY
VConf Rank
SciTegic.value.IntegerValue
868

@<SCITEGIC>MOL_PROPERTY
Conf_Id
SciTegic.value.IntegerValue
45

@<SCITEGIC>MOL_PROPERTY
Delta U+W
SciTegic.value.DoubleValue
0.562

@<SCITEGIC>MOL_PROPERTY
U+W
SciTegic.value.DoubleValue
-52.846

@<SCITEGIC>MOL_PROPERTY
Grad RMS
SciTegic.value.DoubleValue
0.000000

@<SCITEGIC>MOL_PROPERTY
U
SciTegic.value.DoubleValue
10.243

@<SCITEGIC>MOL_PROPERTY
W
SciTegic.value.DoubleValue
-63.089

@<SCITEGIC>MOL_PROPERTY
W(PB)
SciTegic.value.DoubleValue
-65.116

@<SCITEGIC>MOL_PROPERTY
W(SA)
SciTegic.value.DoubleValue
2.026

@<SCITEGIC>MOL_PROPERTY
Valence
SciTegic.value.DoubleValue
2.822

@<SCITEGIC>MOL_PROPERTY
Coulomb
SciTegic.value.DoubleValue
6.637

@<SCITEGIC>MOL_PROPERTY
VdW
SciTegic.value.DoubleValue
0.785

@<SCITEGIC>MOL_PROPERTY
VdW6
SciTegic.value.DoubleValue
-5.216

@<SCITEGIC>MOL_PROPERTY
VdW12
SciTegic.value.DoubleValue
6.001

@<SCITEGIC>MOL_PROPERTY
Bond
SciTegic.value.DoubleValue
0.080

@<SCITEGIC>MOL_PROPERTY
Angle
SciTegic.value.DoubleValue
2.678

@<SCITEGIC>MOL_PROPERTY
Pdih
SciTegic.value.DoubleValue
0.064

@<SCITEGIC>MOL_PROPERTY
Idih
SciTegic.value.DoubleValue
0.000

@<SCITEGIC>MOL_PROPERTY
Tether
SciTegic.value.DoubleValue
0.000

@<TRIPOS>MOLECULE
guest-s19_confgen4.mol2 : confsearch ligand conformer 869
          17          16           1
SMALL
USER_CHARGES
 
@<TRIPOS>ATOM
       1    C1      21.583205   17.814996   19.239057 C.2        1 MOL1         0.6173
       2    O1      22.750400   17.914239   18.914232 O.co2      1 MOL1        -0.6755
       3    O2      20.723451   17.387932   18.491505 O.co2      1 MOL1        -0.6755
       4    C2      21.214489   18.239402   20.616768 C.2        1 MOL1        -0.1504
       5    H1      22.029886   18.611206   21.233046 H          1 MOL1         0.0814
       6    C3      19.956714   18.185282   21.110892 C.2        1 MOL1        -0.1394
       7    H2      19.131901   17.816718   20.501288 H          1 MOL1         0.0817
       8    C4      19.589783   18.620956   22.512601 C.3        1 MOL1        -0.1849
       9    H3      20.381298   18.328625   23.216061 H          1 MOL1         0.0736
      10    H4      18.678261   18.098780   22.833298 H          1 MOL1         0.0736
      11    C5      19.364590   20.145045   22.586461 C.3        1 MOL1        -0.1866
      12    H5      20.277150   20.669047   22.269893 H          1 MOL1         0.0738
      13    H6      18.571140   20.434687   21.883529 H          1 MOL1         0.0738
      14    C6      18.980900   20.596014   24.010165 C.3        1 MOL1        -0.2879
      15    H7      18.052915   20.110417   24.339513 H          1 MOL1         0.0750
      16    H8      19.772666   20.345512   24.728351 H          1 MOL1         0.0750
      17    H9      18.825003   21.682178   24.042955 H          1 MOL1         0.0750
@<TRIPOS>BOND
    1     1     2    1
    2     1     3    2
    3     1     4    1
    4     4     5    1
    5     4     6    2
    6     6     7    1
    7     6     8    1
    8     8     9    1
    9     8    10    1
   10     8    11    1
   11    11    12    1
   12    11    13    1
   13    11    14    1
   14    14    15    1
   15    14    16    1
   16    14    17    1
@<TRIPOS>SUBSTRUCTURE
       1 MOL1            1 RESIDUE      1      MOL     
@<SCITEGIC>MOL_PROPERTY
VConf Rank
SciTegic.value.IntegerValue
869

@<SCITEGIC>MOL_PROPERTY
Conf_Id
SciTegic.value.IntegerValue
36

@<SCITEGIC>MOL_PROPERTY
Delta U+W
SciTegic.value.DoubleValue
0.000

@<SCITEGIC>MOL_PROPERTY
U+W
SciTegic.value.DoubleValue
-53.409

@<SCITEGIC>MOL_PROPERTY
Grad RMS
SciTegic.value.DoubleValue
0.000000

@<SCITEGIC>MOL_PROPERTY
U
SciTegic.value.DoubleValue
9.048

@<SCITEGIC>MOL_PROPERTY
W
SciTegic.value.DoubleValue
-62.457

@<SCITEGIC>MOL_PROPERTY
W(PB)
SciTegic.value.DoubleValue
-64.540

@<SCITEGIC>MOL_PROPERTY
W(SA)
SciTegic.value.DoubleValue
2.084

@<SCITEGIC>MOL_PROPERTY
Valence
SciTegic.value.DoubleValue
2.652

@<SCITEGIC>MOL_PROPERTY
Coulomb
SciTegic.value.DoubleValue
5.578

@<SCITEGIC>MOL_PROPERTY
VdW
SciTegic.value.DoubleValue
0.818

@<SCITEGIC>MOL_PROPERTY
VdW6
SciTegic.value.DoubleValue
-4.534

@<SCITEGIC>MOL_PROPERTY
VdW12
SciTegic.value.DoubleValue
5.352

@<SCITEGIC>MOL_PROPERTY
Bond
SciTegic.value.DoubleValue
0.063

@<SCITEGIC>MOL_PROPERTY
Angle
SciTegic.value.DoubleValue
2.579

@<SCITEGIC>MOL_PROPERTY
Pdih
SciTegic.value.DoubleValue
0.010

@<SCITEGIC>MOL_PROPERTY
Idih
SciTegic.value.DoubleValue
0.000

@<SCITEGIC>MOL_PROPERTY
Tether
SciTegic.value.DoubleValue
0.000

@<TRIPOS>MOLECULE
guest-s19_confgen4.mol2 : confsearch ligand conformer 870
          17          16           1
SMALL
USER_CHARGES
 
@<TRIPOS>ATOM
       1    C1      18.182888   16.401913   22.797252 C.2        1 MOL1         0.6173
       2    O1      17.259686   16.329082   22.008084 O.co2      1 MOL1        -0.6755
       3    O2      18.240953   15.730423   23.808902 O.co2      1 MOL1        -0.6755
       4    C2      19.302390   17.346011   22.533514 C.2        1 MOL1        -0.1504
       5    H1      20.095295   17.361733   23.277801 H          1 MOL1         0.0814
       6    C3      19.368283   18.153283   21.450437 C.2        1 MOL1        -0.1394
       7    H2      18.578292   18.147188   20.699669 H          1 MOL1         0.0817
       8    C4      20.509591   19.112012   21.190639 C.3        1 MOL1        -0.1849
       9    H3      20.583517   19.312514   20.113271 H          1 MOL1         0.0736
      10    H4      21.461626   18.652199   21.488978 H          1 MOL1         0.0736
      11    C5      20.312151   20.439745   21.950350 C.3        1 MOL1        -0.1866
      12    H5      19.360387   20.898772   21.648678 H          1 MOL1         0.0738
      13    H6      20.242092   20.241317   23.028903 H          1 MOL1         0.0738
      14    C6      21.466860   21.426113   21.683419 C.3        1 MOL1        -0.2879
      15    H7      21.539148   21.666589   20.614599 H          1 MOL1         0.0750
      16    H8      21.308950   22.363936   22.231763 H          1 MOL1         0.0750
      17    H9      22.427383   21.002902   22.005483 H          1 MOL1         0.0750
@<TRIPOS>BOND
    1     1     2    1
    2     1     3    2
    3     1     4    1
    4     4     5    1
    5     4     6    2
    6     6     7    1
    7     6     8    1
    8     8     9    1
    9     8    10    1
   10     8    11    1
   11    11    12    1
   12    11    13    1
   13    11    14    1
   14    14    15    1
   15    14    16    1
   16    14    17    1
@<TRIPOS>SUBSTRUCTURE
       1 MOL1            1 RESIDUE      1      MOL     
@<SCITEGIC>MOL_PROPERTY
VConf Rank
SciTegic.value.IntegerValue
870

@<SCITEGIC>MOL_PROPERTY
Conf_Id
SciTegic.value.IntegerValue
1

@<SCITEGIC>MOL_PROPERTY
Delta U+W
SciTegic.value.DoubleValue
0.030

@<SCITEGIC>MOL_PROPERTY
U+W
SciTegic.value.DoubleValue
-53.378

@<SCITEGIC>MOL_PROPERTY
Grad RMS
SciTegic.value.DoubleValue
0.000000

@<SCITEGIC>MOL_PROPERTY
U
SciTegic.value.DoubleValue
9.048

@<SCITEGIC>MOL_PROPERTY
W
SciTegic.value.DoubleValue
-62.426

@<SCITEGIC>MOL_PROPERTY
W(PB)
SciTegic.value.DoubleValue
-64.506

@<SCITEGIC>MOL_PROPERTY
W(SA)
SciTegic.value.DoubleValue
2.080

@<SCITEGIC>MOL_PROPERTY
Valence
SciTegic.value.DoubleValue
2.652

@<SCITEGIC>MOL_PROPERTY
Coulomb
SciTegic.value.DoubleValue
5.578

@<SCITEGIC>MOL_PROPERTY
VdW
SciTegic.value.DoubleValue
0.818

@<SCITEGIC>MOL_PROPERTY
VdW6
SciTegic.value.DoubleValue
-4.535

@<SCITEGIC>MOL_PROPERTY
VdW12
SciTegic.value.DoubleValue
5.352

@<SCITEGIC>MOL_PROPERTY
Bond
SciTegic.value.DoubleValue
0.063

@<SCITEGIC>MOL_PROPERTY
Angle
SciTegic.value.DoubleValue
2.579

@<SCITEGIC>MOL_PROPERTY
Pdih
SciTegic.value.DoubleValue
0.010

@<SCITEGIC>MOL_PROPERTY
Idih
SciTegic.value.DoubleValue
0.000

@<SCITEGIC>MOL_PROPERTY
Tether
SciTegic.value.DoubleValue
0.000

@<TRIPOS>MOLECULE
guest-s19_confgen4.mol2 : confsearch ligand conformer 871
          17          16           1
SMALL
USER_CHARGES
 
@<TRIPOS>ATOM
       1    C1      18.588987   16.594391   20.934660 C.2        1 MOL1         0.6173
       2    O1      19.548295   15.909699   20.632393 O.co2      1 MOL1        -0.6755
       3    O2      17.462672   16.146955   21.029672 O.co2      1 MOL1        -0.6755
       4    C2      18.776514   18.046261   21.201117 C.2        1 MOL1        -0.1504
       5    H1      17.878692   18.600286   21.465184 H          1 MOL1         0.0814
       6    C3      19.971075   18.676714   21.133747 C.2        1 MOL1        -0.1394
       7    H2      20.877487   18.130594   20.873424 H          1 MOL1         0.0817
       8    C4      20.154867   20.154163   21.410116 C.3        1 MOL1        -0.1849
       9    H3      19.322173   20.717906   20.968143 H          1 MOL1         0.0736
      10    H4      21.066195   20.515594   20.914998 H          1 MOL1         0.0736
      11    C5      20.230555   20.464360   22.921278 C.3        1 MOL1        -0.1866
      12    H5      20.257046   21.553502   23.063483 H          1 MOL1         0.0738
      13    H6      19.319382   20.104942   23.419285 H          1 MOL1         0.0738
      14    C6      21.471421   19.837670   23.592265 C.3        1 MOL1        -0.2879
      15    H7      22.395670   20.192948   23.118252 H          1 MOL1         0.0750
      16    H8      21.511462   20.105477   24.656024 H          1 MOL1         0.0750
      17    H9      21.449062   18.742337   23.521791 H          1 MOL1         0.0750
@<TRIPOS>BOND
    1     1     2    1
    2     1     3    2
    3     1     4    1
    4     4     5    1
    5     4     6    2
    6     6     7    1
    7     6     8    1
    8     8     9    1
    9     8    10    1
   10     8    11    1
   11    11    12    1
   12    11    13    1
   13    11    14    1
   14    14    15    1
   15    14    16    1
   16    14    17    1
@<TRIPOS>SUBSTRUCTURE
       1 MOL1            1 RESIDUE      1      MOL     
@<SCITEGIC>MOL_PROPERTY
VConf Rank
SciTegic.value.IntegerValue
871

@<SCITEGIC>MOL_PROPERTY
Conf_Id
SciTegic.value.IntegerValue
3

@<SCITEGIC>MOL_PROPERTY
Delta U+W
SciTegic.value.DoubleValue
0.531

@<SCITEGIC>MOL_PROPERTY
U+W
SciTegic.value.DoubleValue
-52.878

@<SCITEGIC>MOL_PROPERTY
Grad RMS
SciTegic.value.DoubleValue
0.000000

@<SCITEGIC>MOL_PROPERTY
U
SciTegic.value.DoubleValue
10.067

@<SCITEGIC>MOL_PROPERTY
W
SciTegic.value.DoubleValue
-62.945

@<SCITEGIC>MOL_PROPERTY
W(PB)
SciTegic.value.DoubleValue
-64.982

@<SCITEGIC>MOL_PROPERTY
W(SA)
SciTegic.value.DoubleValue
2.037

@<SCITEGIC>MOL_PROPERTY
Valence
SciTegic.value.DoubleValue
2.779

@<SCITEGIC>MOL_PROPERTY
Coulomb
SciTegic.value.DoubleValue
6.474

@<SCITEGIC>MOL_PROPERTY
VdW
SciTegic.value.DoubleValue
0.815

@<SCITEGIC>MOL_PROPERTY
VdW6
SciTegic.value.DoubleValue
-5.088

@<SCITEGIC>MOL_PROPERTY
VdW12
SciTegic.value.DoubleValue
5.902

@<SCITEGIC>MOL_PROPERTY
Bond
SciTegic.value.DoubleValue
0.078

@<SCITEGIC>MOL_PROPERTY
Angle
SciTegic.value.DoubleValue
2.651

@<SCITEGIC>MOL_PROPERTY
Pdih
SciTegic.value.DoubleValue
0.050

@<SCITEGIC>MOL_PROPERTY
Idih
SciTegic.value.DoubleValue
0.000

@<SCITEGIC>MOL_PROPERTY
Tether
SciTegic.value.DoubleValue
0.000

@<TRIPOS>MOLECULE
guest-s19_confgen4.mol2 : confsearch ligand conformer 872
          17          16           1
SMALL
USER_CHARGES
 
@<TRIPOS>ATOM
       1    C1      19.803821   22.078873   21.616491 C.2        1 MOL1         0.6173
       2    O1      20.105622   22.729887   20.635228 O.co2      1 MOL1        -0.6755
       3    O2      19.706872   22.565371   22.727513 O.co2      1 MOL1        -0.6755
       4    C2      19.543396   20.626519   21.424347 C.2        1 MOL1        -0.1504
       5    H1      19.647467   20.256978   20.406843 H          1 MOL1         0.0814
       6    C3      19.201741   19.783311   22.425275 C.2        1 MOL1        -0.1394
       7    H2      19.098891   20.144533   23.448241 H          1 MOL1         0.0817
       8    C4      18.939937   18.304639   22.226977 C.3        1 MOL1        -0.1849
       9    H3      18.762080   18.082578   21.165942 H          1 MOL1         0.0736
      10    H4      18.017067   18.030105   22.755136 H          1 MOL1         0.0736
      11    C5      20.097765   17.428609   22.753448 C.3        1 MOL1        -0.1866
      12    H5      20.278098   17.652017   23.814122 H          1 MOL1         0.0738
      13    H6      19.800245   16.372210   22.701471 H          1 MOL1         0.0738
      14    C6      21.402250   17.623687   21.951517 C.3        1 MOL1        -0.2879
      15    H7      21.766744   18.655947   22.032984 H          1 MOL1         0.0750
      16    H8      22.189946   16.958271   22.327847 H          1 MOL1         0.0750
      17    H9      21.246936   17.398188   20.888446 H          1 MOL1         0.0750
@<TRIPOS>BOND
    1     1     2    1
    2     1     3    2
    3     1     4    1
    4     4     5    1
    5     4     6    2
    6     6     7    1
    7     6     8    1
    8     8     9    1
    9     8    10    1
   10     8    11    1
   11    11    12    1
   12    11    13    1
   13    11    14    1
   14    14    15    1
   15    14    16    1
   16    14    17    1
@<TRIPOS>SUBSTRUCTURE
       1 MOL1            1 RESIDUE      1      MOL     
@<SCITEGIC>MOL_PROPERTY
VConf Rank
SciTegic.value.IntegerValue
872

@<SCITEGIC>MOL_PROPERTY
Conf_Id
SciTegic.value.IntegerValue
45

@<SCITEGIC>MOL_PROPERTY
Delta U+W
SciTegic.value.DoubleValue
0.562

@<SCITEGIC>MOL_PROPERTY
U+W
SciTegic.value.DoubleValue
-52.846

@<SCITEGIC>MOL_PROPERTY
Grad RMS
SciTegic.value.DoubleValue
0.000000

@<SCITEGIC>MOL_PROPERTY
U
SciTegic.value.DoubleValue
10.243

@<SCITEGIC>MOL_PROPERTY
W
SciTegic.value.DoubleValue
-63.089

@<SCITEGIC>MOL_PROPERTY
W(PB)
SciTegic.value.DoubleValue
-65.116

@<SCITEGIC>MOL_PROPERTY
W(SA)
SciTegic.value.DoubleValue
2.026

@<SCITEGIC>MOL_PROPERTY
Valence
SciTegic.value.DoubleValue
2.822

@<SCITEGIC>MOL_PROPERTY
Coulomb
SciTegic.value.DoubleValue
6.637

@<SCITEGIC>MOL_PROPERTY
VdW
SciTegic.value.DoubleValue
0.785

@<SCITEGIC>MOL_PROPERTY
VdW6
SciTegic.value.DoubleValue
-5.216

@<SCITEGIC>MOL_PROPERTY
VdW12
SciTegic.value.DoubleValue
6.001

@<SCITEGIC>MOL_PROPERTY
Bond
SciTegic.value.DoubleValue
0.080

@<SCITEGIC>MOL_PROPERTY
Angle
SciTegic.value.DoubleValue
2.678

@<SCITEGIC>MOL_PROPERTY
Pdih
SciTegic.value.DoubleValue
0.064

@<SCITEGIC>MOL_PROPERTY
Idih
SciTegic.value.DoubleValue
0.000

@<SCITEGIC>MOL_PROPERTY
Tether
SciTegic.value.DoubleValue
0.000

@<TRIPOS>MOLECULE
guest-s19_confgen4.mol2 : confsearch ligand conformer 873
          17          16           1
SMALL
USER_CHARGES
 
@<TRIPOS>ATOM
       1    C1      22.105975   16.488436   21.883024 C.2        1 MOL1         0.6173
       2    O1      22.340046   15.699814   20.988044 O.co2      1 MOL1        -0.6755
       3    O2      22.457635   16.305626   23.033376 O.co2      1 MOL1        -0.6755
       4    C2      21.356391   17.724810   21.531364 C.2        1 MOL1        -0.1504
       5    H1      21.072083   17.826436   20.486495 H          1 MOL1         0.0814
       6    C3      21.026542   18.685838   22.423949 C.2        1 MOL1        -0.1394
       7    H2      21.304339   18.593012   23.473704 H          1 MOL1         0.0817
       8    C4      20.262082   19.939332   22.058445 C.3        1 MOL1        -0.1849
       9    H3      20.590061   20.306315   21.076324 H          1 MOL1         0.0736
      10    H4      20.491275   20.733852   22.781353 H          1 MOL1         0.0736
      11    C5      18.741133   19.683829   22.037289 C.3        1 MOL1        -0.1866
      12    H5      18.509655   18.891986   21.311368 H          1 MOL1         0.0738
      13    H6      18.415179   19.318828   23.021208 H          1 MOL1         0.0738
      14    C6      17.954078   20.959218   21.674725 C.3        1 MOL1        -0.2879
      15    H7      18.142936   21.758134   22.403764 H          1 MOL1         0.0750
      16    H8      18.239394   21.327610   20.680583 H          1 MOL1         0.0750
      17    H9      16.874947   20.757962   21.664603 H          1 MOL1         0.0750
@<TRIPOS>BOND
    1     1     2    1
    2     1     3    2
    3     1     4    1
    4     4     5    1
    5     4     6    2
    6     6     7    1
    7     6     8    1
    8     8     9    1
    9     8    10    1
   10     8    11    1
   11    11    12    1
   12    11    13    1
   13    11    14    1
   14    14    15    1
   15    14    16    1
   16    14    17    1
@<TRIPOS>SUBSTRUCTURE
       1 MOL1            1 RESIDUE      1      MOL     
@<SCITEGIC>MOL_PROPERTY
VConf Rank
SciTegic.value.IntegerValue
873

@<SCITEGIC>MOL_PROPERTY
Conf_Id
SciTegic.value.IntegerValue
36

@<SCITEGIC>MOL_PROPERTY
Delta U+W
SciTegic.value.DoubleValue
0.000

@<SCITEGIC>MOL_PROPERTY
U+W
SciTegic.value.DoubleValue
-53.409

@<SCITEGIC>MOL_PROPERTY
Grad RMS
SciTegic.value.DoubleValue
0.000000

@<SCITEGIC>MOL_PROPERTY
U
SciTegic.value.DoubleValue
9.048

@<SCITEGIC>MOL_PROPERTY
W
SciTegic.value.DoubleValue
-62.457

@<SCITEGIC>MOL_PROPERTY
W(PB)
SciTegic.value.DoubleValue
-64.540

@<SCITEGIC>MOL_PROPERTY
W(SA)
SciTegic.value.DoubleValue
2.084

@<SCITEGIC>MOL_PROPERTY
Valence
SciTegic.value.DoubleValue
2.652

@<SCITEGIC>MOL_PROPERTY
Coulomb
SciTegic.value.DoubleValue
5.578

@<SCITEGIC>MOL_PROPERTY
VdW
SciTegic.value.DoubleValue
0.818

@<SCITEGIC>MOL_PROPERTY
VdW6
SciTegic.value.DoubleValue
-4.534

@<SCITEGIC>MOL_PROPERTY
VdW12
SciTegic.value.DoubleValue
5.352

@<SCITEGIC>MOL_PROPERTY
Bond
SciTegic.value.DoubleValue
0.063

@<SCITEGIC>MOL_PROPERTY
Angle
SciTegic.value.DoubleValue
2.579

@<SCITEGIC>MOL_PROPERTY
Pdih
SciTegic.value.DoubleValue
0.010

@<SCITEGIC>MOL_PROPERTY
Idih
SciTegic.value.DoubleValue
0.000

@<SCITEGIC>MOL_PROPERTY
Tether
SciTegic.value.DoubleValue
0.000

@<TRIPOS>MOLECULE
guest-s19_confgen4.mol2 : confsearch ligand conformer 874
          17          16           1
SMALL
USER_CHARGES
 
@<TRIPOS>ATOM
       1    C1      18.136149   16.443044   21.004164 C.2        1 MOL1         0.6173
       2    O1      18.724969   15.447499   21.381753 O.co2      1 MOL1        -0.6755
       3    O2      17.176505   16.399584   20.259248 O.co2      1 MOL1        -0.6755
       4    C2      18.591072   17.783846   21.461831 C.2        1 MOL1        -0.1504
       5    H1      18.021499   18.631504   21.087704 H          1 MOL1         0.0814
       6    C3      19.642910   17.981196   22.288739 C.2        1 MOL1        -0.1394
       7    H2      20.221838   17.139188   22.667736 H          1 MOL1         0.0817
       8    C4      20.100200   19.348401   22.747952 C.3        1 MOL1        -0.1849
       9    H3      20.634538   19.255899   23.703104 H          1 MOL1         0.0736
      10    H4      19.229911   19.991353   22.937731 H          1 MOL1         0.0736
      11    C5      21.020640   20.013080   21.703917 C.3        1 MOL1        -0.1866
      12    H5      21.891377   19.369188   21.517410 H          1 MOL1         0.0738
      13    H6      20.486104   20.110123   20.748713 H          1 MOL1         0.0738
      14    C6      21.498622   21.403423   22.168679 C.3        1 MOL1        -0.2879
      15    H7      22.064224   21.331183   23.106926 H          1 MOL1         0.0750
      16    H8      22.151698   21.860185   21.413702 H          1 MOL1         0.0750
      17    H9      20.647234   22.077038   22.332435 H          1 MOL1         0.0750
@<TRIPOS>BOND
    1     1     2    1
    2     1     3    2
    3     1     4    1
    4     4     5    1
    5     4     6    2
    6     6     7    1
    7     6     8    1
    8     8     9    1
    9     8    10    1
   10     8    11    1
   11    11    12    1
   12    11    13    1
   13    11    14    1
   14    14    15    1
   15    14    16    1
   16    14    17    1
@<TRIPOS>SUBSTRUCTURE
       1 MOL1            1 RESIDUE      1      MOL     
@<SCITEGIC>MOL_PROPERTY
VConf Rank
SciTegic.value.IntegerValue
874

@<SCITEGIC>MOL_PROPERTY
Conf_Id
SciTegic.value.IntegerValue
1

@<SCITEGIC>MOL_PROPERTY
Delta U+W
SciTegic.value.DoubleValue
0.030

@<SCITEGIC>MOL_PROPERTY
U+W
SciTegic.value.DoubleValue
-53.378

@<SCITEGIC>MOL_PROPERTY
Grad RMS
SciTegic.value.DoubleValue
0.000000

@<SCITEGIC>MOL_PROPERTY
U
SciTegic.value.DoubleValue
9.048

@<SCITEGIC>MOL_PROPERTY
W
SciTegic.value.DoubleValue
-62.426

@<SCITEGIC>MOL_PROPERTY
W(PB)
SciTegic.value.DoubleValue
-64.506

@<SCITEGIC>MOL_PROPERTY
W(SA)
SciTegic.value.DoubleValue
2.080

@<SCITEGIC>MOL_PROPERTY
Valence
SciTegic.value.DoubleValue
2.652

@<SCITEGIC>MOL_PROPERTY
Coulomb
SciTegic.value.DoubleValue
5.578

@<SCITEGIC>MOL_PROPERTY
VdW
SciTegic.value.DoubleValue
0.818

@<SCITEGIC>MOL_PROPERTY
VdW6
SciTegic.value.DoubleValue
-4.535

@<SCITEGIC>MOL_PROPERTY
VdW12
SciTegic.value.DoubleValue
5.352

@<SCITEGIC>MOL_PROPERTY
Bond
SciTegic.value.DoubleValue
0.063

@<SCITEGIC>MOL_PROPERTY
Angle
SciTegic.value.DoubleValue
2.579

@<SCITEGIC>MOL_PROPERTY
Pdih
SciTegic.value.DoubleValue
0.010

@<SCITEGIC>MOL_PROPERTY
Idih
SciTegic.value.DoubleValue
0.000

@<SCITEGIC>MOL_PROPERTY
Tether
SciTegic.value.DoubleValue
0.000

@<TRIPOS>MOLECULE
guest-s19_confgen4.mol2 : confsearch ligand conformer 875
          17          16           1
SMALL
USER_CHARGES
 
@<TRIPOS>ATOM
       1    C1      16.950867   19.225368   22.338039 C.2        1 MOL1         0.6173
       2    O1      16.856324   19.846418   23.380056 O.co2      1 MOL1        -0.6755
       3    O2      16.018467   19.074865   21.572670 O.co2      1 MOL1        -0.6755
       4    C2      18.253358   18.610930   21.963773 C.2        1 MOL1        -0.1504
       5    H1      18.269212   18.069278   21.020841 H          1 MOL1         0.0814
       6    C3      19.372594   18.699143   22.717773 C.2        1 MOL1        -0.1394
       7    H2      19.368771   19.242244   23.662561 H          1 MOL1         0.0817
       8    C4      20.695879   18.074366   22.328434 C.3        1 MOL1        -0.1849
       9    H3      20.520659   17.079744   21.896518 H          1 MOL1         0.0736
      10    H4      21.310961   17.915067   23.224309 H          1 MOL1         0.0736
      11    C5      21.476737   18.936951   21.312673 C.3        1 MOL1        -0.1866
      12    H5      22.371636   18.388151   20.988438 H          1 MOL1         0.0738
      13    H6      20.864240   19.097049   20.414540 H          1 MOL1         0.0738
      14    C6      21.905170   20.298939   21.899314 C.3        1 MOL1        -0.2879
      15    H7      22.529686   20.163098   22.791879 H          1 MOL1         0.0750
      16    H8      22.485357   20.870678   21.163511 H          1 MOL1         0.0750
      17    H9      21.031637   20.901511   22.180505 H          1 MOL1         0.0750
@<TRIPOS>BOND
    1     1     2    1
    2     1     3    2
    3     1     4    1
    4     4     5    1
    5     4     6    2
    6     6     7    1
    7     6     8    1
    8     8     9    1
    9     8    10    1
   10     8    11    1
   11    11    12    1
   12    11    13    1
   13    11    14    1
   14    14    15    1
   15    14    16    1
   16    14    17    1
@<TRIPOS>SUBSTRUCTURE
       1 MOL1            1 RESIDUE      1      MOL     
@<SCITEGIC>MOL_PROPERTY
VConf Rank
SciTegic.value.IntegerValue
875

@<SCITEGIC>MOL_PROPERTY
Conf_Id
SciTegic.value.IntegerValue
3

@<SCITEGIC>MOL_PROPERTY
Delta U+W
SciTegic.value.DoubleValue
0.531

@<SCITEGIC>MOL_PROPERTY
U+W
SciTegic.value.DoubleValue
-52.878

@<SCITEGIC>MOL_PROPERTY
Grad RMS
SciTegic.value.DoubleValue
0.000000

@<SCITEGIC>MOL_PROPERTY
U
SciTegic.value.DoubleValue
10.067

@<SCITEGIC>MOL_PROPERTY
W
SciTegic.value.DoubleValue
-62.945

@<SCITEGIC>MOL_PROPERTY
W(PB)
SciTegic.value.DoubleValue
-64.982

@<SCITEGIC>MOL_PROPERTY
W(SA)
SciTegic.value.DoubleValue
2.037

@<SCITEGIC>MOL_PROPERTY
Valence
SciTegic.value.DoubleValue
2.779

@<SCITEGIC>MOL_PROPERTY
Coulomb
SciTegic.value.DoubleValue
6.474

@<SCITEGIC>MOL_PROPERTY
VdW
SciTegic.value.DoubleValue
0.815

@<SCITEGIC>MOL_PROPERTY
VdW6
SciTegic.value.DoubleValue
-5.088

@<SCITEGIC>MOL_PROPERTY
VdW12
SciTegic.value.DoubleValue
5.902

@<SCITEGIC>MOL_PROPERTY
Bond
SciTegic.value.DoubleValue
0.078

@<SCITEGIC>MOL_PROPERTY
Angle
SciTegic.value.DoubleValue
2.651

@<SCITEGIC>MOL_PROPERTY
Pdih
SciTegic.value.DoubleValue
0.050

@<SCITEGIC>MOL_PROPERTY
Idih
SciTegic.value.DoubleValue
0.000

@<SCITEGIC>MOL_PROPERTY
Tether
SciTegic.value.DoubleValue
0.000

@<TRIPOS>MOLECULE
guest-s19_confgen4.mol2 : confsearch ligand conformer 876
          17          16           1
SMALL
USER_CHARGES
 
@<TRIPOS>ATOM
       1    C1      17.041590   19.002292   22.778157 C.2        1 MOL1         0.6173
       2    O1      16.274406   19.911597   23.027907 O.co2      1 MOL1        -0.6755
       3    O2      16.835537   17.852291   23.117993 O.co2      1 MOL1        -0.6755
       4    C2      18.277993   19.334794   22.019987 C.2        1 MOL1        -0.1504
       5    H1      18.399967   20.380538   21.747503 H          1 MOL1         0.0814
       6    C3      19.218438   18.425524   21.675930 C.2        1 MOL1        -0.1394
       7    H2      19.105886   17.376357   21.948143 H          1 MOL1         0.0817
       8    C4      20.477483   18.767582   20.906424 C.3        1 MOL1        -0.1849
       9    H3      20.376006   19.744232   20.413883 H          1 MOL1         0.0736
      10    H4      20.616530   18.033032   20.101991 H          1 MOL1         0.0736
      11    C5      21.732538   18.768244   21.806425 C.3        1 MOL1        -0.1866
      12    H5      21.833332   17.792476   22.301579 H          1 MOL1         0.0738
      13    H6      22.624558   18.894598   21.177511 H          1 MOL1         0.0738
      14    C6      21.702187   19.889325   22.867126 C.3        1 MOL1        -0.2879
      15    H7      20.857804   19.759674   23.556518 H          1 MOL1         0.0750
      16    H8      22.625187   19.883824   23.461186 H          1 MOL1         0.0750
      17    H9      21.609436   20.875342   22.393566 H          1 MOL1         0.0750
@<TRIPOS>BOND
    1     1     2    1
    2     1     3    2
    3     1     4    1
    4     4     5    1
    5     4     6    2
    6     6     7    1
    7     6     8    1
    8     8     9    1
    9     8    10    1
   10     8    11    1
   11    11    12    1
   12    11    13    1
   13    11    14    1
   14    14    15    1
   15    14    16    1
   16    14    17    1
@<TRIPOS>SUBSTRUCTURE
       1 MOL1            1 RESIDUE      1      MOL     
@<SCITEGIC>MOL_PROPERTY
VConf Rank
SciTegic.value.IntegerValue
876

@<SCITEGIC>MOL_PROPERTY
Conf_Id
SciTegic.value.IntegerValue
45

@<SCITEGIC>MOL_PROPERTY
Delta U+W
SciTegic.value.DoubleValue
0.562

@<SCITEGIC>MOL_PROPERTY
U+W
SciTegic.value.DoubleValue
-52.846

@<SCITEGIC>MOL_PROPERTY
Grad RMS
SciTegic.value.DoubleValue
0.000000

@<SCITEGIC>MOL_PROPERTY
U
SciTegic.value.DoubleValue
10.243

@<SCITEGIC>MOL_PROPERTY
W
SciTegic.value.DoubleValue
-63.089

@<SCITEGIC>MOL_PROPERTY
W(PB)
SciTegic.value.DoubleValue
-65.116

@<SCITEGIC>MOL_PROPERTY
W(SA)
SciTegic.value.DoubleValue
2.026

@<SCITEGIC>MOL_PROPERTY
Valence
SciTegic.value.DoubleValue
2.822

@<SCITEGIC>MOL_PROPERTY
Coulomb
SciTegic.value.DoubleValue
6.637

@<SCITEGIC>MOL_PROPERTY
VdW
SciTegic.value.DoubleValue
0.785

@<SCITEGIC>MOL_PROPERTY
VdW6
SciTegic.value.DoubleValue
-5.216

@<SCITEGIC>MOL_PROPERTY
VdW12
SciTegic.value.DoubleValue
6.001

@<SCITEGIC>MOL_PROPERTY
Bond
SciTegic.value.DoubleValue
0.080

@<SCITEGIC>MOL_PROPERTY
Angle
SciTegic.value.DoubleValue
2.678

@<SCITEGIC>MOL_PROPERTY
Pdih
SciTegic.value.DoubleValue
0.064

@<SCITEGIC>MOL_PROPERTY
Idih
SciTegic.value.DoubleValue
0.000

@<SCITEGIC>MOL_PROPERTY
Tether
SciTegic.value.DoubleValue
0.000

@<TRIPOS>MOLECULE
guest-s19_confgen4.mol2 : confsearch ligand conformer 877
          17          16           1
SMALL
USER_CHARGES
 
@<TRIPOS>ATOM
       1    C1      23.268422   19.812593   21.503891 C.2        1 MOL1         0.6173
       2    O1      23.874762   20.090525   20.487618 O.co2      1 MOL1        -0.6755
       3    O2      23.824419   19.515970   22.544697 O.co2      1 MOL1        -0.6755
       4    C2      21.781811   19.844862   21.448135 C.2        1 MOL1        -0.1504
       5    H1      21.348683   20.117527   20.488467 H          1 MOL1         0.0814
       6    C3      20.981693   19.557843   22.500044 C.2        1 MOL1        -0.1394
       7    H2      21.405074   19.281186   23.465437 H          1 MOL1         0.0817
       8    C4      19.470459   19.590902   22.434333 C.3        1 MOL1        -0.1849
       9    H3      19.139937   20.433626   21.811934 H          1 MOL1         0.0736
      10    H4      19.062358   19.765545   23.438992 H          1 MOL1         0.0736
      11    C5      18.903635   18.272520   21.869006 C.3        1 MOL1        -0.1866
      12    H5      19.307742   18.098410   20.862058 H          1 MOL1         0.0738
      13    H6      19.233879   17.431407   22.494334 H          1 MOL1         0.0738
      14    C6      17.363094   18.294565   21.807581 C.3        1 MOL1        -0.2879
      15    H7      16.931904   18.435636   22.807383 H          1 MOL1         0.0750
      16    H8      17.007273   19.108711   21.162604 H          1 MOL1         0.0750
      17    H9      16.978605   17.349209   21.403105 H          1 MOL1         0.0750
@<TRIPOS>BOND
    1     1     2    1
    2     1     3    2
    3     1     4    1
    4     4     5    1
    5     4     6    2
    6     6     7    1
    7     6     8    1
    8     8     9    1
    9     8    10    1
   10     8    11    1
   11    11    12    1
   12    11    13    1
   13    11    14    1
   14    14    15    1
   15    14    16    1
   16    14    17    1
@<TRIPOS>SUBSTRUCTURE
       1 MOL1            1 RESIDUE      1      MOL     
@<SCITEGIC>MOL_PROPERTY
VConf Rank
SciTegic.value.IntegerValue
877

@<SCITEGIC>MOL_PROPERTY
Conf_Id
SciTegic.value.IntegerValue
36

@<SCITEGIC>MOL_PROPERTY
Delta U+W
SciTegic.value.DoubleValue
0.000

@<SCITEGIC>MOL_PROPERTY
U+W
SciTegic.value.DoubleValue
-53.409

@<SCITEGIC>MOL_PROPERTY
Grad RMS
SciTegic.value.DoubleValue
0.000000

@<SCITEGIC>MOL_PROPERTY
U
SciTegic.value.DoubleValue
9.048

@<SCITEGIC>MOL_PROPERTY
W
SciTegic.value.DoubleValue
-62.457

@<SCITEGIC>MOL_PROPERTY
W(PB)
SciTegic.value.DoubleValue
-64.540

@<SCITEGIC>MOL_PROPERTY
W(SA)
SciTegic.value.DoubleValue
2.084

@<SCITEGIC>MOL_PROPERTY
Valence
SciTegic.value.DoubleValue
2.652

@<SCITEGIC>MOL_PROPERTY
Coulomb
SciTegic.value.DoubleValue
5.578

@<SCITEGIC>MOL_PROPERTY
VdW
SciTegic.value.DoubleValue
0.818

@<SCITEGIC>MOL_PROPERTY
VdW6
SciTegic.value.DoubleValue
-4.534

@<SCITEGIC>MOL_PROPERTY
VdW12
SciTegic.value.DoubleValue
5.352

@<SCITEGIC>MOL_PROPERTY
Bond
SciTegic.value.DoubleValue
0.063

@<SCITEGIC>MOL_PROPERTY
Angle
SciTegic.value.DoubleValue
2.579

@<SCITEGIC>MOL_PROPERTY
Pdih
SciTegic.value.DoubleValue
0.010

@<SCITEGIC>MOL_PROPERTY
Idih
SciTegic.value.DoubleValue
0.000

@<SCITEGIC>MOL_PROPERTY
Tether
SciTegic.value.DoubleValue
0.000

@<TRIPOS>MOLECULE
guest-s19_confgen4.mol2 : confsearch ligand conformer 878
          17          16           1
SMALL
USER_CHARGES
 
@<TRIPOS>ATOM
       1    C1      21.648568   19.152804   18.963640 C.2        1 MOL1         0.6173
       2    O1      22.629634   18.444289   19.089776 O.co2      1 MOL1        -0.6755
       3    O2      21.478485   19.879979   18.004477 O.co2      1 MOL1        -0.6755
       4    C2      20.596332   19.145106   20.015734 C.2        1 MOL1        -0.1504
       5    H1      19.746234   19.800777   19.841555 H          1 MOL1         0.0814
       6    C3      20.654730   18.387637   21.134625 C.2        1 MOL1        -0.1394
       7    H2      21.502875   17.728858   21.320191 H          1 MOL1         0.0817
       8    C4      19.581088   18.387097   22.200708 C.3        1 MOL1        -0.1849
       9    H3      19.604864   17.434053   22.746171 H          1 MOL1         0.0736
      10    H4      18.588783   18.455602   21.734400 H          1 MOL1         0.0736
      11    C5      19.772329   19.553689   23.191418 C.3        1 MOL1        -0.1866
      12    H5      20.764605   19.481769   23.658090 H          1 MOL1         0.0738
      13    H6      19.744695   20.508289   22.647786 H          1 MOL1         0.0738
      14    C6      18.687123   19.554710   24.286796 C.3        1 MOL1        -0.2879
      15    H7      18.713548   18.623026   24.867051 H          1 MOL1         0.0750
      16    H8      18.839608   20.390938   24.981491 H          1 MOL1         0.0750
      17    H9      17.685991   19.657109   23.847838 H          1 MOL1         0.0750
@<TRIPOS>BOND
    1     1     2    1
    2     1     3    2
    3     1     4    1
    4     4     5    1
    5     4     6    2
    6     6     7    1
    7     6     8    1
    8     8     9    1
    9     8    10    1
   10     8    11    1
   11    11    12    1
   12    11    13    1
   13    11    14    1
   14    14    15    1
   15    14    16    1
   16    14    17    1
@<TRIPOS>SUBSTRUCTURE
       1 MOL1            1 RESIDUE      1      MOL     
@<SCITEGIC>MOL_PROPERTY
VConf Rank
SciTegic.value.IntegerValue
878

@<SCITEGIC>MOL_PROPERTY
Conf_Id
SciTegic.value.IntegerValue
1

@<SCITEGIC>MOL_PROPERTY
Delta U+W
SciTegic.value.DoubleValue
0.030

@<SCITEGIC>MOL_PROPERTY
U+W
SciTegic.value.DoubleValue
-53.378

@<SCITEGIC>MOL_PROPERTY
Grad RMS
SciTegic.value.DoubleValue
0.000000

@<SCITEGIC>MOL_PROPERTY
U
SciTegic.value.DoubleValue
9.048

@<SCITEGIC>MOL_PROPERTY
W
SciTegic.value.DoubleValue
-62.426

@<SCITEGIC>MOL_PROPERTY
W(PB)
SciTegic.value.DoubleValue
-64.506

@<SCITEGIC>MOL_PROPERTY
W(SA)
SciTegic.value.DoubleValue
2.080

@<SCITEGIC>MOL_PROPERTY
Valence
SciTegic.value.DoubleValue
2.652

@<SCITEGIC>MOL_PROPERTY
Coulomb
SciTegic.value.DoubleValue
5.578

@<SCITEGIC>MOL_PROPERTY
VdW
SciTegic.value.DoubleValue
0.818

@<SCITEGIC>MOL_PROPERTY
VdW6
SciTegic.value.DoubleValue
-4.535

@<SCITEGIC>MOL_PROPERTY
VdW12
SciTegic.value.DoubleValue
5.352

@<SCITEGIC>MOL_PROPERTY
Bond
SciTegic.value.DoubleValue
0.063

@<SCITEGIC>MOL_PROPERTY
Angle
SciTegic.value.DoubleValue
2.579

@<SCITEGIC>MOL_PROPERTY
Pdih
SciTegic.value.DoubleValue
0.010

@<SCITEGIC>MOL_PROPERTY
Idih
SciTegic.value.DoubleValue
0.000

@<SCITEGIC>MOL_PROPERTY
Tether
SciTegic.value.DoubleValue
0.000

@<TRIPOS>MOLECULE
guest-s19_confgen4.mol2 : confsearch ligand conformer 879
          17          16           1
SMALL
USER_CHARGES
 
@<TRIPOS>ATOM
       1    C1      19.748798   16.206231   20.989866 C.2        1 MOL1         0.6173
       2    O1      20.511447   15.625375   21.739141 O.co2      1 MOL1        -0.6755
       3    O2      18.930781   15.627031   20.301979 O.co2      1 MOL1        -0.6755
       4    C2      19.802731   17.689949   20.891056 C.2        1 MOL1        -0.1504
       5    H1      19.094954   18.145911   20.202644 H          1 MOL1         0.0814
       6    C3      20.659875   18.461627   21.597315 C.2        1 MOL1        -0.1394
       7    H2      21.370864   18.015481   22.292331 H          1 MOL1         0.0817
       8    C4      20.706330   19.971680   21.494377 C.3        1 MOL1        -0.1849
       9    H3      20.588813   20.273072   20.444673 H          1 MOL1         0.0736
      10    H4      21.693265   20.336700   21.809043 H          1 MOL1         0.0736
      11    C5      19.609540   20.652511   22.342364 C.3        1 MOL1        -0.1866
      12    H5      19.623912   21.733637   22.147133 H          1 MOL1         0.0738
      13    H6      18.620657   20.290154   22.028939 H          1 MOL1         0.0738
      14    C6      19.796300   20.410581   23.855408 C.3        1 MOL1        -0.2879
      15    H7      20.774241   20.776916   24.193898 H          1 MOL1         0.0750
      16    H8      19.020932   20.935097   24.428640 H          1 MOL1         0.0750
      17    H9      19.728118   19.341846   24.097025 H          1 MOL1         0.0750
@<TRIPOS>BOND
    1     1     2    1
    2     1     3    2
    3     1     4    1
    4     4     5    1
    5     4     6    2
    6     6     7    1
    7     6     8    1
    8     8     9    1
    9     8    10    1
   10     8    11    1
   11    11    12    1
   12    11    13    1
   13    11    14    1
   14    14    15    1
   15    14    16    1
   16    14    17    1
@<TRIPOS>SUBSTRUCTURE
       1 MOL1            1 RESIDUE      1      MOL     
@<SCITEGIC>MOL_PROPERTY
VConf Rank
SciTegic.value.IntegerValue
879

@<SCITEGIC>MOL_PROPERTY
Conf_Id
SciTegic.value.IntegerValue
3

@<SCITEGIC>MOL_PROPERTY
Delta U+W
SciTegic.value.DoubleValue
0.531

@<SCITEGIC>MOL_PROPERTY
U+W
SciTegic.value.DoubleValue
-52.878

@<SCITEGIC>MOL_PROPERTY
Grad RMS
SciTegic.value.DoubleValue
0.000000

@<SCITEGIC>MOL_PROPERTY
U
SciTegic.value.DoubleValue
10.067

@<SCITEGIC>MOL_PROPERTY
W
SciTegic.value.DoubleValue
-62.945

@<SCITEGIC>MOL_PROPERTY
W(PB)
SciTegic.value.DoubleValue
-64.982

@<SCITEGIC>MOL_PROPERTY
W(SA)
SciTegic.value.DoubleValue
2.037

@<SCITEGIC>MOL_PROPERTY
Valence
SciTegic.value.DoubleValue
2.779

@<SCITEGIC>MOL_PROPERTY
Coulomb
SciTegic.value.DoubleValue
6.474

@<SCITEGIC>MOL_PROPERTY
VdW
SciTegic.value.DoubleValue
0.815

@<SCITEGIC>MOL_PROPERTY
VdW6
SciTegic.value.DoubleValue
-5.088

@<SCITEGIC>MOL_PROPERTY
VdW12
SciTegic.value.DoubleValue
5.902

@<SCITEGIC>MOL_PROPERTY
Bond
SciTegic.value.DoubleValue
0.078

@<SCITEGIC>MOL_PROPERTY
Angle
SciTegic.value.DoubleValue
2.651

@<SCITEGIC>MOL_PROPERTY
Pdih
SciTegic.value.DoubleValue
0.050

@<SCITEGIC>MOL_PROPERTY
Idih
SciTegic.value.DoubleValue
0.000

@<SCITEGIC>MOL_PROPERTY
Tether
SciTegic.value.DoubleValue
0.000

@<TRIPOS>MOLECULE
guest-s19_confgen4.mol2 : confsearch ligand conformer 880
          17          16           1
SMALL
USER_CHARGES
 
@<TRIPOS>ATOM
       1    C1      22.150630   18.026769   20.275807 C.2        1 MOL1         0.6173
       2    O1      23.059983   18.615342   19.724047 O.co2      1 MOL1        -0.6755
       3    O2      21.747924   16.939420   19.907096 O.co2      1 MOL1        -0.6755
       4    C2      21.520841   18.683748   21.453014 C.2        1 MOL1        -0.1504
       5    H1      21.928556   19.653465   21.728922 H          1 MOL1         0.0814
       6    C3      20.500579   18.146035   22.159777 C.2        1 MOL1        -0.1394
       7    H2      20.083691   17.176597   21.887910 H          1 MOL1         0.0817
       8    C4      19.859670   18.818582   23.356126 C.3        1 MOL1        -0.1849
       9    H3      20.510142   19.612601   23.747483 H          1 MOL1         0.0736
      10    H4      19.753452   18.084269   24.165763 H          1 MOL1         0.0736
      11    C5      18.469162   19.403210   23.024668 C.3        1 MOL1        -0.1866
      12    H5      17.818640   18.610109   22.630623 H          1 MOL1         0.0738
      13    H6      18.000739   19.761583   23.951678 H          1 MOL1         0.0738
      14    C6      18.540085   20.568004   22.014195 C.3        1 MOL1        -0.2879
      15    H7      18.944666   20.232353   21.050501 H          1 MOL1         0.0750
      16    H8      17.540285   20.983199   21.832864 H          1 MOL1         0.0750
      17    H9      19.179834   21.376435   22.391359 H          1 MOL1         0.0750
@<TRIPOS>BOND
    1     1     2    1
    2     1     3    2
    3     1     4    1
    4     4     5    1
    5     4     6    2
    6     6     7    1
    7     6     8    1
    8     8     9    1
    9     8    10    1
   10     8    11    1
   11    11    12    1
   12    11    13    1
   13    11    14    1
   14    14    15    1
   15    14    16    1
   16    14    17    1
@<TRIPOS>SUBSTRUCTURE
       1 MOL1            1 RESIDUE      1      MOL     
@<SCITEGIC>MOL_PROPERTY
VConf Rank
SciTegic.value.IntegerValue
880

@<SCITEGIC>MOL_PROPERTY
Conf_Id
SciTegic.value.IntegerValue
45

@<SCITEGIC>MOL_PROPERTY
Delta U+W
SciTegic.value.DoubleValue
0.562

@<SCITEGIC>MOL_PROPERTY
U+W
SciTegic.value.DoubleValue
-52.846

@<SCITEGIC>MOL_PROPERTY
Grad RMS
SciTegic.value.DoubleValue
0.000000

@<SCITEGIC>MOL_PROPERTY
U
SciTegic.value.DoubleValue
10.243

@<SCITEGIC>MOL_PROPERTY
W
SciTegic.value.DoubleValue
-63.089

@<SCITEGIC>MOL_PROPERTY
W(PB)
SciTegic.value.DoubleValue
-65.116

@<SCITEGIC>MOL_PROPERTY
W(SA)
SciTegic.value.DoubleValue
2.026

@<SCITEGIC>MOL_PROPERTY
Valence
SciTegic.value.DoubleValue
2.822

@<SCITEGIC>MOL_PROPERTY
Coulomb
SciTegic.value.DoubleValue
6.637

@<SCITEGIC>MOL_PROPERTY
VdW
SciTegic.value.DoubleValue
0.785

@<SCITEGIC>MOL_PROPERTY
VdW6
SciTegic.value.DoubleValue
-5.216

@<SCITEGIC>MOL_PROPERTY
VdW12
SciTegic.value.DoubleValue
6.001

@<SCITEGIC>MOL_PROPERTY
Bond
SciTegic.value.DoubleValue
0.080

@<SCITEGIC>MOL_PROPERTY
Angle
SciTegic.value.DoubleValue
2.678

@<SCITEGIC>MOL_PROPERTY
Pdih
SciTegic.value.DoubleValue
0.064

@<SCITEGIC>MOL_PROPERTY
Idih
SciTegic.value.DoubleValue
0.000

@<SCITEGIC>MOL_PROPERTY
Tether
SciTegic.value.DoubleValue
0.000

@<TRIPOS>MOLECULE
guest-s19_confgen4.mol2 : confsearch ligand conformer 881
          17          16           1
SMALL
USER_CHARGES
 
@<TRIPOS>ATOM
       1    C1      18.653971   21.934776   23.197514 C.2        1 MOL1         0.6173
       2    O1      18.708001   22.363945   24.333559 O.co2      1 MOL1        -0.6755
       3    O2      17.885092   22.372000   22.362018 O.co2      1 MOL1        -0.6755
       4    C2      19.579568   20.827106   22.836269 C.2        1 MOL1        -0.1504
       5    H1      20.240277   20.483191   23.628794 H          1 MOL1         0.0814
       6    C3      19.627381   20.253685   21.612346 C.2        1 MOL1        -0.1394
       7    H2      18.968273   20.588899   20.811733 H          1 MOL1         0.0817
       8    C4      20.570294   19.126041   21.253780 C.3        1 MOL1        -0.1849
       9    H3      21.545501   19.284880   21.733937 H          1 MOL1         0.0736
      10    H4      20.751339   19.128402   20.170450 H          1 MOL1         0.0736
      11    C5      19.997653   17.758265   21.678381 C.3        1 MOL1        -0.1866
      12    H5      19.819864   17.752784   22.762780 H          1 MOL1         0.0738
      13    H6      19.023283   17.600812   21.195286 H          1 MOL1         0.0738
      14    C6      20.948703   16.602516   21.307873 C.3        1 MOL1        -0.2879
      15    H7      21.118457   16.565435   20.223789 H          1 MOL1         0.0750
      16    H8      21.921325   16.719884   21.803522 H          1 MOL1         0.0750
      17    H9      20.524771   15.638416   21.617587 H          1 MOL1         0.0750
@<TRIPOS>BOND
    1     1     2    1
    2     1     3    2
    3     1     4    1
    4     4     5    1
    5     4     6    2
    6     6     7    1
    7     6     8    1
    8     8     9    1
    9     8    10    1
   10     8    11    1
   11    11    12    1
   12    11    13    1
   13    11    14    1
   14    14    15    1
   15    14    16    1
   16    14    17    1
@<TRIPOS>SUBSTRUCTURE
       1 MOL1            1 RESIDUE      1      MOL     
@<SCITEGIC>MOL_PROPERTY
VConf Rank
SciTegic.value.IntegerValue
881

@<SCITEGIC>MOL_PROPERTY
Conf_Id
SciTegic.value.IntegerValue
36

@<SCITEGIC>MOL_PROPERTY
Delta U+W
SciTegic.value.DoubleValue
0.000

@<SCITEGIC>MOL_PROPERTY
U+W
SciTegic.value.DoubleValue
-53.409

@<SCITEGIC>MOL_PROPERTY
Grad RMS
SciTegic.value.DoubleValue
0.000000

@<SCITEGIC>MOL_PROPERTY
U
SciTegic.value.DoubleValue
9.048

@<SCITEGIC>MOL_PROPERTY
W
SciTegic.value.DoubleValue
-62.457

@<SCITEGIC>MOL_PROPERTY
W(PB)
SciTegic.value.DoubleValue
-64.540

@<SCITEGIC>MOL_PROPERTY
W(SA)
SciTegic.value.DoubleValue
2.084

@<SCITEGIC>MOL_PROPERTY
Valence
SciTegic.value.DoubleValue
2.652

@<SCITEGIC>MOL_PROPERTY
Coulomb
SciTegic.value.DoubleValue
5.578

@<SCITEGIC>MOL_PROPERTY
VdW
SciTegic.value.DoubleValue
0.818

@<SCITEGIC>MOL_PROPERTY
VdW6
SciTegic.value.DoubleValue
-4.534

@<SCITEGIC>MOL_PROPERTY
VdW12
SciTegic.value.DoubleValue
5.352

@<SCITEGIC>MOL_PROPERTY
Bond
SciTegic.value.DoubleValue
0.063

@<SCITEGIC>MOL_PROPERTY
Angle
SciTegic.value.DoubleValue
2.579

@<SCITEGIC>MOL_PROPERTY
Pdih
SciTegic.value.DoubleValue
0.010

@<SCITEGIC>MOL_PROPERTY
Idih
SciTegic.value.DoubleValue
0.000

@<SCITEGIC>MOL_PROPERTY
Tether
SciTegic.value.DoubleValue
0.000

@<TRIPOS>MOLECULE
guest-s19_confgen4.mol2 : confsearch ligand conformer 882
          17          16           1
SMALL
USER_CHARGES
 
@<TRIPOS>ATOM
       1    C1      17.626889   16.754248   21.457842 C.2        1 MOL1         0.6173
       2    O1      17.833225   16.246939   20.371353 O.co2      1 MOL1        -0.6755
       3    O2      16.611499   16.556774   22.096350 O.co2      1 MOL1        -0.6755
       4    C2      18.648028   17.658596   22.052478 C.2        1 MOL1        -0.1504
       5    H1      18.401494   18.078361   23.025066 H          1 MOL1         0.0814
       6    C3      19.820948   17.967699   21.454315 C.2        1 MOL1        -0.1394
       7    H2      20.077096   17.554477   20.478912 H          1 MOL1         0.0817
       8    C4      20.853295   18.889874   22.065128 C.3        1 MOL1        -0.1849
       9    H3      21.845430   18.652173   21.658246 H          1 MOL1         0.0736
      10    H4      20.911832   18.722430   23.149260 H          1 MOL1         0.0736
      11    C5      20.521243   20.369677   21.784160 C.3        1 MOL1        -0.1866
      12    H5      20.465378   20.535116   20.699229 H          1 MOL1         0.0738
      13    H6      19.530535   20.610261   22.194252 H          1 MOL1         0.0738
      14    C6      21.573969   21.315906   22.395671 C.3        1 MOL1        -0.2879
      15    H7      22.570057   21.117635   21.978625 H          1 MOL1         0.0750
      16    H8      21.321050   22.363291   22.185563 H          1 MOL1         0.0750
      17    H9      21.627523   21.192276   23.485296 H          1 MOL1         0.0750
@<TRIPOS>BOND
    1     1     2    1
    2     1     3    2
    3     1     4    1
    4     4     5    1
    5     4     6    2
    6     6     7    1
    7     6     8    1
    8     8     9    1
    9     8    10    1
   10     8    11    1
   11    11    12    1
   12    11    13    1
   13    11    14    1
   14    14    15    1
   15    14    16    1
   16    14    17    1
@<TRIPOS>SUBSTRUCTURE
       1 MOL1            1 RESIDUE      1      MOL     
@<SCITEGIC>MOL_PROPERTY
VConf Rank
SciTegic.value.IntegerValue
882

@<SCITEGIC>MOL_PROPERTY
Conf_Id
SciTegic.value.IntegerValue
1

@<SCITEGIC>MOL_PROPERTY
Delta U+W
SciTegic.value.DoubleValue
0.030

@<SCITEGIC>MOL_PROPERTY
U+W
SciTegic.value.DoubleValue
-53.378

@<SCITEGIC>MOL_PROPERTY
Grad RMS
SciTegic.value.DoubleValue
0.000000

@<SCITEGIC>MOL_PROPERTY
U
SciTegic.value.DoubleValue
9.048

@<SCITEGIC>MOL_PROPERTY
W
SciTegic.value.DoubleValue
-62.426

@<SCITEGIC>MOL_PROPERTY
W(PB)
SciTegic.value.DoubleValue
-64.506

@<SCITEGIC>MOL_PROPERTY
W(SA)
SciTegic.value.DoubleValue
2.080

@<SCITEGIC>MOL_PROPERTY
Valence
SciTegic.value.DoubleValue
2.652

@<SCITEGIC>MOL_PROPERTY
Coulomb
SciTegic.value.DoubleValue
5.578

@<SCITEGIC>MOL_PROPERTY
VdW
SciTegic.value.DoubleValue
0.818

@<SCITEGIC>MOL_PROPERTY
VdW6
SciTegic.value.DoubleValue
-4.535

@<SCITEGIC>MOL_PROPERTY
VdW12
SciTegic.value.DoubleValue
5.352

@<SCITEGIC>MOL_PROPERTY
Bond
SciTegic.value.DoubleValue
0.063

@<SCITEGIC>MOL_PROPERTY
Angle
SciTegic.value.DoubleValue
2.579

@<SCITEGIC>MOL_PROPERTY
Pdih
SciTegic.value.DoubleValue
0.010

@<SCITEGIC>MOL_PROPERTY
Idih
SciTegic.value.DoubleValue
0.000

@<SCITEGIC>MOL_PROPERTY
Tether
SciTegic.value.DoubleValue
0.000

@<TRIPOS>MOLECULE
guest-s19_confgen4.mol2 : confsearch ligand conformer 883
          17          16           1
SMALL
USER_CHARGES
 
@<TRIPOS>ATOM
       1    C1      21.945231   20.792953   20.355325 C.2        1 MOL1         0.6173
       2    O1      22.963517   20.691326   21.013510 O.co2      1 MOL1        -0.6755
       3    O2      21.938374   21.195635   19.208324 O.co2      1 MOL1        -0.6755
       4    C2      20.638419   20.417430   20.959737 C.2        1 MOL1        -0.1504
       5    H1      19.767942   20.532924   20.318105 H          1 MOL1         0.0814
       6    C3      20.497458   19.954117   22.222455 C.2        1 MOL1        -0.1394
       7    H2      21.363264   19.831328   22.872762 H          1 MOL1         0.0817
       8    C4      19.164403   19.570194   22.829565 C.3        1 MOL1        -0.1849
       9    H3      18.399235   20.298565   22.528697 H          1 MOL1         0.0736
      10    H4      19.224236   19.623833   23.924935 H          1 MOL1         0.0736
      11    C5      18.711271   18.155734   22.405845 C.3        1 MOL1        -0.1866
      12    H5      17.697019   17.974197   22.787276 H          1 MOL1         0.0738
      13    H6      18.649265   18.099333   21.310217 H          1 MOL1         0.0738
      14    C6      19.652904   17.050993   22.930810 C.3        1 MOL1        -0.2879
      15    H7      19.720384   17.080306   24.026132 H          1 MOL1         0.0750
      16    H8      19.283482   16.058972   22.640417 H          1 MOL1         0.0750
      17    H9      20.665154   17.165959   22.521720 H          1 MOL1         0.0750
@<TRIPOS>BOND
    1     1     2    1
    2     1     3    2
    3     1     4    1
    4     4     5    1
    5     4     6    2
    6     6     7    1
    7     6     8    1
    8     8     9    1
    9     8    10    1
   10     8    11    1
   11    11    12    1
   12    11    13    1
   13    11    14    1
   14    14    15    1
   15    14    16    1
   16    14    17    1
@<TRIPOS>SUBSTRUCTURE
       1 MOL1            1 RESIDUE      1      MOL     
@<SCITEGIC>MOL_PROPERTY
VConf Rank
SciTegic.value.IntegerValue
883

@<SCITEGIC>MOL_PROPERTY
Conf_Id
SciTegic.value.IntegerValue
3

@<SCITEGIC>MOL_PROPERTY
Delta U+W
SciTegic.value.DoubleValue
0.531

@<SCITEGIC>MOL_PROPERTY
U+W
SciTegic.value.DoubleValue
-52.878

@<SCITEGIC>MOL_PROPERTY
Grad RMS
SciTegic.value.DoubleValue
0.000000

@<SCITEGIC>MOL_PROPERTY
U
SciTegic.value.DoubleValue
10.067

@<SCITEGIC>MOL_PROPERTY
W
SciTegic.value.DoubleValue
-62.945

@<SCITEGIC>MOL_PROPERTY
W(PB)
SciTegic.value.DoubleValue
-64.982

@<SCITEGIC>MOL_PROPERTY
W(SA)
SciTegic.value.DoubleValue
2.037

@<SCITEGIC>MOL_PROPERTY
Valence
SciTegic.value.DoubleValue
2.779

@<SCITEGIC>MOL_PROPERTY
Coulomb
SciTegic.value.DoubleValue
6.474

@<SCITEGIC>MOL_PROPERTY
VdW
SciTegic.value.DoubleValue
0.815

@<SCITEGIC>MOL_PROPERTY
VdW6
SciTegic.value.DoubleValue
-5.088

@<SCITEGIC>MOL_PROPERTY
VdW12
SciTegic.value.DoubleValue
5.902

@<SCITEGIC>MOL_PROPERTY
Bond
SciTegic.value.DoubleValue
0.078

@<SCITEGIC>MOL_PROPERTY
Angle
SciTegic.value.DoubleValue
2.651

@<SCITEGIC>MOL_PROPERTY
Pdih
SciTegic.value.DoubleValue
0.050

@<SCITEGIC>MOL_PROPERTY
Idih
SciTegic.value.DoubleValue
0.000

@<SCITEGIC>MOL_PROPERTY
Tether
SciTegic.value.DoubleValue
0.000

@<TRIPOS>MOLECULE
guest-s19_confgen4.mol2 : confsearch ligand conformer 884
          17          16           1
SMALL
USER_CHARGES
 
@<TRIPOS>ATOM
       1    C1      22.500512   18.611143   20.491775 C.2        1 MOL1         0.6173
       2    O1      23.246106   19.408843   19.957411 O.co2      1 MOL1        -0.6755
       3    O2      22.453136   17.437199   20.175451 O.co2      1 MOL1        -0.6755
       4    C2      21.619501   19.115812   21.579525 C.2        1 MOL1        -0.1504
       5    H1      21.712345   20.174148   21.811928 H          1 MOL1         0.0814
       6    C3      20.741270   18.342414   22.257869 C.2        1 MOL1        -0.1394
       7    H2      20.639262   17.281901   22.028906 H          1 MOL1         0.0817
       8    C4      19.843707   18.859709   23.362914 C.3        1 MOL1        -0.1849
       9    H3      20.209287   19.825550   23.737403 H          1 MOL1         0.0736
      10    H4      19.886672   18.166473   24.213553 H          1 MOL1         0.0736
      11    C5      18.375116   19.002292   22.906759 C.3        1 MOL1        -0.1866
      12    H5      18.009441   18.037183   22.529525 H          1 MOL1         0.0738
      13    H6      17.752739   19.255578   23.776063 H          1 MOL1         0.0738
      14    C6      18.192145   20.087247   21.824065 C.3        1 MOL1        -0.2879
      15    H7      18.749957   19.835517   20.912730 H          1 MOL1         0.0750
      16    H8      17.133176   20.187621   21.553189 H          1 MOL1         0.0750
      17    H9      18.544509   21.063090   22.182762 H          1 MOL1         0.0750
@<TRIPOS>BOND
    1     1     2    1
    2     1     3    2
    3     1     4    1
    4     4     5    1
    5     4     6    2
    6     6     7    1
    7     6     8    1
    8     8     9    1
    9     8    10    1
   10     8    11    1
   11    11    12    1
   12    11    13    1
   13    11    14    1
   14    14    15    1
   15    14    16    1
   16    14    17    1
@<TRIPOS>SUBSTRUCTURE
       1 MOL1            1 RESIDUE      1      MOL     
@<SCITEGIC>MOL_PROPERTY
VConf Rank
SciTegic.value.IntegerValue
884

@<SCITEGIC>MOL_PROPERTY
Conf_Id
SciTegic.value.IntegerValue
45

@<SCITEGIC>MOL_PROPERTY
Delta U+W
SciTegic.value.DoubleValue
0.562

@<SCITEGIC>MOL_PROPERTY
U+W
SciTegic.value.DoubleValue
-52.846

@<SCITEGIC>MOL_PROPERTY
Grad RMS
SciTegic.value.DoubleValue
0.000000

@<SCITEGIC>MOL_PROPERTY
U
SciTegic.value.DoubleValue
10.243

@<SCITEGIC>MOL_PROPERTY
W
SciTegic.value.DoubleValue
-63.089

@<SCITEGIC>MOL_PROPERTY
W(PB)
SciTegic.value.DoubleValue
-65.116

@<SCITEGIC>MOL_PROPERTY
W(SA)
SciTegic.value.DoubleValue
2.026

@<SCITEGIC>MOL_PROPERTY
Valence
SciTegic.value.DoubleValue
2.822

@<SCITEGIC>MOL_PROPERTY
Coulomb
SciTegic.value.DoubleValue
6.637

@<SCITEGIC>MOL_PROPERTY
VdW
SciTegic.value.DoubleValue
0.785

@<SCITEGIC>MOL_PROPERTY
VdW6
SciTegic.value.DoubleValue
-5.216

@<SCITEGIC>MOL_PROPERTY
VdW12
SciTegic.value.DoubleValue
6.001

@<SCITEGIC>MOL_PROPERTY
Bond
SciTegic.value.DoubleValue
0.080

@<SCITEGIC>MOL_PROPERTY
Angle
SciTegic.value.DoubleValue
2.678

@<SCITEGIC>MOL_PROPERTY
Pdih
SciTegic.value.DoubleValue
0.064

@<SCITEGIC>MOL_PROPERTY
Idih
SciTegic.value.DoubleValue
0.000

@<SCITEGIC>MOL_PROPERTY
Tether
SciTegic.value.DoubleValue
0.000

@<TRIPOS>MOLECULE
guest-s19_confgen4.mol2 : confsearch ligand conformer 885
          17          16           1
SMALL
USER_CHARGES
 
@<TRIPOS>ATOM
       1    C1      17.633686   21.345253   22.834866 C.2        1 MOL1         0.6173
       2    O1      16.427816   21.292757   22.690563 O.co2      1 MOL1        -0.6755
       3    O2      18.216848   22.363577   23.156319 O.co2      1 MOL1        -0.6755
       4    C2      18.408760   20.096198   22.604028 C.2        1 MOL1        -0.1504
       5    H1      17.827027   19.222441   22.319347 H          1 MOL1         0.0814
       6    C3      19.752807   20.009572   22.726984 C.2        1 MOL1        -0.1394
       7    H2      20.345630   20.879391   23.009384 H          1 MOL1         0.0817
       8    C4      20.533707   18.735817   22.488278 C.3        1 MOL1        -0.1849
       9    H3      19.972576   17.873500   22.873440 H          1 MOL1         0.0736
      10    H4      21.476504   18.771538   23.050634 H          1 MOL1         0.0736
      11    C5      20.834353   18.533650   20.989026 C.3        1 MOL1        -0.1866
      12    H5      19.891856   18.493476   20.425426 H          1 MOL1         0.0738
      13    H6      21.397375   19.396394   20.606602 H          1 MOL1         0.0738
      14    C6      21.638365   17.242070   20.738208 C.3        1 MOL1        -0.2879
      15    H7      22.600960   17.269718   21.265540 H          1 MOL1         0.0750
      16    H8      21.083079   16.360282   21.083959 H          1 MOL1         0.0750
      17    H9      21.842404   17.115402   19.667016 H          1 MOL1         0.0750
@<TRIPOS>BOND
    1     1     2    1
    2     1     3    2
    3     1     4    1
    4     4     5    1
    5     4     6    2
    6     6     7    1
    7     6     8    1
    8     8     9    1
    9     8    10    1
   10     8    11    1
   11    11    12    1
   12    11    13    1
   13    11    14    1
   14    14    15    1
   15    14    16    1
   16    14    17    1
@<TRIPOS>SUBSTRUCTURE
       1 MOL1            1 RESIDUE      1      MOL     
@<SCITEGIC>MOL_PROPERTY
VConf Rank
SciTegic.value.IntegerValue
885

@<SCITEGIC>MOL_PROPERTY
Conf_Id
SciTegic.value.IntegerValue
36

@<SCITEGIC>MOL_PROPERTY
Delta U+W
SciTegic.value.DoubleValue
0.000

@<SCITEGIC>MOL_PROPERTY
U+W
SciTegic.value.DoubleValue
-53.409

@<SCITEGIC>MOL_PROPERTY
Grad RMS
SciTegic.value.DoubleValue
0.000000

@<SCITEGIC>MOL_PROPERTY
U
SciTegic.value.DoubleValue
9.048

@<SCITEGIC>MOL_PROPERTY
W
SciTegic.value.DoubleValue
-62.457

@<SCITEGIC>MOL_PROPERTY
W(PB)
SciTegic.value.DoubleValue
-64.540

@<SCITEGIC>MOL_PROPERTY
W(SA)
SciTegic.value.DoubleValue
2.084

@<SCITEGIC>MOL_PROPERTY
Valence
SciTegic.value.DoubleValue
2.652

@<SCITEGIC>MOL_PROPERTY
Coulomb
SciTegic.value.DoubleValue
5.578

@<SCITEGIC>MOL_PROPERTY
VdW
SciTegic.value.DoubleValue
0.818

@<SCITEGIC>MOL_PROPERTY
VdW6
SciTegic.value.DoubleValue
-4.534

@<SCITEGIC>MOL_PROPERTY
VdW12
SciTegic.value.DoubleValue
5.352

@<SCITEGIC>MOL_PROPERTY
Bond
SciTegic.value.DoubleValue
0.063

@<SCITEGIC>MOL_PROPERTY
Angle
SciTegic.value.DoubleValue
2.579

@<SCITEGIC>MOL_PROPERTY
Pdih
SciTegic.value.DoubleValue
0.010

@<SCITEGIC>MOL_PROPERTY
Idih
SciTegic.value.DoubleValue
0.000

@<SCITEGIC>MOL_PROPERTY
Tether
SciTegic.value.DoubleValue
0.000

@<TRIPOS>MOLECULE
guest-s19_confgen4.mol2 : confsearch ligand conformer 886
          17          16           1
SMALL
USER_CHARGES
 
@<TRIPOS>ATOM
       1    C1      19.803523   17.357249   19.029297 C.2        1 MOL1         0.6173
       2    O1      18.619835   17.182251   18.808722 O.co2      1 MOL1        -0.6755
       3    O2      20.681573   16.796105   18.403317 O.co2      1 MOL1        -0.6755
       4    C2      20.219432   18.295634   20.106615 C.2        1 MOL1        -0.1504
       5    H1      21.291618   18.406392   20.251734 H          1 MOL1         0.0814
       6    C3      19.351988   18.985667   20.881523 C.2        1 MOL1        -0.1394
       7    H2      18.275702   18.880544   20.746131 H          1 MOL1         0.0817
       8    C4      19.783291   19.936716   21.976385 C.3        1 MOL1        -0.1849
       9    H3      18.992654   20.678734   22.151572 H          1 MOL1         0.0736
      10    H4      20.672884   20.497178   21.658089 H          1 MOL1         0.0736
      11    C5      20.084324   19.183750   23.288421 C.3        1 MOL1        -0.1866
      12    H5      19.192469   18.625731   23.605872 H          1 MOL1         0.0738
      13    H6      20.878117   18.443703   23.115844 H          1 MOL1         0.0738
      14    C6      20.515782   20.147289   24.412237 C.3        1 MOL1        -0.2879
      15    H7      19.726130   20.879226   24.627061 H          1 MOL1         0.0750
      16    H8      20.725425   19.593885   25.336857 H          1 MOL1         0.0750
      17    H9      21.424745   20.695676   24.132068 H          1 MOL1         0.0750
@<TRIPOS>BOND
    1     1     2    1
    2     1     3    2
    3     1     4    1
    4     4     5    1
    5     4     6    2
    6     6     7    1
    7     6     8    1
    8     8     9    1
    9     8    10    1
   10     8    11    1
   11    11    12    1
   12    11    13    1
   13    11    14    1
   14    14    15    1
   15    14    16    1
   16    14    17    1
@<TRIPOS>SUBSTRUCTURE
       1 MOL1            1 RESIDUE      1      MOL     
@<SCITEGIC>MOL_PROPERTY
VConf Rank
SciTegic.value.IntegerValue
886

@<SCITEGIC>MOL_PROPERTY
Conf_Id
SciTegic.value.IntegerValue
1

@<SCITEGIC>MOL_PROPERTY
Delta U+W
SciTegic.value.DoubleValue
0.030

@<SCITEGIC>MOL_PROPERTY
U+W
SciTegic.value.DoubleValue
-53.378

@<SCITEGIC>MOL_PROPERTY
Grad RMS
SciTegic.value.DoubleValue
0.000000

@<SCITEGIC>MOL_PROPERTY
U
SciTegic.value.DoubleValue
9.048

@<SCITEGIC>MOL_PROPERTY
W
SciTegic.value.DoubleValue
-62.426

@<SCITEGIC>MOL_PROPERTY
W(PB)
SciTegic.value.DoubleValue
-64.506

@<SCITEGIC>MOL_PROPERTY
W(SA)
SciTegic.value.DoubleValue
2.080

@<SCITEGIC>MOL_PROPERTY
Valence
SciTegic.value.DoubleValue
2.652

@<SCITEGIC>MOL_PROPERTY
Coulomb
SciTegic.value.DoubleValue
5.578

@<SCITEGIC>MOL_PROPERTY
VdW
SciTegic.value.DoubleValue
0.818

@<SCITEGIC>MOL_PROPERTY
VdW6
SciTegic.value.DoubleValue
-4.535

@<SCITEGIC>MOL_PROPERTY
VdW12
SciTegic.value.DoubleValue
5.352

@<SCITEGIC>MOL_PROPERTY
Bond
SciTegic.value.DoubleValue
0.063

@<SCITEGIC>MOL_PROPERTY
Angle
SciTegic.value.DoubleValue
2.579

@<SCITEGIC>MOL_PROPERTY
Pdih
SciTegic.value.DoubleValue
0.010

@<SCITEGIC>MOL_PROPERTY
Idih
SciTegic.value.DoubleValue
0.000

@<SCITEGIC>MOL_PROPERTY
Tether
SciTegic.value.DoubleValue
0.000

@<TRIPOS>MOLECULE
guest-s19_confgen4.mol2 : confsearch ligand conformer 887
          17          16           1
SMALL
USER_CHARGES
 
@<TRIPOS>ATOM
       1    C1      17.618011   21.012639   22.256200 C.2        1 MOL1         0.6173
       2    O1      17.829295   21.510039   23.346335 O.co2      1 MOL1        -0.6755
       3    O2      16.840836   21.490055   21.452531 O.co2      1 MOL1        -0.6755
       4    C2      18.327107   19.763407   21.868008 C.2        1 MOL1        -0.1504
       5    H1      18.092094   19.371197   20.881245 H          1 MOL1         0.0814
       6    C3      19.218027   19.125204   22.660437 C.2        1 MOL1        -0.1394
       7    H2      19.463399   19.511291   23.649541 H          1 MOL1         0.0817
       8    C4      19.938837   17.856094   22.256943 C.3        1 MOL1        -0.1849
       9    H3      19.242447   17.187848   21.732525 H          1 MOL1         0.0736
      10    H4      20.267864   17.313109   23.153158 H          1 MOL1         0.0736
      11    C5      21.155044   18.135098   21.346691 C.3        1 MOL1        -0.1866
      12    H5      21.572398   17.179040   21.001839 H          1 MOL1         0.0738
      13    H6      20.828738   18.677300   20.448376 H          1 MOL1         0.0738
      14    C6      22.260132   18.937890   22.065730 C.3        1 MOL1        -0.2879
      15    H7      22.610883   18.408228   22.961039 H          1 MOL1         0.0750
      16    H8      23.121320   19.088806   21.402038 H          1 MOL1         0.0750
      17    H9      21.895122   19.926553   22.373196 H          1 MOL1         0.0750
@<TRIPOS>BOND
    1     1     2    1
    2     1     3    2
    3     1     4    1
    4     4     5    1
    5     4     6    2
    6     6     7    1
    7     6     8    1
    8     8     9    1
    9     8    10    1
   10     8    11    1
   11    11    12    1
   12    11    13    1
   13    11    14    1
   14    14    15    1
   15    14    16    1
   16    14    17    1
@<TRIPOS>SUBSTRUCTURE
       1 MOL1            1 RESIDUE      1      MOL     
@<SCITEGIC>MOL_PROPERTY
VConf Rank
SciTegic.value.IntegerValue
887

@<SCITEGIC>MOL_PROPERTY
Conf_Id
SciTegic.value.IntegerValue
3

@<SCITEGIC>MOL_PROPERTY
Delta U+W
SciTegic.value.DoubleValue
0.531

@<SCITEGIC>MOL_PROPERTY
U+W
SciTegic.value.DoubleValue
-52.878

@<SCITEGIC>MOL_PROPERTY
Grad RMS
SciTegic.value.DoubleValue
0.000000

@<SCITEGIC>MOL_PROPERTY
U
SciTegic.value.DoubleValue
10.067

@<SCITEGIC>MOL_PROPERTY
W
SciTegic.value.DoubleValue
-62.945

@<SCITEGIC>MOL_PROPERTY
W(PB)
SciTegic.value.DoubleValue
-64.982

@<SCITEGIC>MOL_PROPERTY
W(SA)
SciTegic.value.DoubleValue
2.037

@<SCITEGIC>MOL_PROPERTY
Valence
SciTegic.value.DoubleValue
2.779

@<SCITEGIC>MOL_PROPERTY
Coulomb
SciTegic.value.DoubleValue
6.474

@<SCITEGIC>MOL_PROPERTY
VdW
SciTegic.value.DoubleValue
0.815

@<SCITEGIC>MOL_PROPERTY
VdW6
SciTegic.value.DoubleValue
-5.088

@<SCITEGIC>MOL_PROPERTY
VdW12
SciTegic.value.DoubleValue
5.902

@<SCITEGIC>MOL_PROPERTY
Bond
SciTegic.value.DoubleValue
0.078

@<SCITEGIC>MOL_PROPERTY
Angle
SciTegic.value.DoubleValue
2.651

@<SCITEGIC>MOL_PROPERTY
Pdih
SciTegic.value.DoubleValue
0.050

@<SCITEGIC>MOL_PROPERTY
Idih
SciTegic.value.DoubleValue
0.000

@<SCITEGIC>MOL_PROPERTY
Tether
SciTegic.value.DoubleValue
0.000

@<TRIPOS>MOLECULE
guest-s19_confgen4.mol2 : confsearch ligand conformer 888
          17          16           1
SMALL
USER_CHARGES
 
@<TRIPOS>ATOM
       1    C1      22.274422   21.009183   21.636994 C.2        1 MOL1         0.6173
       2    O1      23.334099   20.828400   21.069381 O.co2      1 MOL1        -0.6755
       3    O2      22.101927   21.902735   22.444618 O.co2      1 MOL1        -0.6755
       4    C2      21.153696   20.086385   21.310670 C.2        1 MOL1        -0.1504
       5    H1      21.375526   19.310789   20.581322 H          1 MOL1         0.0814
       6    C3      19.923437   20.168766   21.866783 C.2        1 MOL1        -0.1394
       7    H2      19.693774   20.940513   22.601071 H          1 MOL1         0.0817
       8    C4      18.785301   19.226102   21.534567 C.3        1 MOL1        -0.1849
       9    H3      18.986775   18.692871   20.595518 H          1 MOL1         0.0736
      10    H4      17.872795   19.812497   21.362864 H          1 MOL1         0.0736
      11    C5      18.520221   18.206363   22.663740 C.3        1 MOL1        -0.1866
      12    H5      18.321188   18.738918   23.604076 H          1 MOL1         0.0738
      13    H6      17.610606   17.637485   22.426723 H          1 MOL1         0.0738
      14    C6      19.692124   17.221317   22.861620 C.3        1 MOL1        -0.2879
      15    H7      20.606321   17.748762   23.163445 H          1 MOL1         0.0750
      16    H8      19.452922   16.488785   23.643315 H          1 MOL1         0.0750
      17    H9      19.903745   16.671850   21.935124 H          1 MOL1         0.0750
@<TRIPOS>BOND
    1     1     2    1
    2     1     3    2
    3     1     4    1
    4     4     5    1
    5     4     6    2
    6     6     7    1
    7     6     8    1
    8     8     9    1
    9     8    10    1
   10     8    11    1
   11    11    12    1
   12    11    13    1
   13    11    14    1
   14    14    15    1
   15    14    16    1
   16    14    17    1
@<TRIPOS>SUBSTRUCTURE
       1 MOL1            1 RESIDUE      1      MOL     
@<SCITEGIC>MOL_PROPERTY
VConf Rank
SciTegic.value.IntegerValue
888

@<SCITEGIC>MOL_PROPERTY
Conf_Id
SciTegic.value.IntegerValue
45

@<SCITEGIC>MOL_PROPERTY
Delta U+W
SciTegic.value.DoubleValue
0.562

@<SCITEGIC>MOL_PROPERTY
U+W
SciTegic.value.DoubleValue
-52.846

@<SCITEGIC>MOL_PROPERTY
Grad RMS
SciTegic.value.DoubleValue
0.000000

@<SCITEGIC>MOL_PROPERTY
U
SciTegic.value.DoubleValue
10.243

@<SCITEGIC>MOL_PROPERTY
W
SciTegic.value.DoubleValue
-63.089

@<SCITEGIC>MOL_PROPERTY
W(PB)
SciTegic.value.DoubleValue
-65.116

@<SCITEGIC>MOL_PROPERTY
W(SA)
SciTegic.value.DoubleValue
2.026

@<SCITEGIC>MOL_PROPERTY
Valence
SciTegic.value.DoubleValue
2.822

@<SCITEGIC>MOL_PROPERTY
Coulomb
SciTegic.value.DoubleValue
6.637

@<SCITEGIC>MOL_PROPERTY
VdW
SciTegic.value.DoubleValue
0.785

@<SCITEGIC>MOL_PROPERTY
VdW6
SciTegic.value.DoubleValue
-5.216

@<SCITEGIC>MOL_PROPERTY
VdW12
SciTegic.value.DoubleValue
6.001

@<SCITEGIC>MOL_PROPERTY
Bond
SciTegic.value.DoubleValue
0.080

@<SCITEGIC>MOL_PROPERTY
Angle
SciTegic.value.DoubleValue
2.678

@<SCITEGIC>MOL_PROPERTY
Pdih
SciTegic.value.DoubleValue
0.064

@<SCITEGIC>MOL_PROPERTY
Idih
SciTegic.value.DoubleValue
0.000

@<SCITEGIC>MOL_PROPERTY
Tether
SciTegic.value.DoubleValue
0.000

@<TRIPOS>MOLECULE
guest-s19_confgen4.mol2 : confsearch ligand conformer 889
          17          16           1
SMALL
USER_CHARGES
 
@<TRIPOS>ATOM
       1    C1      21.530599   16.732247   20.090366 C.2        1 MOL1         0.6173
       2    O1      22.318971   16.853459   19.173044 O.co2      1 MOL1        -0.6755
       3    O2      20.984891   15.678099   20.357518 O.co2      1 MOL1        -0.6755
       4    C2      21.237288   17.939758   20.908930 C.2        1 MOL1        -0.1504
       5    H1      21.758114   18.848892   20.617167 H          1 MOL1         0.0814
       6    C3      20.381936   17.950683   21.956468 C.2        1 MOL1        -0.1394
       7    H2      19.853047   17.046030   22.255887 H          1 MOL1         0.0817
       8    C4      20.087557   19.183676   22.782488 C.3        1 MOL1        -0.1849
       9    H3      21.006027   19.769771   22.922896 H          1 MOL1         0.0736
      10    H4      19.752109   18.883695   23.784423 H          1 MOL1         0.0736
      11    C5      19.006984   20.060697   22.117502 C.3        1 MOL1        -0.1866
      12    H5      19.342883   20.365196   21.116496 H          1 MOL1         0.0738
      13    H6      18.088727   19.472935   21.979997 H          1 MOL1         0.0738
      14    C6      18.694337   21.314965   22.958091 C.3        1 MOL1        -0.2879
      15    H7      18.325607   21.038356   23.954563 H          1 MOL1         0.0750
      16    H8      19.590444   21.936646   23.084351 H          1 MOL1         0.0750
      17    H9      17.924230   21.925931   22.469434 H          1 MOL1         0.0750
@<TRIPOS>BOND
    1     1     2    1
    2     1     3    2
    3     1     4    1
    4     4     5    1
    5     4     6    2
    6     6     7    1
    7     6     8    1
    8     8     9    1
    9     8    10    1
   10     8    11    1
   11    11    12    1
   12    11    13    1
   13    11    14    1
   14    14    15    1
   15    14    16    1
   16    14    17    1
@<TRIPOS>SUBSTRUCTURE
       1 MOL1            1 RESIDUE      1      MOL     
@<SCITEGIC>MOL_PROPERTY
VConf Rank
SciTegic.value.IntegerValue
889

@<SCITEGIC>MOL_PROPERTY
Conf_Id
SciTegic.value.IntegerValue
36

@<SCITEGIC>MOL_PROPERTY
Delta U+W
SciTegic.value.DoubleValue
0.000

@<SCITEGIC>MOL_PROPERTY
U+W
SciTegic.value.DoubleValue
-53.409

@<SCITEGIC>MOL_PROPERTY
Grad RMS
SciTegic.value.DoubleValue
0.000000

@<SCITEGIC>MOL_PROPERTY
U
SciTegic.value.DoubleValue
9.048

@<SCITEGIC>MOL_PROPERTY
W
SciTegic.value.DoubleValue
-62.457

@<SCITEGIC>MOL_PROPERTY
W(PB)
SciTegic.value.DoubleValue
-64.540

@<SCITEGIC>MOL_PROPERTY
W(SA)
SciTegic.value.DoubleValue
2.084

@<SCITEGIC>MOL_PROPERTY
Valence
SciTegic.value.DoubleValue
2.652

@<SCITEGIC>MOL_PROPERTY
Coulomb
SciTegic.value.DoubleValue
5.578

@<SCITEGIC>MOL_PROPERTY
VdW
SciTegic.value.DoubleValue
0.818

@<SCITEGIC>MOL_PROPERTY
VdW6
SciTegic.value.DoubleValue
-4.534

@<SCITEGIC>MOL_PROPERTY
VdW12
SciTegic.value.DoubleValue
5.352

@<SCITEGIC>MOL_PROPERTY
Bond
SciTegic.value.DoubleValue
0.063

@<SCITEGIC>MOL_PROPERTY
Angle
SciTegic.value.DoubleValue
2.579

@<SCITEGIC>MOL_PROPERTY
Pdih
SciTegic.value.DoubleValue
0.010

@<SCITEGIC>MOL_PROPERTY
Idih
SciTegic.value.DoubleValue
0.000

@<SCITEGIC>MOL_PROPERTY
Tether
SciTegic.value.DoubleValue
0.000

@<TRIPOS>MOLECULE
guest-s19_confgen4.mol2 : confsearch ligand conformer 890
          17          16           1
SMALL
USER_CHARGES
 
@<TRIPOS>ATOM
       1    C1      18.018368   16.383919   21.681249 C.2        1 MOL1         0.6173
       2    O1      17.395397   16.493009   20.641826 O.co2      1 MOL1        -0.6755
       3    O2      17.756392   15.546970   22.523027 O.co2      1 MOL1        -0.6755
       4    C2      19.155959   17.302882   21.956127 C.2        1 MOL1        -0.1504
       5    H1      19.670190   17.151714   22.902501 H          1 MOL1         0.0814
       6    C3      19.557103   18.279564   21.110987 C.2        1 MOL1        -0.1394
       7    H2      19.047622   18.441171   20.161205 H          1 MOL1         0.0817
       8    C4      20.713989   19.211173   21.399013 C.3        1 MOL1        -0.1849
       9    H3      21.125781   19.589435   20.453639 H          1 MOL1         0.0736
      10    H4      21.524964   18.660662   21.895061 H          1 MOL1         0.0736
      11    C5      20.274128   20.397177   22.281585 C.3        1 MOL1        -0.1866
      12    H5      19.464477   20.947472   21.782376 H          1 MOL1         0.0738
      13    H6      19.865606   20.020562   23.229651 H          1 MOL1         0.0738
      14    C6      21.445768   21.356543   22.572105 C.3        1 MOL1        -0.2879
      15    H7      21.852964   21.772755   21.641305 H          1 MOL1         0.0750
      16    H8      21.113850   22.193158   23.200624 H          1 MOL1         0.0750
      17    H9      22.256934   20.837565   23.099463 H          1 MOL1         0.0750
@<TRIPOS>BOND
    1     1     2    1
    2     1     3    2
    3     1     4    1
    4     4     5    1
    5     4     6    2
    6     6     7    1
    7     6     8    1
    8     8     9    1
    9     8    10    1
   10     8    11    1
   11    11    12    1
   12    11    13    1
   13    11    14    1
   14    14    15    1
   15    14    16    1
   16    14    17    1
@<TRIPOS>SUBSTRUCTURE
       1 MOL1            1 RESIDUE      1      MOL     
@<SCITEGIC>MOL_PROPERTY
VConf Rank
SciTegic.value.IntegerValue
890

@<SCITEGIC>MOL_PROPERTY
Conf_Id
SciTegic.value.IntegerValue
1

@<SCITEGIC>MOL_PROPERTY
Delta U+W
SciTegic.value.DoubleValue
0.030

@<SCITEGIC>MOL_PROPERTY
U+W
SciTegic.value.DoubleValue
-53.378

@<SCITEGIC>MOL_PROPERTY
Grad RMS
SciTegic.value.DoubleValue
0.000000

@<SCITEGIC>MOL_PROPERTY
U
SciTegic.value.DoubleValue
9.048

@<SCITEGIC>MOL_PROPERTY
W
SciTegic.value.DoubleValue
-62.426

@<SCITEGIC>MOL_PROPERTY
W(PB)
SciTegic.value.DoubleValue
-64.506

@<SCITEGIC>MOL_PROPERTY
W(SA)
SciTegic.value.DoubleValue
2.080

@<SCITEGIC>MOL_PROPERTY
Valence
SciTegic.value.DoubleValue
2.652

@<SCITEGIC>MOL_PROPERTY
Coulomb
SciTegic.value.DoubleValue
5.578

@<SCITEGIC>MOL_PROPERTY
VdW
SciTegic.value.DoubleValue
0.818

@<SCITEGIC>MOL_PROPERTY
VdW6
SciTegic.value.DoubleValue
-4.535

@<SCITEGIC>MOL_PROPERTY
VdW12
SciTegic.value.DoubleValue
5.352

@<SCITEGIC>MOL_PROPERTY
Bond
SciTegic.value.DoubleValue
0.063

@<SCITEGIC>MOL_PROPERTY
Angle
SciTegic.value.DoubleValue
2.579

@<SCITEGIC>MOL_PROPERTY
Pdih
SciTegic.value.DoubleValue
0.010

@<SCITEGIC>MOL_PROPERTY
Idih
SciTegic.value.DoubleValue
0.000

@<SCITEGIC>MOL_PROPERTY
Tether
SciTegic.value.DoubleValue
0.000

@<TRIPOS>MOLECULE
guest-s19_confgen4.mol2 : confsearch ligand conformer 891
          17          16           1
SMALL
USER_CHARGES
 
@<TRIPOS>ATOM
       1    C1      18.181362   16.626874   22.325467 C.2        1 MOL1         0.6173
       2    O1      18.950207   15.836812   22.840366 O.co2      1 MOL1        -0.6755
       3    O2      16.977552   16.458751   22.305795 O.co2      1 MOL1        -0.6755
       4    C2      18.713937   17.858428   21.682249 C.2        1 MOL1        -0.1504
       5    H1      17.973635   18.521321   21.240337 H          1 MOL1         0.0814
       6    C3      20.028018   18.173941   21.630976 C.2        1 MOL1        -0.1394
       7    H2      20.777929   17.518637   22.073476 H          1 MOL1         0.0817
       8    C4      20.562379   19.431305   20.977900 C.3        1 MOL1        -0.1849
       9    H3      20.016352   19.621875   20.044056 H          1 MOL1         0.0736
      10    H4      21.613362   19.286204   20.693867 H          1 MOL1         0.0736
      11    C5      20.441595   20.667310   21.896194 C.3        1 MOL1        -0.1866
      12    H5      20.744137   21.562357   21.335379 H          1 MOL1         0.0738
      13    H6      19.390788   20.815818   22.181109 H          1 MOL1         0.0738
      14    C6      21.312516   20.548738   23.165111 C.3        1 MOL1        -0.2879
      15    H7      22.370067   20.412153   22.904199 H          1 MOL1         0.0750
      16    H8      21.228808   21.456359   23.776768 H          1 MOL1         0.0750
      17    H9      20.998915   19.696915   23.782584 H          1 MOL1         0.0750
@<TRIPOS>BOND
    1     1     2    1
    2     1     3    2
    3     1     4    1
    4     4     5    1
    5     4     6    2
    6     6     7    1
    7     6     8    1
    8     8     9    1
    9     8    10    1
   10     8    11    1
   11    11    12    1
   12    11    13    1
   13    11    14    1
   14    14    15    1
   15    14    16    1
   16    14    17    1
@<TRIPOS>SUBSTRUCTURE
       1 MOL1            1 RESIDUE      1      MOL     
@<SCITEGIC>MOL_PROPERTY
VConf Rank
SciTegic.value.IntegerValue
891

@<SCITEGIC>MOL_PROPERTY
Conf_Id
SciTegic.value.IntegerValue
3

@<SCITEGIC>MOL_PROPERTY
Delta U+W
SciTegic.value.DoubleValue
0.531

@<SCITEGIC>MOL_PROPERTY
U+W
SciTegic.value.DoubleValue
-52.878

@<SCITEGIC>MOL_PROPERTY
Grad RMS
SciTegic.value.DoubleValue
0.000000

@<SCITEGIC>MOL_PROPERTY
U
SciTegic.value.DoubleValue
10.067

@<SCITEGIC>MOL_PROPERTY
W
SciTegic.value.DoubleValue
-62.945

@<SCITEGIC>MOL_PROPERTY
W(PB)
SciTegic.value.DoubleValue
-64.982

@<SCITEGIC>MOL_PROPERTY
W(SA)
SciTegic.value.DoubleValue
2.037

@<SCITEGIC>MOL_PROPERTY
Valence
SciTegic.value.DoubleValue
2.779

@<SCITEGIC>MOL_PROPERTY
Coulomb
SciTegic.value.DoubleValue
6.474

@<SCITEGIC>MOL_PROPERTY
VdW
SciTegic.value.DoubleValue
0.815

@<SCITEGIC>MOL_PROPERTY
VdW6
SciTegic.value.DoubleValue
-5.088

@<SCITEGIC>MOL_PROPERTY
VdW12
SciTegic.value.DoubleValue
5.902

@<SCITEGIC>MOL_PROPERTY
Bond
SciTegic.value.DoubleValue
0.078

@<SCITEGIC>MOL_PROPERTY
Angle
SciTegic.value.DoubleValue
2.651

@<SCITEGIC>MOL_PROPERTY
Pdih
SciTegic.value.DoubleValue
0.050

@<SCITEGIC>MOL_PROPERTY
Idih
SciTegic.value.DoubleValue
0.000

@<SCITEGIC>MOL_PROPERTY
Tether
SciTegic.value.DoubleValue
0.000

@<TRIPOS>MOLECULE
guest-s19_confgen4.mol2 : confsearch ligand conformer 892
          17          16           1
SMALL
USER_CHARGES
 
@<TRIPOS>ATOM
       1    C1      20.326201   16.953151   19.981480 C.2        1 MOL1         0.6173
       2    O1      19.697975   16.759385   18.958950 O.co2      1 MOL1        -0.6755
       3    O2      20.991494   16.089308   20.521488 O.co2      1 MOL1        -0.6755
       4    C2      20.265657   18.315090   20.577741 C.2        1 MOL1        -0.1504
       5    H1      19.653436   19.038905   20.044839 H          1 MOL1         0.0814
       6    C3      20.911432   18.670590   21.711840 C.2        1 MOL1        -0.1394
       7    H2      21.523961   17.950602   22.254005 H          1 MOL1         0.0817
       8    C4      20.845629   20.057197   22.317915 C.3        1 MOL1        -0.1849
       9    H3      20.480586   20.784523   21.580026 H          1 MOL1         0.0736
      10    H4      21.860411   20.379003   22.587485 H          1 MOL1         0.0736
      11    C5      19.953968   20.104394   23.578026 C.3        1 MOL1        -0.1866
      12    H5      20.316860   19.375230   24.315649 H          1 MOL1         0.0738
      13    H6      20.045194   21.094846   24.044803 H          1 MOL1         0.0738
      14    C6      18.467414   19.831331   23.264298 C.3        1 MOL1        -0.2879
      15    H7      18.327818   18.822504   22.854621 H          1 MOL1         0.0750
      16    H8      17.859633   19.911565   24.174809 H          1 MOL1         0.0750
      17    H9      18.081209   20.554099   22.533857 H          1 MOL1         0.0750
@<TRIPOS>BOND
    1     1     2    1
    2     1     3    2
    3     1     4    1
    4     4     5    1
    5     4     6    2
    6     6     7    1
    7     6     8    1
    8     8     9    1
    9     8    10    1
   10     8    11    1
   11    11    12    1
   12    11    13    1
   13    11    14    1
   14    14    15    1
   15    14    16    1
   16    14    17    1
@<TRIPOS>SUBSTRUCTURE
       1 MOL1            1 RESIDUE      1      MOL     
@<SCITEGIC>MOL_PROPERTY
VConf Rank
SciTegic.value.IntegerValue
892

@<SCITEGIC>MOL_PROPERTY
Conf_Id
SciTegic.value.IntegerValue
45

@<SCITEGIC>MOL_PROPERTY
Delta U+W
SciTegic.value.DoubleValue
0.562

@<SCITEGIC>MOL_PROPERTY
U+W
SciTegic.value.DoubleValue
-52.846

@<SCITEGIC>MOL_PROPERTY
Grad RMS
SciTegic.value.DoubleValue
0.000000

@<SCITEGIC>MOL_PROPERTY
U
SciTegic.value.DoubleValue
10.243

@<SCITEGIC>MOL_PROPERTY
W
SciTegic.value.DoubleValue
-63.089

@<SCITEGIC>MOL_PROPERTY
W(PB)
SciTegic.value.DoubleValue
-65.116

@<SCITEGIC>MOL_PROPERTY
W(SA)
SciTegic.value.DoubleValue
2.026

@<SCITEGIC>MOL_PROPERTY
Valence
SciTegic.value.DoubleValue
2.822

@<SCITEGIC>MOL_PROPERTY
Coulomb
SciTegic.value.DoubleValue
6.637

@<SCITEGIC>MOL_PROPERTY
VdW
SciTegic.value.DoubleValue
0.785

@<SCITEGIC>MOL_PROPERTY
VdW6
SciTegic.value.DoubleValue
-5.216

@<SCITEGIC>MOL_PROPERTY
VdW12
SciTegic.value.DoubleValue
6.001

@<SCITEGIC>MOL_PROPERTY
Bond
SciTegic.value.DoubleValue
0.080

@<SCITEGIC>MOL_PROPERTY
Angle
SciTegic.value.DoubleValue
2.678

@<SCITEGIC>MOL_PROPERTY
Pdih
SciTegic.value.DoubleValue
0.064

@<SCITEGIC>MOL_PROPERTY
Idih
SciTegic.value.DoubleValue
0.000

@<SCITEGIC>MOL_PROPERTY
Tether
SciTegic.value.DoubleValue
0.000

@<TRIPOS>MOLECULE
guest-s19_confgen4.mol2 : confsearch ligand conformer 893
          17          16           1
SMALL
USER_CHARGES
 
@<TRIPOS>ATOM
       1    C1      17.583035   16.762145   22.057000 C.2        1 MOL1         0.6173
       2    O1      17.668153   15.592833   22.378197 O.co2      1 MOL1        -0.6755
       3    O2      16.604187   17.225287   21.502247 O.co2      1 MOL1        -0.6755
       4    C2      18.738789   17.646369   22.367712 C.2        1 MOL1        -0.1504
       5    H1      19.581087   17.169710   22.863937 H          1 MOL1         0.0814
       6    C3      18.781649   18.964319   22.067283 C.2        1 MOL1        -0.1394
       7    H2      17.944271   19.451486   21.568047 H          1 MOL1         0.0817
       8    C4      19.961933   19.856133   22.384828 C.3        1 MOL1        -0.1849
       9    H3      20.385071   19.585446   23.361809 H          1 MOL1         0.0736
      10    H4      19.623825   20.897796   22.468549 H          1 MOL1         0.0736
      11    C5      21.052275   19.753120   21.298754 C.3        1 MOL1        -0.1866
      12    H5      21.394671   18.712167   21.216640 H          1 MOL1         0.0738
      13    H6      20.627192   20.026288   20.322920 H          1 MOL1         0.0738
      14    C6      22.254909   20.666444   21.610261 C.3        1 MOL1        -0.2879
      15    H7      21.945389   21.718337   21.666382 H          1 MOL1         0.0750
      16    H8      22.717800   20.393574   22.567711 H          1 MOL1         0.0750
      17    H9      23.019518   20.579581   20.827344 H          1 MOL1         0.0750
@<TRIPOS>BOND
    1     1     2    1
    2     1     3    2
    3     1     4    1
    4     4     5    1
    5     4     6    2
    6     6     7    1
    7     6     8    1
    8     8     9    1
    9     8    10    1
   10     8    11    1
   11    11    12    1
   12    11    13    1
   13    11    14    1
   14    14    15    1
   15    14    16    1
   16    14    17    1
@<TRIPOS>SUBSTRUCTURE
       1 MOL1            1 RESIDUE      1      MOL     
@<SCITEGIC>MOL_PROPERTY
VConf Rank
SciTegic.value.IntegerValue
893

@<SCITEGIC>MOL_PROPERTY
Conf_Id
SciTegic.value.IntegerValue
36

@<SCITEGIC>MOL_PROPERTY
Delta U+W
SciTegic.value.DoubleValue
0.000

@<SCITEGIC>MOL_PROPERTY
U+W
SciTegic.value.DoubleValue
-53.409

@<SCITEGIC>MOL_PROPERTY
Grad RMS
SciTegic.value.DoubleValue
0.000000

@<SCITEGIC>MOL_PROPERTY
U
SciTegic.value.DoubleValue
9.048

@<SCITEGIC>MOL_PROPERTY
W
SciTegic.value.DoubleValue
-62.457

@<SCITEGIC>MOL_PROPERTY
W(PB)
SciTegic.value.DoubleValue
-64.540

@<SCITEGIC>MOL_PROPERTY
W(SA)
SciTegic.value.DoubleValue
2.084

@<SCITEGIC>MOL_PROPERTY
Valence
SciTegic.value.DoubleValue
2.652

@<SCITEGIC>MOL_PROPERTY
Coulomb
SciTegic.value.DoubleValue
5.578

@<SCITEGIC>MOL_PROPERTY
VdW
SciTegic.value.DoubleValue
0.818

@<SCITEGIC>MOL_PROPERTY
VdW6
SciTegic.value.DoubleValue
-4.534

@<SCITEGIC>MOL_PROPERTY
VdW12
SciTegic.value.DoubleValue
5.352

@<SCITEGIC>MOL_PROPERTY
Bond
SciTegic.value.DoubleValue
0.063

@<SCITEGIC>MOL_PROPERTY
Angle
SciTegic.value.DoubleValue
2.579

@<SCITEGIC>MOL_PROPERTY
Pdih
SciTegic.value.DoubleValue
0.010

@<SCITEGIC>MOL_PROPERTY
Idih
SciTegic.value.DoubleValue
0.000

@<SCITEGIC>MOL_PROPERTY
Tether
SciTegic.value.DoubleValue
0.000

@<TRIPOS>MOLECULE
guest-s19_confgen4.mol2 : confsearch ligand conformer 894
          17          16           1
SMALL
USER_CHARGES
 
@<TRIPOS>ATOM
       1    C1      22.170790   20.723449   23.930735 C.2        1 MOL1         0.6173
       2    O1      21.550158   21.632494   24.449239 O.co2      1 MOL1        -0.6755
       3    O2      23.379897   20.622750   24.005736 O.co2      1 MOL1        -0.6755
       4    C2      21.439708   19.676186   23.167241 C.2        1 MOL1        -0.1504
       5    H1      22.053675   18.892424   22.729439 H          1 MOL1         0.0814
       6    C3      20.097516   19.662954   23.001618 C.2        1 MOL1        -0.1394
       7    H2      19.473065   20.444485   23.434104 H          1 MOL1         0.0817
       8    C4      19.361937   18.595079   22.221999 C.3        1 MOL1        -0.1849
       9    H3      18.325056   18.528219   22.578081 H          1 MOL1         0.0736
      10    H4      19.819466   17.613448   22.406050 H          1 MOL1         0.0736
      11    C5      19.369745   18.897676   20.709587 C.3        1 MOL1        -0.1866
      12    H5      18.909704   19.878952   20.527851 H          1 MOL1         0.0738
      13    H6      20.406509   18.960846   20.350854 H          1 MOL1         0.0738
      14    C6      18.613870   17.818464   19.908663 C.3        1 MOL1        -0.2879
      15    H7      17.564656   17.756311   20.226023 H          1 MOL1         0.0750
      16    H8      18.630138   18.050688   18.835846 H          1 MOL1         0.0750
      17    H9      19.073600   16.831307   20.048677 H          1 MOL1         0.0750
@<TRIPOS>BOND
    1     1     2    1
    2     1     3    2
    3     1     4    1
    4     4     5    1
    5     4     6    2
    6     6     7    1
    7     6     8    1
    8     8     9    1
    9     8    10    1
   10     8    11    1
   11    11    12    1
   12    11    13    1
   13    11    14    1
   14    14    15    1
   15    14    16    1
   16    14    17    1
@<TRIPOS>SUBSTRUCTURE
       1 MOL1            1 RESIDUE      1      MOL     
@<SCITEGIC>MOL_PROPERTY
VConf Rank
SciTegic.value.IntegerValue
894

@<SCITEGIC>MOL_PROPERTY
Conf_Id
SciTegic.value.IntegerValue
1

@<SCITEGIC>MOL_PROPERTY
Delta U+W
SciTegic.value.DoubleValue
0.030

@<SCITEGIC>MOL_PROPERTY
U+W
SciTegic.value.DoubleValue
-53.378

@<SCITEGIC>MOL_PROPERTY
Grad RMS
SciTegic.value.DoubleValue
0.000000

@<SCITEGIC>MOL_PROPERTY
U
SciTegic.value.DoubleValue
9.048

@<SCITEGIC>MOL_PROPERTY
W
SciTegic.value.DoubleValue
-62.426

@<SCITEGIC>MOL_PROPERTY
W(PB)
SciTegic.value.DoubleValue
-64.506

@<SCITEGIC>MOL_PROPERTY
W(SA)
SciTegic.value.DoubleValue
2.080

@<SCITEGIC>MOL_PROPERTY
Valence
SciTegic.value.DoubleValue
2.652

@<SCITEGIC>MOL_PROPERTY
Coulomb
SciTegic.value.DoubleValue
5.578

@<SCITEGIC>MOL_PROPERTY
VdW
SciTegic.value.DoubleValue
0.818

@<SCITEGIC>MOL_PROPERTY
VdW6
SciTegic.value.DoubleValue
-4.535

@<SCITEGIC>MOL_PROPERTY
VdW12
SciTegic.value.DoubleValue
5.352

@<SCITEGIC>MOL_PROPERTY
Bond
SciTegic.value.DoubleValue
0.063

@<SCITEGIC>MOL_PROPERTY
Angle
SciTegic.value.DoubleValue
2.579

@<SCITEGIC>MOL_PROPERTY
Pdih
SciTegic.value.DoubleValue
0.010

@<SCITEGIC>MOL_PROPERTY
Idih
SciTegic.value.DoubleValue
0.000

@<SCITEGIC>MOL_PROPERTY
Tether
SciTegic.value.DoubleValue
0.000

@<TRIPOS>MOLECULE
guest-s19_confgen4.mol2 : confsearch ligand conformer 895
          17          16           1
SMALL
USER_CHARGES
 
@<TRIPOS>ATOM
       1    C1      22.136867   19.345511   19.828163 C.2        1 MOL1         0.6173
       2    O1      22.895720   20.146302   20.341307 O.co2      1 MOL1        -0.6755
       3    O2      22.442217   18.671758   18.863471 O.co2      1 MOL1        -0.6755
       4    C2      20.768722   19.167569   20.385483 C.2        1 MOL1        -0.1504
       5    H1      20.141371   18.437256   19.879683 H          1 MOL1         0.0814
       6    C3      20.295952   19.848092   21.454297 C.2        1 MOL1        -0.1394
       7    H2      20.917137   20.579621   21.970622 H          1 MOL1         0.0817
       8    C4      18.903461   19.658817   22.018353 C.3        1 MOL1        -0.1849
       9    H3      18.183509   19.555831   21.195195 H          1 MOL1         0.0736
      10    H4      18.602762   20.554885   22.577761 H          1 MOL1         0.0736
      11    C5      18.804330   18.420068   22.935541 C.3        1 MOL1        -0.1866
      12    H5      17.755636   18.272998   23.228400 H          1 MOL1         0.0738
      13    H6      19.103445   17.521584   22.378151 H          1 MOL1         0.0738
      14    C6      19.669038   18.554906   24.207080 C.3        1 MOL1        -0.2879
      15    H7      19.378807   19.440517   24.787255 H          1 MOL1         0.0750
      16    H8      19.548926   17.673808   24.850623 H          1 MOL1         0.0750
      17    H9      20.733656   18.644277   23.954447 H          1 MOL1         0.0750
@<TRIPOS>BOND
    1     1     2    1
    2     1     3    2
    3     1     4    1
    4     4     5    1
    5     4     6    2
    6     6     7    1
    7     6     8    1
    8     8     9    1
    9     8    10    1
   10     8    11    1
   11    11    12    1
   12    11    13    1
   13    11    14    1
   14    14    15    1
   15    14    16    1
   16    14    17    1
@<TRIPOS>SUBSTRUCTURE
       1 MOL1            1 RESIDUE      1      MOL     
@<SCITEGIC>MOL_PROPERTY
VConf Rank
SciTegic.value.IntegerValue
895

@<SCITEGIC>MOL_PROPERTY
Conf_Id
SciTegic.value.IntegerValue
3

@<SCITEGIC>MOL_PROPERTY
Delta U+W
SciTegic.value.DoubleValue
0.531

@<SCITEGIC>MOL_PROPERTY
U+W
SciTegic.value.DoubleValue
-52.878

@<SCITEGIC>MOL_PROPERTY
Grad RMS
SciTegic.value.DoubleValue
0.000000

@<SCITEGIC>MOL_PROPERTY
U
SciTegic.value.DoubleValue
10.067

@<SCITEGIC>MOL_PROPERTY
W
SciTegic.value.DoubleValue
-62.945

@<SCITEGIC>MOL_PROPERTY
W(PB)
SciTegic.value.DoubleValue
-64.982

@<SCITEGIC>MOL_PROPERTY
W(SA)
SciTegic.value.DoubleValue
2.037

@<SCITEGIC>MOL_PROPERTY
Valence
SciTegic.value.DoubleValue
2.779

@<SCITEGIC>MOL_PROPERTY
Coulomb
SciTegic.value.DoubleValue
6.474

@<SCITEGIC>MOL_PROPERTY
VdW
SciTegic.value.DoubleValue
0.815

@<SCITEGIC>MOL_PROPERTY
VdW6
SciTegic.value.DoubleValue
-5.088

@<SCITEGIC>MOL_PROPERTY
VdW12
SciTegic.value.DoubleValue
5.902

@<SCITEGIC>MOL_PROPERTY
Bond
SciTegic.value.DoubleValue
0.078

@<SCITEGIC>MOL_PROPERTY
Angle
SciTegic.value.DoubleValue
2.651

@<SCITEGIC>MOL_PROPERTY
Pdih
SciTegic.value.DoubleValue
0.050

@<SCITEGIC>MOL_PROPERTY
Idih
SciTegic.value.DoubleValue
0.000

@<SCITEGIC>MOL_PROPERTY
Tether
SciTegic.value.DoubleValue
0.000

@<TRIPOS>MOLECULE
guest-s19_confgen4.mol2 : confsearch ligand conformer 896
          17          16           1
SMALL
USER_CHARGES
 
@<TRIPOS>ATOM
       1    C1      21.111456   21.787307   22.855690 C.2        1 MOL1         0.6173
       2    O1      20.683269   22.902916   22.632414 O.co2      1 MOL1        -0.6755
       3    O2      22.275831   21.570418   23.134324 O.co2      1 MOL1        -0.6755
       4    C2      20.149582   20.654414   22.782025 C.2        1 MOL1        -0.1504
       5    H1      19.125442   20.918048   22.528371 H          1 MOL1         0.0814
       6    C3      20.487213   19.363558   23.004016 C.2        1 MOL1        -0.1394
       7    H2      21.511807   19.090249   23.255072 H          1 MOL1         0.0817
       8    C4      19.506266   18.212070   22.925572 C.3        1 MOL1        -0.1849
       9    H3      18.472696   18.580866   22.975203 H          1 MOL1         0.0736
      10    H4      19.641999   17.565281   23.802641 H          1 MOL1         0.0736
      11    C5      19.694950   17.367433   21.646451 C.3        1 MOL1        -0.1866
      12    H5      20.729354   17.000302   21.594674 H          1 MOL1         0.0738
      13    H6      19.049595   16.480101   21.704389 H          1 MOL1         0.0738
      14    C6      19.356451   18.152357   20.361094 C.3        1 MOL1        -0.2879
      15    H7      20.025715   19.013284   20.234826 H          1 MOL1         0.0750
      16    H8      19.463882   17.510465   19.477183 H          1 MOL1         0.0750
      17    H9      18.323370   18.522653   20.387885 H          1 MOL1         0.0750
@<TRIPOS>BOND
    1     1     2    1
    2     1     3    2
    3     1     4    1
    4     4     5    1
    5     4     6    2
    6     6     7    1
    7     6     8    1
    8     8     9    1
    9     8    10    1
   10     8    11    1
   11    11    12    1
   12    11    13    1
   13    11    14    1
   14    14    15    1
   15    14    16    1
   16    14    17    1
@<TRIPOS>SUBSTRUCTURE
       1 MOL1            1 RESIDUE      1      MOL     
@<SCITEGIC>MOL_PROPERTY
VConf Rank
SciTegic.value.IntegerValue
896

@<SCITEGIC>MOL_PROPERTY
Conf_Id
SciTegic.value.IntegerValue
45

@<SCITEGIC>MOL_PROPERTY
Delta U+W
SciTegic.value.DoubleValue
0.562

@<SCITEGIC>MOL_PROPERTY
U+W
SciTegic.value.DoubleValue
-52.846

@<SCITEGIC>MOL_PROPERTY
Grad RMS
SciTegic.value.DoubleValue
0.000000

@<SCITEGIC>MOL_PROPERTY
U
SciTegic.value.DoubleValue
10.243

@<SCITEGIC>MOL_PROPERTY
W
SciTegic.value.DoubleValue
-63.089

@<SCITEGIC>MOL_PROPERTY
W(PB)
SciTegic.value.DoubleValue
-65.116

@<SCITEGIC>MOL_PROPERTY
W(SA)
SciTegic.value.DoubleValue
2.026

@<SCITEGIC>MOL_PROPERTY
Valence
SciTegic.value.DoubleValue
2.822

@<SCITEGIC>MOL_PROPERTY
Coulomb
SciTegic.value.DoubleValue
6.637

@<SCITEGIC>MOL_PROPERTY
VdW
SciTegic.value.DoubleValue
0.785

@<SCITEGIC>MOL_PROPERTY
VdW6
SciTegic.value.DoubleValue
-5.216

@<SCITEGIC>MOL_PROPERTY
VdW12
SciTegic.value.DoubleValue
6.001

@<SCITEGIC>MOL_PROPERTY
Bond
SciTegic.value.DoubleValue
0.080

@<SCITEGIC>MOL_PROPERTY
Angle
SciTegic.value.DoubleValue
2.678

@<SCITEGIC>MOL_PROPERTY
Pdih
SciTegic.value.DoubleValue
0.064

@<SCITEGIC>MOL_PROPERTY
Idih
SciTegic.value.DoubleValue
0.000

@<SCITEGIC>MOL_PROPERTY
Tether
SciTegic.value.DoubleValue
0.000

@<TRIPOS>MOLECULE
guest-s19_confgen4.mol2 : confsearch ligand conformer 897
          17          16           1
SMALL
USER_CHARGES
 
@<TRIPOS>ATOM
       1    C1      22.982946   20.675105   21.796519 C.2        1 MOL1         0.6173
       2    O1      23.251612   21.841668   22.007835 O.co2      1 MOL1        -0.6755
       3    O2      23.762613   19.902145   21.272070 O.co2      1 MOL1        -0.6755
       4    C2      21.635970   20.194468   22.207379 C.2        1 MOL1        -0.1504
       5    H1      20.988348   20.935668   22.670107 H          1 MOL1         0.0814
       6    C3      21.202976   18.925175   22.032747 C.2        1 MOL1        -0.1394
       7    H2      21.842740   18.175131   21.568087 H          1 MOL1         0.0817
       8    C4      19.830638   18.445009   22.451515 C.3        1 MOL1        -0.1849
       9    H3      19.545253   18.909138   23.405427 H          1 MOL1         0.0736
      10    H4      19.857984   17.361144   22.627233 H          1 MOL1         0.0736
      11    C5      18.770853   18.767285   21.378198 C.3        1 MOL1        -0.1866
      12    H5      18.739269   19.851855   21.204215 H          1 MOL1         0.0738
      13    H6      19.057435   18.300325   20.425629 H          1 MOL1         0.0738
      14    C6      17.370686   18.272594   21.793334 C.3        1 MOL1        -0.2879
      15    H7      17.366561   17.184929   21.942997 H          1 MOL1         0.0750
      16    H8      17.047062   18.748683   22.728237 H          1 MOL1         0.0750
      17    H9      16.630806   18.510716   21.018088 H          1 MOL1         0.0750
@<TRIPOS>BOND
    1     1     2    1
    2     1     3    2
    3     1     4    1
    4     4     5    1
    5     4     6    2
    6     6     7    1
    7     6     8    1
    8     8     9    1
    9     8    10    1
   10     8    11    1
   11    11    12    1
   12    11    13    1
   13    11    14    1
   14    14    15    1
   15    14    16    1
   16    14    17    1
@<TRIPOS>SUBSTRUCTURE
       1 MOL1            1 RESIDUE      1      MOL     
@<SCITEGIC>MOL_PROPERTY
VConf Rank
SciTegic.value.IntegerValue
897

@<SCITEGIC>MOL_PROPERTY
Conf_Id
SciTegic.value.IntegerValue
36

@<SCITEGIC>MOL_PROPERTY
Delta U+W
SciTegic.value.DoubleValue
0.000

@<SCITEGIC>MOL_PROPERTY
U+W
SciTegic.value.DoubleValue
-53.409

@<SCITEGIC>MOL_PROPERTY
Grad RMS
SciTegic.value.DoubleValue
0.000000

@<SCITEGIC>MOL_PROPERTY
U
SciTegic.value.DoubleValue
9.048

@<SCITEGIC>MOL_PROPERTY
W
SciTegic.value.DoubleValue
-62.457

@<SCITEGIC>MOL_PROPERTY
W(PB)
SciTegic.value.DoubleValue
-64.540

@<SCITEGIC>MOL_PROPERTY
W(SA)
SciTegic.value.DoubleValue
2.084

@<SCITEGIC>MOL_PROPERTY
Valence
SciTegic.value.DoubleValue
2.652

@<SCITEGIC>MOL_PROPERTY
Coulomb
SciTegic.value.DoubleValue
5.578

@<SCITEGIC>MOL_PROPERTY
VdW
SciTegic.value.DoubleValue
0.818

@<SCITEGIC>MOL_PROPERTY
VdW6
SciTegic.value.DoubleValue
-4.534

@<SCITEGIC>MOL_PROPERTY
VdW12
SciTegic.value.DoubleValue
5.352

@<SCITEGIC>MOL_PROPERTY
Bond
SciTegic.value.DoubleValue
0.063

@<SCITEGIC>MOL_PROPERTY
Angle
SciTegic.value.DoubleValue
2.579

@<SCITEGIC>MOL_PROPERTY
Pdih
SciTegic.value.DoubleValue
0.010

@<SCITEGIC>MOL_PROPERTY
Idih
SciTegic.value.DoubleValue
0.000

@<SCITEGIC>MOL_PROPERTY
Tether
SciTegic.value.DoubleValue
0.000

@<TRIPOS>MOLECULE
guest-s19_confgen4.mol2 : confsearch ligand conformer 898
          17          16           1
SMALL
USER_CHARGES
 
@<TRIPOS>ATOM
       1    C1      17.553283   19.765296   24.120520 C.2        1 MOL1         0.6173
       2    O1      16.555095   20.013788   23.470700 O.co2      1 MOL1        -0.6755
       3    O2      17.625885   19.958092   25.318546 O.co2      1 MOL1        -0.6755
       4    C2      18.749972   19.198605   23.441582 C.2        1 MOL1        -0.1504
       5    H1      19.607899   18.999550   24.079741 H          1 MOL1         0.0814
       6    C3      18.810407   18.934581   22.116544 C.2        1 MOL1        -0.1394
       7    H2      17.957434   19.132224   21.467585 H          1 MOL1         0.0817
       8    C4      20.032105   18.359935   21.433554 C.3        1 MOL1        -0.1849
       9    H3      19.728657   17.834663   20.517914 H          1 MOL1         0.0736
      10    H4      20.506651   17.610195   22.081244 H          1 MOL1         0.0736
      11    C5      21.050620   19.463585   21.081984 C.3        1 MOL1        -0.1866
      12    H5      20.574302   20.211070   20.432404 H          1 MOL1         0.0738
      13    H6      21.358397   19.987475   21.997611 H          1 MOL1         0.0738
      14    C6      22.294897   18.887057   20.377064 C.3        1 MOL1        -0.2879
      15    H7      22.018628   18.384424   19.440866 H          1 MOL1         0.0750
      16    H8      23.007372   19.686376   20.134991 H          1 MOL1         0.0750
      17    H9      22.807888   18.158819   21.018893 H          1 MOL1         0.0750
@<TRIPOS>BOND
    1     1     2    1
    2     1     3    2
    3     1     4    1
    4     4     5    1
    5     4     6    2
    6     6     7    1
    7     6     8    1
    8     8     9    1
    9     8    10    1
   10     8    11    1
   11    11    12    1
   12    11    13    1
   13    11    14    1
   14    14    15    1
   15    14    16    1
   16    14    17    1
@<TRIPOS>SUBSTRUCTURE
       1 MOL1            1 RESIDUE      1      MOL     
@<SCITEGIC>MOL_PROPERTY
VConf Rank
SciTegic.value.IntegerValue
898

@<SCITEGIC>MOL_PROPERTY
Conf_Id
SciTegic.value.IntegerValue
1

@<SCITEGIC>MOL_PROPERTY
Delta U+W
SciTegic.value.DoubleValue
0.030

@<SCITEGIC>MOL_PROPERTY
U+W
SciTegic.value.DoubleValue
-53.378

@<SCITEGIC>MOL_PROPERTY
Grad RMS
SciTegic.value.DoubleValue
0.000000

@<SCITEGIC>MOL_PROPERTY
U
SciTegic.value.DoubleValue
9.048

@<SCITEGIC>MOL_PROPERTY
W
SciTegic.value.DoubleValue
-62.426

@<SCITEGIC>MOL_PROPERTY
W(PB)
SciTegic.value.DoubleValue
-64.506

@<SCITEGIC>MOL_PROPERTY
W(SA)
SciTegic.value.DoubleValue
2.080

@<SCITEGIC>MOL_PROPERTY
Valence
SciTegic.value.DoubleValue
2.652

@<SCITEGIC>MOL_PROPERTY
Coulomb
SciTegic.value.DoubleValue
5.578

@<SCITEGIC>MOL_PROPERTY
VdW
SciTegic.value.DoubleValue
0.818

@<SCITEGIC>MOL_PROPERTY
VdW6
SciTegic.value.DoubleValue
-4.535

@<SCITEGIC>MOL_PROPERTY
VdW12
SciTegic.value.DoubleValue
5.352

@<SCITEGIC>MOL_PROPERTY
Bond
SciTegic.value.DoubleValue
0.063

@<SCITEGIC>MOL_PROPERTY
Angle
SciTegic.value.DoubleValue
2.579

@<SCITEGIC>MOL_PROPERTY
Pdih
SciTegic.value.DoubleValue
0.010

@<SCITEGIC>MOL_PROPERTY
Idih
SciTegic.value.DoubleValue
0.000

@<SCITEGIC>MOL_PROPERTY
Tether
SciTegic.value.DoubleValue
0.000

@<TRIPOS>MOLECULE
guest-s19_confgen4.mol2 : confsearch ligand conformer 899
          17          16           1
SMALL
USER_CHARGES
 
@<TRIPOS>ATOM
       1    C1      19.528370   18.654450   25.062647 C.2        1 MOL1         0.6173
       2    O1      19.378183   19.805283   25.427979 O.co2      1 MOL1        -0.6755
       3    O2      19.206258   17.699148   25.741950 O.co2      1 MOL1        -0.6755
       4    C2      20.133758   18.378505   23.731688 C.2        1 MOL1        -0.1504
       5    H1      20.240410   17.329050   23.467058 H          1 MOL1         0.0814
       6    C3      20.536649   19.342163   22.872603 C.2        1 MOL1        -0.1394
       7    H2      20.431337   20.396772   23.126190 H          1 MOL1         0.0817
       8    C4      21.148480   19.053690   21.517811 C.3        1 MOL1        -0.1849
       9    H3      21.840568   18.204649   21.599487 H          1 MOL1         0.0736
      10    H4      21.752653   19.910837   21.191364 H          1 MOL1         0.0736
      11    C5      20.081788   18.736076   20.446900 C.3        1 MOL1        -0.1866
      12    H5      20.584436   18.433290   19.518019 H          1 MOL1         0.0738
      13    H6      19.476385   17.877943   20.770195 H          1 MOL1         0.0738
      14    C6      19.161722   19.940211   20.153213 C.3        1 MOL1        -0.2879
      15    H7      19.744918   20.806956   19.815901 H          1 MOL1         0.0750
      16    H8      18.439106   19.690602   19.365540 H          1 MOL1         0.0750
      17    H9      18.596533   20.234172   21.047287 H          1 MOL1         0.0750
@<TRIPOS>BOND
    1     1     2    1
    2     1     3    2
    3     1     4    1
    4     4     5    1
    5     4     6    2
    6     6     7    1
    7     6     8    1
    8     8     9    1
    9     8    10    1
   10     8    11    1
   11    11    12    1
   12    11    13    1
   13    11    14    1
   14    14    15    1
   15    14    16    1
   16    14    17    1
@<TRIPOS>SUBSTRUCTURE
       1 MOL1            1 RESIDUE      1      MOL     
@<SCITEGIC>MOL_PROPERTY
VConf Rank
SciTegic.value.IntegerValue
899

@<SCITEGIC>MOL_PROPERTY
Conf_Id
SciTegic.value.IntegerValue
3

@<SCITEGIC>MOL_PROPERTY
Delta U+W
SciTegic.value.DoubleValue
0.531

@<SCITEGIC>MOL_PROPERTY
U+W
SciTegic.value.DoubleValue
-52.878

@<SCITEGIC>MOL_PROPERTY
Grad RMS
SciTegic.value.DoubleValue
0.000000

@<SCITEGIC>MOL_PROPERTY
U
SciTegic.value.DoubleValue
10.067

@<SCITEGIC>MOL_PROPERTY
W
SciTegic.value.DoubleValue
-62.945

@<SCITEGIC>MOL_PROPERTY
W(PB)
SciTegic.value.DoubleValue
-64.982

@<SCITEGIC>MOL_PROPERTY
W(SA)
SciTegic.value.DoubleValue
2.037

@<SCITEGIC>MOL_PROPERTY
Valence
SciTegic.value.DoubleValue
2.779

@<SCITEGIC>MOL_PROPERTY
Coulomb
SciTegic.value.DoubleValue
6.474

@<SCITEGIC>MOL_PROPERTY
VdW
SciTegic.value.DoubleValue
0.815

@<SCITEGIC>MOL_PROPERTY
VdW6
SciTegic.value.DoubleValue
-5.088

@<SCITEGIC>MOL_PROPERTY
VdW12
SciTegic.value.DoubleValue
5.902

@<SCITEGIC>MOL_PROPERTY
Bond
SciTegic.value.DoubleValue
0.078

@<SCITEGIC>MOL_PROPERTY
Angle
SciTegic.value.DoubleValue
2.651

@<SCITEGIC>MOL_PROPERTY
Pdih
SciTegic.value.DoubleValue
0.050

@<SCITEGIC>MOL_PROPERTY
Idih
SciTegic.value.DoubleValue
0.000

@<SCITEGIC>MOL_PROPERTY
Tether
SciTegic.value.DoubleValue
0.000

@<TRIPOS>MOLECULE
guest-s19_confgen4.mol2 : confsearch ligand conformer 900
          17          16           1
SMALL
USER_CHARGES
 
@<TRIPOS>ATOM
       1    C1      22.273920   18.148379   20.362599 C.2        1 MOL1         0.6173
       2    O1      23.456709   18.420305   20.432222 O.co2      1 MOL1        -0.6755
       3    O2      21.755073   17.711782   19.352337 O.co2      1 MOL1        -0.6755
       4    C2      21.446137   18.364523   21.580027 C.2        1 MOL1        -0.1504
       5    H1      21.972274   18.756449   22.447367 H          1 MOL1         0.0814
       6    C3      20.119658   18.107897   21.644689 C.2        1 MOL1        -0.1394
       7    H2      19.584017   17.718556   20.779229 H          1 MOL1         0.0817
       8    C4      19.279078   18.331581   22.884740 C.3        1 MOL1        -0.1849
       9    H3      19.918244   18.423675   23.773405 H          1 MOL1         0.0736
      10    H4      18.647230   17.449335   23.053321 H          1 MOL1         0.0736
      11    C5      18.376012   19.578565   22.763623 C.3        1 MOL1        -0.1866
      12    H5      17.738152   19.488465   21.873412 H          1 MOL1         0.0738
      13    H6      17.701632   19.618287   23.630128 H          1 MOL1         0.0738
      14    C6      19.183589   20.892278   22.694289 C.3        1 MOL1        -0.2879
      15    H7      19.823930   20.917090   21.802997 H          1 MOL1         0.0750
      16    H8      18.509865   21.757647   22.648481 H          1 MOL1         0.0750
      17    H9      19.823358   21.006908   23.578964 H          1 MOL1         0.0750
@<TRIPOS>BOND
    1     1     2    1
    2     1     3    2
    3     1     4    1
    4     4     5    1
    5     4     6    2
    6     6     7    1
    7     6     8    1
    8     8     9    1
    9     8    10    1
   10     8    11    1
   11    11    12    1
   12    11    13    1
   13    11    14    1
   14    14    15    1
   15    14    16    1
   16    14    17    1
@<TRIPOS>SUBSTRUCTURE
       1 MOL1            1 RESIDUE      1      MOL     
@<SCITEGIC>MOL_PROPERTY
VConf Rank
SciTegic.value.IntegerValue
900

@<SCITEGIC>MOL_PROPERTY
Conf_Id
SciTegic.value.IntegerValue
45

@<SCITEGIC>MOL_PROPERTY
Delta U+W
SciTegic.value.DoubleValue
0.562

@<SCITEGIC>MOL_PROPERTY
U+W
SciTegic.value.DoubleValue
-52.846

@<SCITEGIC>MOL_PROPERTY
Grad RMS
SciTegic.value.DoubleValue
0.000000

@<SCITEGIC>MOL_PROPERTY
U
SciTegic.value.DoubleValue
10.243

@<SCITEGIC>MOL_PROPERTY
W
SciTegic.value.DoubleValue
-63.089

@<SCITEGIC>MOL_PROPERTY
W(PB)
SciTegic.value.DoubleValue
-65.116

@<SCITEGIC>MOL_PROPERTY
W(SA)
SciTegic.value.DoubleValue
2.026

@<SCITEGIC>MOL_PROPERTY
Valence
SciTegic.value.DoubleValue
2.822

@<SCITEGIC>MOL_PROPERTY
Coulomb
SciTegic.value.DoubleValue
6.637

@<SCITEGIC>MOL_PROPERTY
VdW
SciTegic.value.DoubleValue
0.785

@<SCITEGIC>MOL_PROPERTY
VdW6
SciTegic.value.DoubleValue
-5.216

@<SCITEGIC>MOL_PROPERTY
VdW12
SciTegic.value.DoubleValue
6.001

@<SCITEGIC>MOL_PROPERTY
Bond
SciTegic.value.DoubleValue
0.080

@<SCITEGIC>MOL_PROPERTY
Angle
SciTegic.value.DoubleValue
2.678

@<SCITEGIC>MOL_PROPERTY
Pdih
SciTegic.value.DoubleValue
0.064

@<SCITEGIC>MOL_PROPERTY
Idih
SciTegic.value.DoubleValue
0.000

@<SCITEGIC>MOL_PROPERTY
Tether
SciTegic.value.DoubleValue
0.000

@<TRIPOS>MOLECULE
guest-s19_confgen4.mol2 : confsearch ligand conformer 901
          17          16           1
SMALL
USER_CHARGES
 
@<TRIPOS>ATOM
       1    C1      22.332843   20.594336   23.843129 C.2        1 MOL1         0.6173
       2    O1      23.139998   21.455010   23.550819 O.co2      1 MOL1        -0.6755
       3    O2      22.398010   19.949990   24.873161 O.co2      1 MOL1        -0.6755
       4    C2      21.224787   20.336680   22.883970 C.2        1 MOL1        -0.1504
       5    H1      21.224969   20.946794   21.983598 H          1 MOL1         0.0814
       6    C3      20.259115   19.410142   23.079135 C.2        1 MOL1        -0.1394
       7    H2      20.250734   18.791798   23.976550 H          1 MOL1         0.0817
       8    C4      19.136839   19.152863   22.097533 C.3        1 MOL1        -0.1849
       9    H3      18.793437   20.101410   21.662628 H          1 MOL1         0.0736
      10    H4      18.276347   18.722360   22.627257 H          1 MOL1         0.0736
      11    C5      19.582260   18.195704   20.973051 C.3        1 MOL1        -0.1866
      12    H5      20.440577   18.626940   20.439302 H          1 MOL1         0.0738
      13    H6      19.923333   17.247025   21.410367 H          1 MOL1         0.0738
      14    C6      18.440961   17.920849   19.973341 C.3        1 MOL1        -0.2879
      15    H7      17.580803   17.459478   20.476031 H          1 MOL1         0.0750
      16    H8      18.102275   18.850975   19.498374 H          1 MOL1         0.0750
      17    H9      18.776465   17.238683   19.181371 H          1 MOL1         0.0750
@<TRIPOS>BOND
    1     1     2    1
    2     1     3    2
    3     1     4    1
    4     4     5    1
    5     4     6    2
    6     6     7    1
    7     6     8    1
    8     8     9    1
    9     8    10    1
   10     8    11    1
   11    11    12    1
   12    11    13    1
   13    11    14    1
   14    14    15    1
   15    14    16    1
   16    14    17    1
@<TRIPOS>SUBSTRUCTURE
       1 MOL1            1 RESIDUE      1      MOL     
@<SCITEGIC>MOL_PROPERTY
VConf Rank
SciTegic.value.IntegerValue
901

@<SCITEGIC>MOL_PROPERTY
Conf_Id
SciTegic.value.IntegerValue
36

@<SCITEGIC>MOL_PROPERTY
Delta U+W
SciTegic.value.DoubleValue
0.000

@<SCITEGIC>MOL_PROPERTY
U+W
SciTegic.value.DoubleValue
-53.409

@<SCITEGIC>MOL_PROPERTY
Grad RMS
SciTegic.value.DoubleValue
0.000000

@<SCITEGIC>MOL_PROPERTY
U
SciTegic.value.DoubleValue
9.048

@<SCITEGIC>MOL_PROPERTY
W
SciTegic.value.DoubleValue
-62.457

@<SCITEGIC>MOL_PROPERTY
W(PB)
SciTegic.value.DoubleValue
-64.540

@<SCITEGIC>MOL_PROPERTY
W(SA)
SciTegic.value.DoubleValue
2.084

@<SCITEGIC>MOL_PROPERTY
Valence
SciTegic.value.DoubleValue
2.652

@<SCITEGIC>MOL_PROPERTY
Coulomb
SciTegic.value.DoubleValue
5.578

@<SCITEGIC>MOL_PROPERTY
VdW
SciTegic.value.DoubleValue
0.818

@<SCITEGIC>MOL_PROPERTY
VdW6
SciTegic.value.DoubleValue
-4.534

@<SCITEGIC>MOL_PROPERTY
VdW12
SciTegic.value.DoubleValue
5.352

@<SCITEGIC>MOL_PROPERTY
Bond
SciTegic.value.DoubleValue
0.063

@<SCITEGIC>MOL_PROPERTY
Angle
SciTegic.value.DoubleValue
2.579

@<SCITEGIC>MOL_PROPERTY
Pdih
SciTegic.value.DoubleValue
0.010

@<SCITEGIC>MOL_PROPERTY
Idih
SciTegic.value.DoubleValue
0.000

@<SCITEGIC>MOL_PROPERTY
Tether
SciTegic.value.DoubleValue
0.000

@<TRIPOS>MOLECULE
guest-s19_confgen4.mol2 : confsearch ligand conformer 902
          17          16           1
SMALL
USER_CHARGES
 
@<TRIPOS>ATOM
       1    C1      16.783644   20.059945   21.828121 C.2        1 MOL1         0.6173
       2    O1      16.557413   20.627271   22.880430 O.co2      1 MOL1        -0.6755
       3    O2      15.907949   19.748492   21.044628 O.co2      1 MOL1        -0.6755
       4    C2      18.185902   19.723290   21.461380 C.2        1 MOL1        -0.1504
       5    H1      18.318627   19.217035   20.507966 H          1 MOL1         0.0814
       6    C3      19.256907   20.008536   22.236408 C.2        1 MOL1        -0.1394
       7    H2      19.135128   20.513538   23.194488 H          1 MOL1         0.0817
       8    C4      20.679719   19.660997   21.856856 C.3        1 MOL1        -0.1849
       9    H3      21.373549   20.341815   22.368201 H          1 MOL1         0.0736
      10    H4      20.829012   19.814016   20.779311 H          1 MOL1         0.0736
      11    C5      21.020070   18.203020   22.227644 C.3        1 MOL1        -0.1866
      12    H5      20.872070   18.053035   23.306146 H          1 MOL1         0.0738
      13    H6      20.329322   17.520250   21.713589 H          1 MOL1         0.0738
      14    C6      22.471812   17.843680   21.852352 C.3        1 MOL1        -0.2879
      15    H7      23.185479   18.491667   22.377921 H          1 MOL1         0.0750
      16    H8      22.695241   16.803638   22.123503 H          1 MOL1         0.0750
      17    H9      22.637648   17.955505   20.772801 H          1 MOL1         0.0750
@<TRIPOS>BOND
    1     1     2    1
    2     1     3    2
    3     1     4    1
    4     4     5    1
    5     4     6    2
    6     6     7    1
    7     6     8    1
    8     8     9    1
    9     8    10    1
   10     8    11    1
   11    11    12    1
   12    11    13    1
   13    11    14    1
   14    14    15    1
   15    14    16    1
   16    14    17    1
@<TRIPOS>SUBSTRUCTURE
       1 MOL1            1 RESIDUE      1      MOL     
@<SCITEGIC>MOL_PROPERTY
VConf Rank
SciTegic.value.IntegerValue
902

@<SCITEGIC>MOL_PROPERTY
Conf_Id
SciTegic.value.IntegerValue
1

@<SCITEGIC>MOL_PROPERTY
Delta U+W
SciTegic.value.DoubleValue
0.030

@<SCITEGIC>MOL_PROPERTY
U+W
SciTegic.value.DoubleValue
-53.378

@<SCITEGIC>MOL_PROPERTY
Grad RMS
SciTegic.value.DoubleValue
0.000000

@<SCITEGIC>MOL_PROPERTY
U
SciTegic.value.DoubleValue
9.048

@<SCITEGIC>MOL_PROPERTY
W
SciTegic.value.DoubleValue
-62.426

@<SCITEGIC>MOL_PROPERTY
W(PB)
SciTegic.value.DoubleValue
-64.506

@<SCITEGIC>MOL_PROPERTY
W(SA)
SciTegic.value.DoubleValue
2.080

@<SCITEGIC>MOL_PROPERTY
Valence
SciTegic.value.DoubleValue
2.652

@<SCITEGIC>MOL_PROPERTY
Coulomb
SciTegic.value.DoubleValue
5.578

@<SCITEGIC>MOL_PROPERTY
VdW
SciTegic.value.DoubleValue
0.818

@<SCITEGIC>MOL_PROPERTY
VdW6
SciTegic.value.DoubleValue
-4.535

@<SCITEGIC>MOL_PROPERTY
VdW12
SciTegic.value.DoubleValue
5.352

@<SCITEGIC>MOL_PROPERTY
Bond
SciTegic.value.DoubleValue
0.063

@<SCITEGIC>MOL_PROPERTY
Angle
SciTegic.value.DoubleValue
2.579

@<SCITEGIC>MOL_PROPERTY
Pdih
SciTegic.value.DoubleValue
0.010

@<SCITEGIC>MOL_PROPERTY
Idih
SciTegic.value.DoubleValue
0.000

@<SCITEGIC>MOL_PROPERTY
Tether
SciTegic.value.DoubleValue
0.000

@<TRIPOS>MOLECULE
guest-s19_confgen4.mol2 : confsearch ligand conformer 903
          17          16           1
SMALL
USER_CHARGES
 
@<TRIPOS>ATOM
       1    C1      21.625071   18.447721   19.500232 C.2        1 MOL1         0.6173
       2    O1      22.760241   18.568486   19.921236 O.co2      1 MOL1        -0.6755
       3    O2      21.366389   17.893160   18.449824 O.co2      1 MOL1        -0.6755
       4    C2      20.487111   18.997558   20.285610 C.2        1 MOL1        -0.1504
       5    H1      19.499463   18.856577   19.852674 H          1 MOL1         0.0814
       6    C3      20.627296   19.636296   21.469396 C.2        1 MOL1        -0.1394
       7    H2      21.611865   19.780036   21.913873 H          1 MOL1         0.0817
       8    C4      19.463903   20.189901   22.265042 C.3        1 MOL1        -0.1849
       9    H3      18.740938   20.657890   21.583255 H          1 MOL1         0.0736
      10    H4      19.815172   20.987585   22.933326 H          1 MOL1         0.0736
      11    C5      18.747126   19.100837   23.093132 C.3        1 MOL1        -0.1866
      12    H5      17.854267   19.536130   23.562680 H          1 MOL1         0.0738
      13    H6      18.393373   18.301788   22.426943 H          1 MOL1         0.0738
      14    C6      19.652116   18.500520   24.190094 C.3        1 MOL1        -0.2879
      15    H7      20.007738   19.280350   24.876056 H          1 MOL1         0.0750
      16    H8      19.101773   17.755839   24.779569 H          1 MOL1         0.0750
      17    H9      20.527713   18.003125   23.752889 H          1 MOL1         0.0750
@<TRIPOS>BOND
    1     1     2    1
    2     1     3    2
    3     1     4    1
    4     4     5    1
    5     4     6    2
    6     6     7    1
    7     6     8    1
    8     8     9    1
    9     8    10    1
   10     8    11    1
   11    11    12    1
   12    11    13    1
   13    11    14    1
   14    14    15    1
   15    14    16    1
   16    14    17    1
@<TRIPOS>SUBSTRUCTURE
       1 MOL1            1 RESIDUE      1      MOL     
@<SCITEGIC>MOL_PROPERTY
VConf Rank
SciTegic.value.IntegerValue
903

@<SCITEGIC>MOL_PROPERTY
Conf_Id
SciTegic.value.IntegerValue
3

@<SCITEGIC>MOL_PROPERTY
Delta U+W
SciTegic.value.DoubleValue
0.531

@<SCITEGIC>MOL_PROPERTY
U+W
SciTegic.value.DoubleValue
-52.878

@<SCITEGIC>MOL_PROPERTY
Grad RMS
SciTegic.value.DoubleValue
0.000000

@<SCITEGIC>MOL_PROPERTY
U
SciTegic.value.DoubleValue
10.067

@<SCITEGIC>MOL_PROPERTY
W
SciTegic.value.DoubleValue
-62.945

@<SCITEGIC>MOL_PROPERTY
W(PB)
SciTegic.value.DoubleValue
-64.982

@<SCITEGIC>MOL_PROPERTY
W(SA)
SciTegic.value.DoubleValue
2.037

@<SCITEGIC>MOL_PROPERTY
Valence
SciTegic.value.DoubleValue
2.779

@<SCITEGIC>MOL_PROPERTY
Coulomb
SciTegic.value.DoubleValue
6.474

@<SCITEGIC>MOL_PROPERTY
VdW
SciTegic.value.DoubleValue
0.815

@<SCITEGIC>MOL_PROPERTY
VdW6
SciTegic.value.DoubleValue
-5.088

@<SCITEGIC>MOL_PROPERTY
VdW12
SciTegic.value.DoubleValue
5.902

@<SCITEGIC>MOL_PROPERTY
Bond
SciTegic.value.DoubleValue
0.078

@<SCITEGIC>MOL_PROPERTY
Angle
SciTegic.value.DoubleValue
2.651

@<SCITEGIC>MOL_PROPERTY
Pdih
SciTegic.value.DoubleValue
0.050

@<SCITEGIC>MOL_PROPERTY
Idih
SciTegic.value.DoubleValue
0.000

@<SCITEGIC>MOL_PROPERTY
Tether
SciTegic.value.DoubleValue
0.000

@<TRIPOS>MOLECULE
guest-s19_confgen4.mol2 : confsearch ligand conformer 904
          17          16           1
SMALL
USER_CHARGES
 
@<TRIPOS>ATOM
       1    C1      21.638493   18.113588   19.755883 C.2        1 MOL1         0.6173
       2    O1      22.094160   18.730045   18.812417 O.co2      1 MOL1        -0.6755
       3    O2      21.476473   16.907783   19.740613 O.co2      1 MOL1        -0.6755
       4    C2      21.273562   18.889294   20.972098 C.2        1 MOL1        -0.1504
       5    H1      21.443864   19.962073   20.918733 H          1 MOL1         0.0814
       6    C3      20.755337   18.335229   22.091937 C.2        1 MOL1        -0.1394
       7    H2      20.578090   17.261714   22.152498 H          1 MOL1         0.0817
       8    C4      20.382240   19.127964   23.327536 C.3        1 MOL1        -0.1849
       9    H3      20.860317   20.116860   23.311153 H          1 MOL1         0.0736
      10    H4      20.774603   18.613925   24.215130 H          1 MOL1         0.0736
      11    C5      18.854144   19.292822   23.478898 C.3        1 MOL1        -0.1866
      12    H5      18.374854   18.304111   23.492719 H          1 MOL1         0.0738
      13    H6      18.638407   19.759703   24.449815 H          1 MOL1         0.0738
      14    C6      18.235850   20.155168   22.357782 C.3        1 MOL1        -0.2879
      15    H7      18.375480   19.686618   21.374920 H          1 MOL1         0.0750
      16    H8      17.157677   20.283049   22.519198 H          1 MOL1         0.0750
      17    H9      18.695329   21.151776   22.330499 H          1 MOL1         0.0750
@<TRIPOS>BOND
    1     1     2    1
    2     1     3    2
    3     1     4    1
    4     4     5    1
    5     4     6    2
    6     6     7    1
    7     6     8    1
    8     8     9    1
    9     8    10    1
   10     8    11    1
   11    11    12    1
   12    11    13    1
   13    11    14    1
   14    14    15    1
   15    14    16    1
   16    14    17    1
@<TRIPOS>SUBSTRUCTURE
       1 MOL1            1 RESIDUE      1      MOL     
@<SCITEGIC>MOL_PROPERTY
VConf Rank
SciTegic.value.IntegerValue
904

@<SCITEGIC>MOL_PROPERTY
Conf_Id
SciTegic.value.IntegerValue
45

@<SCITEGIC>MOL_PROPERTY
Delta U+W
SciTegic.value.DoubleValue
0.562

@<SCITEGIC>MOL_PROPERTY
U+W
SciTegic.value.DoubleValue
-52.846

@<SCITEGIC>MOL_PROPERTY
Grad RMS
SciTegic.value.DoubleValue
0.000000

@<SCITEGIC>MOL_PROPERTY
U
SciTegic.value.DoubleValue
10.243

@<SCITEGIC>MOL_PROPERTY
W
SciTegic.value.DoubleValue
-63.089

@<SCITEGIC>MOL_PROPERTY
W(PB)
SciTegic.value.DoubleValue
-65.116

@<SCITEGIC>MOL_PROPERTY
W(SA)
SciTegic.value.DoubleValue
2.026

@<SCITEGIC>MOL_PROPERTY
Valence
SciTegic.value.DoubleValue
2.822

@<SCITEGIC>MOL_PROPERTY
Coulomb
SciTegic.value.DoubleValue
6.637

@<SCITEGIC>MOL_PROPERTY
VdW
SciTegic.value.DoubleValue
0.785

@<SCITEGIC>MOL_PROPERTY
VdW6
SciTegic.value.DoubleValue
-5.216

@<SCITEGIC>MOL_PROPERTY
VdW12
SciTegic.value.DoubleValue
6.001

@<SCITEGIC>MOL_PROPERTY
Bond
SciTegic.value.DoubleValue
0.080

@<SCITEGIC>MOL_PROPERTY
Angle
SciTegic.value.DoubleValue
2.678

@<SCITEGIC>MOL_PROPERTY
Pdih
SciTegic.value.DoubleValue
0.064

@<SCITEGIC>MOL_PROPERTY
Idih
SciTegic.value.DoubleValue
0.000

@<SCITEGIC>MOL_PROPERTY
Tether
SciTegic.value.DoubleValue
0.000

@<TRIPOS>MOLECULE
guest-s19_confgen4.mol2 : confsearch ligand conformer 905
          17          16           1
SMALL
USER_CHARGES
 
@<TRIPOS>ATOM
       1    C1      21.206126   19.776522   18.835738 C.2        1 MOL1         0.6173
       2    O1      21.934540   19.101185   18.134998 O.co2      1 MOL1        -0.6755
       3    O2      20.970011   20.948037   18.607270 O.co2      1 MOL1        -0.6755
       4    C2      20.586662   19.119020   20.018158 C.2        1 MOL1        -0.1504
       5    H1      20.838838   18.071269   20.164903 H          1 MOL1         0.0814
       6    C3      19.758672   19.748247   20.882792 C.2        1 MOL1        -0.1394
       7    H2      19.501248   20.798457   20.746540 H          1 MOL1         0.0817
       8    C4      19.134543   19.072782   22.084228 C.3        1 MOL1        -0.1849
       9    H3      18.849814   18.042648   21.830138 H          1 MOL1         0.0736
      10    H4      18.207830   19.594297   22.359205 H          1 MOL1         0.0736
      11    C5      20.098768   19.064434   23.288061 C.3        1 MOL1        -0.1866
      12    H5      21.024894   18.539288   23.015901 H          1 MOL1         0.0738
      13    H6      20.380477   20.095910   23.541570 H          1 MOL1         0.0738
      14    C6      19.466465   18.385934   24.519872 C.3        1 MOL1        -0.2879
      15    H7      18.554531   18.911087   24.832956 H          1 MOL1         0.0750
      16    H8      19.203667   17.342441   24.301936 H          1 MOL1         0.0750
      17    H9      20.166667   18.389479   25.365351 H          1 MOL1         0.0750
@<TRIPOS>BOND
    1     1     2    1
    2     1     3    2
    3     1     4    1
    4     4     5    1
    5     4     6    2
    6     6     7    1
    7     6     8    1
    8     8     9    1
    9     8    10    1
   10     8    11    1
   11    11    12    1
   12    11    13    1
   13    11    14    1
   14    14    15    1
   15    14    16    1
   16    14    17    1
@<TRIPOS>SUBSTRUCTURE
       1 MOL1            1 RESIDUE      1      MOL     
@<SCITEGIC>MOL_PROPERTY
VConf Rank
SciTegic.value.IntegerValue
905

@<SCITEGIC>MOL_PROPERTY
Conf_Id
SciTegic.value.IntegerValue
36

@<SCITEGIC>MOL_PROPERTY
Delta U+W
SciTegic.value.DoubleValue
0.000

@<SCITEGIC>MOL_PROPERTY
U+W
SciTegic.value.DoubleValue
-53.409

@<SCITEGIC>MOL_PROPERTY
Grad RMS
SciTegic.value.DoubleValue
0.000000

@<SCITEGIC>MOL_PROPERTY
U
SciTegic.value.DoubleValue
9.048

@<SCITEGIC>MOL_PROPERTY
W
SciTegic.value.DoubleValue
-62.457

@<SCITEGIC>MOL_PROPERTY
W(PB)
SciTegic.value.DoubleValue
-64.540

@<SCITEGIC>MOL_PROPERTY
W(SA)
SciTegic.value.DoubleValue
2.084

@<SCITEGIC>MOL_PROPERTY
Valence
SciTegic.value.DoubleValue
2.652

@<SCITEGIC>MOL_PROPERTY
Coulomb
SciTegic.value.DoubleValue
5.578

@<SCITEGIC>MOL_PROPERTY
VdW
SciTegic.value.DoubleValue
0.818

@<SCITEGIC>MOL_PROPERTY
VdW6
SciTegic.value.DoubleValue
-4.534

@<SCITEGIC>MOL_PROPERTY
VdW12
SciTegic.value.DoubleValue
5.352

@<SCITEGIC>MOL_PROPERTY
Bond
SciTegic.value.DoubleValue
0.063

@<SCITEGIC>MOL_PROPERTY
Angle
SciTegic.value.DoubleValue
2.579

@<SCITEGIC>MOL_PROPERTY
Pdih
SciTegic.value.DoubleValue
0.010

@<SCITEGIC>MOL_PROPERTY
Idih
SciTegic.value.DoubleValue
0.000

@<SCITEGIC>MOL_PROPERTY
Tether
SciTegic.value.DoubleValue
0.000

@<TRIPOS>MOLECULE
guest-s19_confgen4.mol2 : confsearch ligand conformer 906
          17          16           1
SMALL
USER_CHARGES
 
@<TRIPOS>ATOM
       1    C1      18.169771   18.244053   24.607112 C.2        1 MOL1         0.6173
       2    O1      18.915721   18.271121   25.567955 O.co2      1 MOL1        -0.6755
       3    O2      17.047742   17.778850   24.655515 O.co2      1 MOL1        -0.6755
       4    C2      18.627943   18.800068   23.305157 C.2        1 MOL1        -0.1504
       5    H1      17.912888   18.744812   22.487506 H          1 MOL1         0.0814
       6    C3      19.849009   19.346652   23.106844 C.2        1 MOL1        -0.1394
       7    H2      20.573933   19.405107   23.918535 H          1 MOL1         0.0817
       8    C4      20.307823   19.908244   21.778935 C.3        1 MOL1        -0.1849
       9    H3      21.091341   20.659148   21.948143 H          1 MOL1         0.0736
      10    H4      19.476893   20.429602   21.284419 H          1 MOL1         0.0736
      11    C5      20.848444   18.797287   20.855614 C.3        1 MOL1        -0.1866
      12    H5      21.680783   18.278749   21.351493 H          1 MOL1         0.0738
      13    H6      20.064369   18.047197   20.681969 H          1 MOL1         0.0738
      14    C6      21.326813   19.362908   19.503297 C.3        1 MOL1        -0.2879
      15    H7      22.134013   20.093271   19.646220 H          1 MOL1         0.0750
      16    H8      21.707616   18.558516   18.860589 H          1 MOL1         0.0750
      17    H9      20.504390   19.860148   18.972440 H          1 MOL1         0.0750
@<TRIPOS>BOND
    1     1     2    1
    2     1     3    2
    3     1     4    1
    4     4     5    1
    5     4     6    2
    6     6     7    1
    7     6     8    1
    8     8     9    1
    9     8    10    1
   10     8    11    1
   11    11    12    1
   12    11    13    1
   13    11    14    1
   14    14    15    1
   15    14    16    1
   16    14    17    1
@<TRIPOS>SUBSTRUCTURE
       1 MOL1            1 RESIDUE      1      MOL     
@<SCITEGIC>MOL_PROPERTY
VConf Rank
SciTegic.value.IntegerValue
906

@<SCITEGIC>MOL_PROPERTY
Conf_Id
SciTegic.value.IntegerValue
1

@<SCITEGIC>MOL_PROPERTY
Delta U+W
SciTegic.value.DoubleValue
0.030

@<SCITEGIC>MOL_PROPERTY
U+W
SciTegic.value.DoubleValue
-53.378

@<SCITEGIC>MOL_PROPERTY
Grad RMS
SciTegic.value.DoubleValue
0.000000

@<SCITEGIC>MOL_PROPERTY
U
SciTegic.value.DoubleValue
9.048

@<SCITEGIC>MOL_PROPERTY
W
SciTegic.value.DoubleValue
-62.426

@<SCITEGIC>MOL_PROPERTY
W(PB)
SciTegic.value.DoubleValue
-64.506

@<SCITEGIC>MOL_PROPERTY
W(SA)
SciTegic.value.DoubleValue
2.080

@<SCITEGIC>MOL_PROPERTY
Valence
SciTegic.value.DoubleValue
2.652

@<SCITEGIC>MOL_PROPERTY
Coulomb
SciTegic.value.DoubleValue
5.578

@<SCITEGIC>MOL_PROPERTY
VdW
SciTegic.value.DoubleValue
0.818

@<SCITEGIC>MOL_PROPERTY
VdW6
SciTegic.value.DoubleValue
-4.535

@<SCITEGIC>MOL_PROPERTY
VdW12
SciTegic.value.DoubleValue
5.352

@<SCITEGIC>MOL_PROPERTY
Bond
SciTegic.value.DoubleValue
0.063

@<SCITEGIC>MOL_PROPERTY
Angle
SciTegic.value.DoubleValue
2.579

@<SCITEGIC>MOL_PROPERTY
Pdih
SciTegic.value.DoubleValue
0.010

@<SCITEGIC>MOL_PROPERTY
Idih
SciTegic.value.DoubleValue
0.000

@<SCITEGIC>MOL_PROPERTY
Tether
SciTegic.value.DoubleValue
0.000

@<TRIPOS>MOLECULE
guest-s19_confgen4.mol2 : confsearch ligand conformer 907
          17          16           1
SMALL
USER_CHARGES
 
@<TRIPOS>ATOM
       1    C1      21.692367   17.277228   23.897885 C.2        1 MOL1         0.6173
       2    O1      22.435788   18.101305   24.396547 O.co2      1 MOL1        -0.6755
       3    O2      21.544251   16.160344   24.354440 O.co2      1 MOL1        -0.6755
       4    C2      20.922678   17.626825   22.673364 C.2        1 MOL1        -0.1504
       5    H1      20.277886   16.845050   22.278609 H          1 MOL1         0.0814
       6    C3      20.988560   18.830193   22.059726 C.2        1 MOL1        -0.1394
       7    H2      21.628718   19.621720   22.448676 H          1 MOL1         0.0817
       8    C4      20.199150   19.180101   20.815777 C.3        1 MOL1        -0.1849
       9    H3      20.195928   18.323289   20.128471 H          1 MOL1         0.0736
      10    H4      20.693354   20.001151   20.279185 H          1 MOL1         0.0736
      11    C5      18.741431   19.576805   21.137092 C.3        1 MOL1        -0.1866
      12    H5      18.191391   19.716090   20.196236 H          1 MOL1         0.0738
      13    H6      18.243884   18.756635   21.672998 H          1 MOL1         0.0738
      14    C6      18.651224   20.872769   21.970791 C.3        1 MOL1        -0.2879
      15    H7      19.131713   21.710130   21.448201 H          1 MOL1         0.0750
      16    H8      17.602822   21.142960   22.151781 H          1 MOL1         0.0750
      17    H9      19.140413   20.751203   22.946054 H          1 MOL1         0.0750
@<TRIPOS>BOND
    1     1     2    1
    2     1     3    2
    3     1     4    1
    4     4     5    1
    5     4     6    2
    6     6     7    1
    7     6     8    1
    8     8     9    1
    9     8    10    1
   10     8    11    1
   11    11    12    1
   12    11    13    1
   13    11    14    1
   14    14    15    1
   15    14    16    1
   16    14    17    1
@<TRIPOS>SUBSTRUCTURE
       1 MOL1            1 RESIDUE      1      MOL     
@<SCITEGIC>MOL_PROPERTY
VConf Rank
SciTegic.value.IntegerValue
907

@<SCITEGIC>MOL_PROPERTY
Conf_Id
SciTegic.value.IntegerValue
3

@<SCITEGIC>MOL_PROPERTY
Delta U+W
SciTegic.value.DoubleValue
0.531

@<SCITEGIC>MOL_PROPERTY
U+W
SciTegic.value.DoubleValue
-52.878

@<SCITEGIC>MOL_PROPERTY
Grad RMS
SciTegic.value.DoubleValue
0.000000

@<SCITEGIC>MOL_PROPERTY
U
SciTegic.value.DoubleValue
10.067

@<SCITEGIC>MOL_PROPERTY
W
SciTegic.value.DoubleValue
-62.945

@<SCITEGIC>MOL_PROPERTY
W(PB)
SciTegic.value.DoubleValue
-64.982

@<SCITEGIC>MOL_PROPERTY
W(SA)
SciTegic.value.DoubleValue
2.037

@<SCITEGIC>MOL_PROPERTY
Valence
SciTegic.value.DoubleValue
2.779

@<SCITEGIC>MOL_PROPERTY
Coulomb
SciTegic.value.DoubleValue
6.474

@<SCITEGIC>MOL_PROPERTY
VdW
SciTegic.value.DoubleValue
0.815

@<SCITEGIC>MOL_PROPERTY
VdW6
SciTegic.value.DoubleValue
-5.088

@<SCITEGIC>MOL_PROPERTY
VdW12
SciTegic.value.DoubleValue
5.902

@<SCITEGIC>MOL_PROPERTY
Bond
SciTegic.value.DoubleValue
0.078

@<SCITEGIC>MOL_PROPERTY
Angle
SciTegic.value.DoubleValue
2.651

@<SCITEGIC>MOL_PROPERTY
Pdih
SciTegic.value.DoubleValue
0.050

@<SCITEGIC>MOL_PROPERTY
Idih
SciTegic.value.DoubleValue
0.000

@<SCITEGIC>MOL_PROPERTY
Tether
SciTegic.value.DoubleValue
0.000

@<TRIPOS>MOLECULE
guest-s19_confgen4.mol2 : confsearch ligand conformer 908
          17          16           1
SMALL
USER_CHARGES
 
@<TRIPOS>ATOM
       1    C1      18.115676   20.952228   23.566949 C.2        1 MOL1         0.6173
       2    O1      18.356177   22.000693   24.133218 O.co2      1 MOL1        -0.6755
       3    O2      17.129333   20.282142   23.808939 O.co2      1 MOL1        -0.6755
       4    C2      19.082985   20.490937   22.534671 C.2        1 MOL1        -0.1504
       5    H1      19.941990   21.136715   22.367973 H          1 MOL1         0.0814
       6    C3      18.943194   19.345211   21.829437 C.2        1 MOL1        -0.1394
       7    H2      18.087462   18.690567   21.992782 H          1 MOL1         0.0817
       8    C4      19.931120   18.876884   20.781101 C.3        1 MOL1        -0.1849
       9    H3      20.576274   19.706105   20.460306 H          1 MOL1         0.0736
      10    H4      19.379831   18.555668   19.887283 H          1 MOL1         0.0736
      11    C5      20.803221   17.703986   21.280015 C.3        1 MOL1        -0.1866
      12    H5      20.158553   16.875037   21.603597 H          1 MOL1         0.0738
      13    H6      21.406163   17.324509   20.443561 H          1 MOL1         0.0738
      14    C6      21.744175   18.112260   22.433597 C.3        1 MOL1        -0.2879
      15    H7      21.174138   18.437354   23.313611 H          1 MOL1         0.0750
      16    H8      22.374828   17.266017   22.735285 H          1 MOL1         0.0750
      17    H9      22.403758   18.935408   22.129507 H          1 MOL1         0.0750
@<TRIPOS>BOND
    1     1     2    1
    2     1     3    2
    3     1     4    1
    4     4     5    1
    5     4     6    2
    6     6     7    1
    7     6     8    1
    8     8     9    1
    9     8    10    1
   10     8    11    1
   11    11    12    1
   12    11    13    1
   13    11    14    1
   14    14    15    1
   15    14    16    1
   16    14    17    1
@<TRIPOS>SUBSTRUCTURE
       1 MOL1            1 RESIDUE      1      MOL     
@<SCITEGIC>MOL_PROPERTY
VConf Rank
SciTegic.value.IntegerValue
908

@<SCITEGIC>MOL_PROPERTY
Conf_Id
SciTegic.value.IntegerValue
45

@<SCITEGIC>MOL_PROPERTY
Delta U+W
SciTegic.value.DoubleValue
0.562

@<SCITEGIC>MOL_PROPERTY
U+W
SciTegic.value.DoubleValue
-52.846

@<SCITEGIC>MOL_PROPERTY
Grad RMS
SciTegic.value.DoubleValue
0.000000

@<SCITEGIC>MOL_PROPERTY
U
SciTegic.value.DoubleValue
10.243

@<SCITEGIC>MOL_PROPERTY
W
SciTegic.value.DoubleValue
-63.089

@<SCITEGIC>MOL_PROPERTY
W(PB)
SciTegic.value.DoubleValue
-65.116

@<SCITEGIC>MOL_PROPERTY
W(SA)
SciTegic.value.DoubleValue
2.026

@<SCITEGIC>MOL_PROPERTY
Valence
SciTegic.value.DoubleValue
2.822

@<SCITEGIC>MOL_PROPERTY
Coulomb
SciTegic.value.DoubleValue
6.637

@<SCITEGIC>MOL_PROPERTY
VdW
SciTegic.value.DoubleValue
0.785

@<SCITEGIC>MOL_PROPERTY
VdW6
SciTegic.value.DoubleValue
-5.216

@<SCITEGIC>MOL_PROPERTY
VdW12
SciTegic.value.DoubleValue
6.001

@<SCITEGIC>MOL_PROPERTY
Bond
SciTegic.value.DoubleValue
0.080

@<SCITEGIC>MOL_PROPERTY
Angle
SciTegic.value.DoubleValue
2.678

@<SCITEGIC>MOL_PROPERTY
Pdih
SciTegic.value.DoubleValue
0.064

@<SCITEGIC>MOL_PROPERTY
Idih
SciTegic.value.DoubleValue
0.000

@<SCITEGIC>MOL_PROPERTY
Tether
SciTegic.value.DoubleValue
0.000

@<TRIPOS>MOLECULE
guest-s19_confgen4.mol2 : confsearch ligand conformer 909
          17          16           1
SMALL
USER_CHARGES
 
@<TRIPOS>ATOM
       1    C1      23.213093   18.805210   22.868688 C.2        1 MOL1         0.6173
       2    O1      24.025504   17.952358   22.568128 O.co2      1 MOL1        -0.6755
       3    O2      23.388750   19.593427   23.778772 O.co2      1 MOL1        -0.6755
       4    C2      21.957154   18.869104   22.073265 C.2        1 MOL1        -0.1504
       5    H1      21.863264   18.136566   21.274842 H          1 MOL1         0.0814
       6    C3      20.968020   19.763906   22.296935 C.2        1 MOL1        -0.1394
       7    H2      21.050705   20.500690   23.095737 H          1 MOL1         0.0817
       8    C4      19.692785   19.820743   21.484664 C.3        1 MOL1        -0.1849
       9    H3      19.912030   19.621059   20.426899 H          1 MOL1         0.0736
      10    H4      19.272289   20.834378   21.530647 H          1 MOL1         0.0736
      11    C5      18.651987   18.806293   22.001040 C.3        1 MOL1        -0.1866
      12    H5      19.069652   17.791065   21.951752 H          1 MOL1         0.0738
      13    H6      18.432837   19.009320   23.058547 H          1 MOL1         0.0738
      14    C6      17.345520   18.864531   21.184170 C.3        1 MOL1        -0.2879
      15    H7      16.889607   19.861607   21.242613 H          1 MOL1         0.0750
      16    H8      17.532578   18.634350   20.127070 H          1 MOL1         0.0750
      17    H9      16.617976   18.136429   21.565850 H          1 MOL1         0.0750
@<TRIPOS>BOND
    1     1     2    1
    2     1     3    2
    3     1     4    1
    4     4     5    1
    5     4     6    2
    6     6     7    1
    7     6     8    1
    8     8     9    1
    9     8    10    1
   10     8    11    1
   11    11    12    1
   12    11    13    1
   13    11    14    1
   14    14    15    1
   15    14    16    1
   16    14    17    1
@<TRIPOS>SUBSTRUCTURE
       1 MOL1            1 RESIDUE      1      MOL     
@<SCITEGIC>MOL_PROPERTY
VConf Rank
SciTegic.value.IntegerValue
909

@<SCITEGIC>MOL_PROPERTY
Conf_Id
SciTegic.value.IntegerValue
36

@<SCITEGIC>MOL_PROPERTY
Delta U+W
SciTegic.value.DoubleValue
0.000

@<SCITEGIC>MOL_PROPERTY
U+W
SciTegic.value.DoubleValue
-53.409

@<SCITEGIC>MOL_PROPERTY
Grad RMS
SciTegic.value.DoubleValue
0.000000

@<SCITEGIC>MOL_PROPERTY
U
SciTegic.value.DoubleValue
9.048

@<SCITEGIC>MOL_PROPERTY
W
SciTegic.value.DoubleValue
-62.457

@<SCITEGIC>MOL_PROPERTY
W(PB)
SciTegic.value.DoubleValue
-64.540

@<SCITEGIC>MOL_PROPERTY
W(SA)
SciTegic.value.DoubleValue
2.084

@<SCITEGIC>MOL_PROPERTY
Valence
SciTegic.value.DoubleValue
2.652

@<SCITEGIC>MOL_PROPERTY
Coulomb
SciTegic.value.DoubleValue
5.578

@<SCITEGIC>MOL_PROPERTY
VdW
SciTegic.value.DoubleValue
0.818

@<SCITEGIC>MOL_PROPERTY
VdW6
SciTegic.value.DoubleValue
-4.534

@<SCITEGIC>MOL_PROPERTY
VdW12
SciTegic.value.DoubleValue
5.352

@<SCITEGIC>MOL_PROPERTY
Bond
SciTegic.value.DoubleValue
0.063

@<SCITEGIC>MOL_PROPERTY
Angle
SciTegic.value.DoubleValue
2.579

@<SCITEGIC>MOL_PROPERTY
Pdih
SciTegic.value.DoubleValue
0.010

@<SCITEGIC>MOL_PROPERTY
Idih
SciTegic.value.DoubleValue
0.000

@<SCITEGIC>MOL_PROPERTY
Tether
SciTegic.value.DoubleValue
0.000

@<TRIPOS>MOLECULE
guest-s19_confgen4.mol2 : confsearch ligand conformer 910
          17          16           1
SMALL
USER_CHARGES
 
@<TRIPOS>ATOM
       1    C1      21.409904   16.580378   20.148823 C.2        1 MOL1         0.6173
       2    O1      21.171753   15.551039   20.752261 O.co2      1 MOL1        -0.6755
       3    O2      22.190932   16.634695   19.218903 O.co2      1 MOL1        -0.6755
       4    C2      20.726441   17.840686   20.547149 C.2        1 MOL1        -0.1504
       5    H1      20.983924   18.723976   19.967139 H          1 MOL1         0.0814
       6    C3      19.836268   17.927223   21.561638 C.2        1 MOL1        -0.1394
       7    H2      19.572700   17.048945   22.150648 H          1 MOL1         0.0817
       8    C4      19.146981   19.213393   21.961500 C.3        1 MOL1        -0.1849
       9    H3      18.197641   18.981436   22.462834 H          1 MOL1         0.0736
      10    H4      18.893123   19.797429   21.066366 H          1 MOL1         0.0736
      11    C5      20.033329   20.057734   22.899846 C.3        1 MOL1        -0.1866
      12    H5      20.284090   19.472256   23.795336 H          1 MOL1         0.0738
      13    H6      20.982007   20.294174   22.398183 H          1 MOL1         0.0738
      14    C6      19.334037   21.366325   23.319496 C.3        1 MOL1        -0.2879
      15    H7      18.396867   21.157790   23.852088 H          1 MOL1         0.0750
      16    H8      19.979301   21.953032   23.986234 H          1 MOL1         0.0750
      17    H9      19.100195   21.985223   22.443300 H          1 MOL1         0.0750
@<TRIPOS>BOND
    1     1     2    1
    2     1     3    2
    3     1     4    1
    4     4     5    1
    5     4     6    2
    6     6     7    1
    7     6     8    1
    8     8     9    1
    9     8    10    1
   10     8    11    1
   11    11    12    1
   12    11    13    1
   13    11    14    1
   14    14    15    1
   15    14    16    1
   16    14    17    1
@<TRIPOS>SUBSTRUCTURE
       1 MOL1            1 RESIDUE      1      MOL     
@<SCITEGIC>MOL_PROPERTY
VConf Rank
SciTegic.value.IntegerValue
910

@<SCITEGIC>MOL_PROPERTY
Conf_Id
SciTegic.value.IntegerValue
1

@<SCITEGIC>MOL_PROPERTY
Delta U+W
SciTegic.value.DoubleValue
0.030

@<SCITEGIC>MOL_PROPERTY
U+W
SciTegic.value.DoubleValue
-53.378

@<SCITEGIC>MOL_PROPERTY
Grad RMS
SciTegic.value.DoubleValue
0.000000

@<SCITEGIC>MOL_PROPERTY
U
SciTegic.value.DoubleValue
9.048

@<SCITEGIC>MOL_PROPERTY
W
SciTegic.value.DoubleValue
-62.426

@<SCITEGIC>MOL_PROPERTY
W(PB)
SciTegic.value.DoubleValue
-64.506

@<SCITEGIC>MOL_PROPERTY
W(SA)
SciTegic.value.DoubleValue
2.080

@<SCITEGIC>MOL_PROPERTY
Valence
SciTegic.value.DoubleValue
2.652

@<SCITEGIC>MOL_PROPERTY
Coulomb
SciTegic.value.DoubleValue
5.578

@<SCITEGIC>MOL_PROPERTY
VdW
SciTegic.value.DoubleValue
0.818

@<SCITEGIC>MOL_PROPERTY
VdW6
SciTegic.value.DoubleValue
-4.535

@<SCITEGIC>MOL_PROPERTY
VdW12
SciTegic.value.DoubleValue
5.352

@<SCITEGIC>MOL_PROPERTY
Bond
SciTegic.value.DoubleValue
0.063

@<SCITEGIC>MOL_PROPERTY
Angle
SciTegic.value.DoubleValue
2.579

@<SCITEGIC>MOL_PROPERTY
Pdih
SciTegic.value.DoubleValue
0.010

@<SCITEGIC>MOL_PROPERTY
Idih
SciTegic.value.DoubleValue
0.000

@<SCITEGIC>MOL_PROPERTY
Tether
SciTegic.value.DoubleValue
0.000

@<TRIPOS>MOLECULE
guest-s19_confgen4.mol2 : confsearch ligand conformer 911
          17          16           1
SMALL
USER_CHARGES
 
@<TRIPOS>ATOM
       1    C1      19.903315   20.534159   24.769825 C.2        1 MOL1         0.6173
       2    O1      21.063155   20.429101   25.122212 O.co2      1 MOL1        -0.6755
       3    O2      19.124582   21.311660   25.286427 O.co2      1 MOL1        -0.6755
       4    C2      19.391113   19.682193   23.662624 C.2        1 MOL1        -0.1504
       5    H1      18.346024   19.825361   23.397952 H          1 MOL1         0.0814
       6    C3      20.144422   18.776746   22.998035 C.2        1 MOL1        -0.1394
       7    H2      21.193457   18.627610   23.252753 H          1 MOL1         0.0817
       8    C4      19.617140   17.915810   21.869418 C.3        1 MOL1        -0.1849
       9    H3      18.604792   17.566963   22.114332 H          1 MOL1         0.0736
      10    H4      20.235629   17.013857   21.768188 H          1 MOL1         0.0736
      11    C5      19.580429   18.670580   20.522370 C.3        1 MOL1        -0.1866
      12    H5      19.093930   18.036441   19.768487 H          1 MOL1         0.0738
      13    H6      18.961210   19.573036   20.620189 H          1 MOL1         0.0738
      14    C6      20.988681   19.057997   20.022923 C.3        1 MOL1        -0.2879
      15    H7      21.622058   18.169058   19.905594 H          1 MOL1         0.0750
      16    H8      20.927841   19.561693   19.049529 H          1 MOL1         0.0750
      17    H9      21.483781   19.741533   20.724974 H          1 MOL1         0.0750
@<TRIPOS>BOND
    1     1     2    1
    2     1     3    2
    3     1     4    1
    4     4     5    1
    5     4     6    2
    6     6     7    1
    7     6     8    1
    8     8     9    1
    9     8    10    1
   10     8    11    1
   11    11    12    1
   12    11    13    1
   13    11    14    1
   14    14    15    1
   15    14    16    1
   16    14    17    1
@<TRIPOS>SUBSTRUCTURE
       1 MOL1            1 RESIDUE      1      MOL     
@<SCITEGIC>MOL_PROPERTY
VConf Rank
SciTegic.value.IntegerValue
911

@<SCITEGIC>MOL_PROPERTY
Conf_Id
SciTegic.value.IntegerValue
3

@<SCITEGIC>MOL_PROPERTY
Delta U+W
SciTegic.value.DoubleValue
0.531

@<SCITEGIC>MOL_PROPERTY
U+W
SciTegic.value.DoubleValue
-52.878

@<SCITEGIC>MOL_PROPERTY
Grad RMS
SciTegic.value.DoubleValue
0.000000

@<SCITEGIC>MOL_PROPERTY
U
SciTegic.value.DoubleValue
10.067

@<SCITEGIC>MOL_PROPERTY
W
SciTegic.value.DoubleValue
-62.945

@<SCITEGIC>MOL_PROPERTY
W(PB)
SciTegic.value.DoubleValue
-64.982

@<SCITEGIC>MOL_PROPERTY
W(SA)
SciTegic.value.DoubleValue
2.037

@<SCITEGIC>MOL_PROPERTY
Valence
SciTegic.value.DoubleValue
2.779

@<SCITEGIC>MOL_PROPERTY
Coulomb
SciTegic.value.DoubleValue
6.474

@<SCITEGIC>MOL_PROPERTY
VdW
SciTegic.value.DoubleValue
0.815

@<SCITEGIC>MOL_PROPERTY
VdW6
SciTegic.value.DoubleValue
-5.088

@<SCITEGIC>MOL_PROPERTY
VdW12
SciTegic.value.DoubleValue
5.902

@<SCITEGIC>MOL_PROPERTY
Bond
SciTegic.value.DoubleValue
0.078

@<SCITEGIC>MOL_PROPERTY
Angle
SciTegic.value.DoubleValue
2.651

@<SCITEGIC>MOL_PROPERTY
Pdih
SciTegic.value.DoubleValue
0.050

@<SCITEGIC>MOL_PROPERTY
Idih
SciTegic.value.DoubleValue
0.000

@<SCITEGIC>MOL_PROPERTY
Tether
SciTegic.value.DoubleValue
0.000

@<TRIPOS>MOLECULE
guest-s19_confgen4.mol2 : confsearch ligand conformer 912
          17          16           1
SMALL
USER_CHARGES
 
@<TRIPOS>ATOM
       1    C1      19.896218   21.482343   23.929644 C.2        1 MOL1         0.6173
       2    O1      18.981154   21.903790   24.609953 O.co2      1 MOL1        -0.6755
       3    O2      20.848070   22.167464   23.605550 O.co2      1 MOL1        -0.6755
       4    C2      19.827967   20.062722   23.489086 C.2        1 MOL1        -0.1504
       5    H1      18.950954   19.507501   23.813563 H          1 MOL1         0.0814
       6    C3      20.772427   19.463505   22.728483 C.2        1 MOL1        -0.1394
       7    H2      21.652450   20.013524   22.395979 H          1 MOL1         0.0817
       8    C4      20.698769   18.018823   22.279257 C.3        1 MOL1        -0.1849
       9    H3      19.972899   17.461676   22.887073 H          1 MOL1         0.0736
      10    H4      21.672042   17.540039   22.451058 H          1 MOL1         0.0736
      11    C5      20.333046   17.887701   20.784526 C.3        1 MOL1        -0.1866
      12    H5      21.057159   18.446950   20.175955 H          1 MOL1         0.0738
      13    H6      20.419365   16.833985   20.485477 H          1 MOL1         0.0738
      14    C6      18.903368   18.382124   20.477283 C.3        1 MOL1        -0.2879
      15    H7      18.796644   19.450978   20.703585 H          1 MOL1         0.0750
      16    H8      18.664752   18.237737   19.415643 H          1 MOL1         0.0750
      17    H9      18.161597   17.830858   21.069715 H          1 MOL1         0.0750
@<TRIPOS>BOND
    1     1     2    1
    2     1     3    2
    3     1     4    1
    4     4     5    1
    5     4     6    2
    6     6     7    1
    7     6     8    1
    8     8     9    1
    9     8    10    1
   10     8    11    1
   11    11    12    1
   12    11    13    1
   13    11    14    1
   14    14    15    1
   15    14    16    1
   16    14    17    1
@<TRIPOS>SUBSTRUCTURE
       1 MOL1            1 RESIDUE      1      MOL     
@<SCITEGIC>MOL_PROPERTY
VConf Rank
SciTegic.value.IntegerValue
912

@<SCITEGIC>MOL_PROPERTY
Conf_Id
SciTegic.value.IntegerValue
45

@<SCITEGIC>MOL_PROPERTY
Delta U+W
SciTegic.value.DoubleValue
0.562

@<SCITEGIC>MOL_PROPERTY
U+W
SciTegic.value.DoubleValue
-52.846

@<SCITEGIC>MOL_PROPERTY
Grad RMS
SciTegic.value.DoubleValue
0.000000

@<SCITEGIC>MOL_PROPERTY
U
SciTegic.value.DoubleValue
10.243

@<SCITEGIC>MOL_PROPERTY
W
SciTegic.value.DoubleValue
-63.089

@<SCITEGIC>MOL_PROPERTY
W(PB)
SciTegic.value.DoubleValue
-65.116

@<SCITEGIC>MOL_PROPERTY
W(SA)
SciTegic.value.DoubleValue
2.026

@<SCITEGIC>MOL_PROPERTY
Valence
SciTegic.value.DoubleValue
2.822

@<SCITEGIC>MOL_PROPERTY
Coulomb
SciTegic.value.DoubleValue
6.637

@<SCITEGIC>MOL_PROPERTY
VdW
SciTegic.value.DoubleValue
0.785

@<SCITEGIC>MOL_PROPERTY
VdW6
SciTegic.value.DoubleValue
-5.216

@<SCITEGIC>MOL_PROPERTY
VdW12
SciTegic.value.DoubleValue
6.001

@<SCITEGIC>MOL_PROPERTY
Bond
SciTegic.value.DoubleValue
0.080

@<SCITEGIC>MOL_PROPERTY
Angle
SciTegic.value.DoubleValue
2.678

@<SCITEGIC>MOL_PROPERTY
Pdih
SciTegic.value.DoubleValue
0.064

@<SCITEGIC>MOL_PROPERTY
Idih
SciTegic.value.DoubleValue
0.000

@<SCITEGIC>MOL_PROPERTY
Tether
SciTegic.value.DoubleValue
0.000

@<TRIPOS>MOLECULE
guest-s19_confgen4.mol2 : confsearch ligand conformer 913
          17          16           1
SMALL
USER_CHARGES
 
@<TRIPOS>ATOM
       1    C1      18.174925   18.347364   19.178811 C.2        1 MOL1         0.6173
       2    O1      17.119692   17.749064   19.099909 O.co2      1 MOL1        -0.6755
       3    O2      18.876525   18.579640   18.212271 O.co2      1 MOL1        -0.6755
       4    C2      18.605536   18.806988   20.526951 C.2        1 MOL1        -0.1504
       5    H1      17.933032   18.567093   21.347376 H          1 MOL1         0.0814
       6    C3      19.754085   19.481230   20.762146 C.2        1 MOL1        -0.1394
       7    H2      20.436263   19.724713   19.947823 H          1 MOL1         0.0817
       8    C4      20.185726   19.943226   22.136731 C.3        1 MOL1        -0.1849
       9    H3      19.313808   20.292166   22.706650 H          1 MOL1         0.0736
      10    H4      20.860849   20.804202   22.040202 H          1 MOL1         0.0736
      11    C5      20.896240   18.814522   22.911464 C.3        1 MOL1        -0.1866
      12    H5      20.220569   17.953823   23.012585 H          1 MOL1         0.0738
      13    H6      21.769079   18.468614   22.340441 H          1 MOL1         0.0738
      14    C6      21.347816   19.280264   24.310281 C.3        1 MOL1        -0.2879
      15    H7      22.050141   20.120964   24.236835 H          1 MOL1         0.0750
      16    H8      20.488805   19.602641   24.913282 H          1 MOL1         0.0750
      17    H9      21.850661   18.464523   24.845861 H          1 MOL1         0.0750
@<TRIPOS>BOND
    1     1     2    1
    2     1     3    2
    3     1     4    1
    4     4     5    1
    5     4     6    2
    6     6     7    1
    7     6     8    1
    8     8     9    1
    9     8    10    1
   10     8    11    1
   11    11    12    1
   12    11    13    1
   13    11    14    1
   14    14    15    1
   15    14    16    1
   16    14    17    1
@<TRIPOS>SUBSTRUCTURE
       1 MOL1            1 RESIDUE      1      MOL     
@<SCITEGIC>MOL_PROPERTY
VConf Rank
SciTegic.value.IntegerValue
913

@<SCITEGIC>MOL_PROPERTY
Conf_Id
SciTegic.value.IntegerValue
36

@<SCITEGIC>MOL_PROPERTY
Delta U+W
SciTegic.value.DoubleValue
0.000

@<SCITEGIC>MOL_PROPERTY
U+W
SciTegic.value.DoubleValue
-53.409

@<SCITEGIC>MOL_PROPERTY
Grad RMS
SciTegic.value.DoubleValue
0.000000

@<SCITEGIC>MOL_PROPERTY
U
SciTegic.value.DoubleValue
9.048

@<SCITEGIC>MOL_PROPERTY
W
SciTegic.value.DoubleValue
-62.457

@<SCITEGIC>MOL_PROPERTY
W(PB)
SciTegic.value.DoubleValue
-64.540

@<SCITEGIC>MOL_PROPERTY
W(SA)
SciTegic.value.DoubleValue
2.084

@<SCITEGIC>MOL_PROPERTY
Valence
SciTegic.value.DoubleValue
2.652

@<SCITEGIC>MOL_PROPERTY
Coulomb
SciTegic.value.DoubleValue
5.578

@<SCITEGIC>MOL_PROPERTY
VdW
SciTegic.value.DoubleValue
0.818

@<SCITEGIC>MOL_PROPERTY
VdW6
SciTegic.value.DoubleValue
-4.534

@<SCITEGIC>MOL_PROPERTY
VdW12
SciTegic.value.DoubleValue
5.352

@<SCITEGIC>MOL_PROPERTY
Bond
SciTegic.value.DoubleValue
0.063

@<SCITEGIC>MOL_PROPERTY
Angle
SciTegic.value.DoubleValue
2.579

@<SCITEGIC>MOL_PROPERTY
Pdih
SciTegic.value.DoubleValue
0.010

@<SCITEGIC>MOL_PROPERTY
Idih
SciTegic.value.DoubleValue
0.000

@<SCITEGIC>MOL_PROPERTY
Tether
SciTegic.value.DoubleValue
0.000

@<TRIPOS>MOLECULE
guest-s19_confgen4.mol2 : confsearch ligand conformer 914
          17          16           1
SMALL
USER_CHARGES
 
@<TRIPOS>ATOM
       1    C1      19.394908   15.777554   21.924219 C.2        1 MOL1         0.6173
       2    O1      18.464746   15.590149   21.162594 O.co2      1 MOL1        -0.6755
       3    O2      19.819150   14.918141   22.671971 O.co2      1 MOL1        -0.6755
       4    C2      20.059504   17.108440   21.959085 C.2        1 MOL1        -0.1504
       5    H1      20.883702   17.209089   22.661564 H          1 MOL1         0.0814
       6    C3      19.692236   18.154838   21.184971 C.2        1 MOL1        -0.1394
       7    H2      18.866460   18.065624   20.479345 H          1 MOL1         0.0817
       8    C4      20.372294   19.505732   21.227947 C.3        1 MOL1        -0.1849
       9    H3      20.229771   20.019968   20.267929 H          1 MOL1         0.0736
      10    H4      21.455763   19.376864   21.355598 H          1 MOL1         0.0736
      11    C5      19.813989   20.379853   22.369536 C.3        1 MOL1        -0.1866
      12    H5      18.730621   20.509091   22.238472 H          1 MOL1         0.0738
      13    H6      19.959502   19.868567   23.331291 H          1 MOL1         0.0738
      14    C6      20.495656   21.762188   22.414305 C.3        1 MOL1        -0.2879
      15    H7      20.338456   22.308496   21.475015 H          1 MOL1         0.0750
      16    H8      20.085753   22.369233   23.231989 H          1 MOL1         0.0750
      17    H9      21.576981   21.661905   22.575912 H          1 MOL1         0.0750
@<TRIPOS>BOND
    1     1     2    1
    2     1     3    2
    3     1     4    1
    4     4     5    1
    5     4     6    2
    6     6     7    1
    7     6     8    1
    8     8     9    1
    9     8    10    1
   10     8    11    1
   11    11    12    1
   12    11    13    1
   13    11    14    1
   14    14    15    1
   15    14    16    1
   16    14    17    1
@<TRIPOS>SUBSTRUCTURE
       1 MOL1            1 RESIDUE      1      MOL     
@<SCITEGIC>MOL_PROPERTY
VConf Rank
SciTegic.value.IntegerValue
914

@<SCITEGIC>MOL_PROPERTY
Conf_Id
SciTegic.value.IntegerValue
1

@<SCITEGIC>MOL_PROPERTY
Delta U+W
SciTegic.value.DoubleValue
0.030

@<SCITEGIC>MOL_PROPERTY
U+W
SciTegic.value.DoubleValue
-53.378

@<SCITEGIC>MOL_PROPERTY
Grad RMS
SciTegic.value.DoubleValue
0.000000

@<SCITEGIC>MOL_PROPERTY
U
SciTegic.value.DoubleValue
9.048

@<SCITEGIC>MOL_PROPERTY
W
SciTegic.value.DoubleValue
-62.426

@<SCITEGIC>MOL_PROPERTY
W(PB)
SciTegic.value.DoubleValue
-64.506

@<SCITEGIC>MOL_PROPERTY
W(SA)
SciTegic.value.DoubleValue
2.080

@<SCITEGIC>MOL_PROPERTY
Valence
SciTegic.value.DoubleValue
2.652

@<SCITEGIC>MOL_PROPERTY
Coulomb
SciTegic.value.DoubleValue
5.578

@<SCITEGIC>MOL_PROPERTY
VdW
SciTegic.value.DoubleValue
0.818

@<SCITEGIC>MOL_PROPERTY
VdW6
SciTegic.value.DoubleValue
-4.535

@<SCITEGIC>MOL_PROPERTY
VdW12
SciTegic.value.DoubleValue
5.352

@<SCITEGIC>MOL_PROPERTY
Bond
SciTegic.value.DoubleValue
0.063

@<SCITEGIC>MOL_PROPERTY
Angle
SciTegic.value.DoubleValue
2.579

@<SCITEGIC>MOL_PROPERTY
Pdih
SciTegic.value.DoubleValue
0.010

@<SCITEGIC>MOL_PROPERTY
Idih
SciTegic.value.DoubleValue
0.000

@<SCITEGIC>MOL_PROPERTY
Tether
SciTegic.value.DoubleValue
0.000

@<TRIPOS>MOLECULE
guest-s19_confgen4.mol2 : confsearch ligand conformer 915
          17          16           1
SMALL
USER_CHARGES
 
@<TRIPOS>ATOM
       1    C1      22.786110   19.302834   20.714846 C.2        1 MOL1         0.6173
       2    O1      22.899274   18.178734   20.263145 O.co2      1 MOL1        -0.6755
       3    O2      23.489054   20.229678   20.361798 O.co2      1 MOL1        -0.6755
       4    C2      21.751748   19.579449   21.748128 C.2        1 MOL1        -0.1504
       5    H1      21.704372   20.603909   22.110065 H          1 MOL1         0.0814
       6    C3      20.901353   18.645838   22.232053 C.2        1 MOL1        -0.1394
       7    H2      20.937865   17.617222   21.873984 H          1 MOL1         0.0817
       8    C4      19.848431   18.935713   23.281025 C.3        1 MOL1        -0.1849
       9    H3      20.264790   19.605586   24.045513 H          1 MOL1         0.0736
      10    H4      19.576079   18.008125   23.802273 H          1 MOL1         0.0736
      11    C5      18.580891   19.580821   22.678747 C.3        1 MOL1        -0.1866
      12    H5      17.900241   19.863965   23.493424 H          1 MOL1         0.0738
      13    H6      18.850075   20.509953   22.157517 H          1 MOL1         0.0738
      14    C6      17.840528   18.636037   21.708201 C.3        1 MOL1        -0.2879
      15    H7      17.550277   17.704689   22.211679 H          1 MOL1         0.0750
      16    H8      16.928818   19.112928   21.325751 H          1 MOL1         0.0750
      17    H9      18.471649   18.378317   20.847684 H          1 MOL1         0.0750
@<TRIPOS>BOND
    1     1     2    1
    2     1     3    2
    3     1     4    1
    4     4     5    1
    5     4     6    2
    6     6     7    1
    7     6     8    1
    8     8     9    1
    9     8    10    1
   10     8    11    1
   11    11    12    1
   12    11    13    1
   13    11    14    1
   14    14    15    1
   15    14    16    1
   16    14    17    1
@<TRIPOS>SUBSTRUCTURE
       1 MOL1            1 RESIDUE      1      MOL     
@<SCITEGIC>MOL_PROPERTY
VConf Rank
SciTegic.value.IntegerValue
915

@<SCITEGIC>MOL_PROPERTY
Conf_Id
SciTegic.value.IntegerValue
3

@<SCITEGIC>MOL_PROPERTY
Delta U+W
SciTegic.value.DoubleValue
0.531

@<SCITEGIC>MOL_PROPERTY
U+W
SciTegic.value.DoubleValue
-52.878

@<SCITEGIC>MOL_PROPERTY
Grad RMS
SciTegic.value.DoubleValue
0.000000

@<SCITEGIC>MOL_PROPERTY
U
SciTegic.value.DoubleValue
10.067

@<SCITEGIC>MOL_PROPERTY
W
SciTegic.value.DoubleValue
-62.945

@<SCITEGIC>MOL_PROPERTY
W(PB)
SciTegic.value.DoubleValue
-64.982

@<SCITEGIC>MOL_PROPERTY
W(SA)
SciTegic.value.DoubleValue
2.037

@<SCITEGIC>MOL_PROPERTY
Valence
SciTegic.value.DoubleValue
2.779

@<SCITEGIC>MOL_PROPERTY
Coulomb
SciTegic.value.DoubleValue
6.474

@<SCITEGIC>MOL_PROPERTY
VdW
SciTegic.value.DoubleValue
0.815

@<SCITEGIC>MOL_PROPERTY
VdW6
SciTegic.value.DoubleValue
-5.088

@<SCITEGIC>MOL_PROPERTY
VdW12
SciTegic.value.DoubleValue
5.902

@<SCITEGIC>MOL_PROPERTY
Bond
SciTegic.value.DoubleValue
0.078

@<SCITEGIC>MOL_PROPERTY
Angle
SciTegic.value.DoubleValue
2.651

@<SCITEGIC>MOL_PROPERTY
Pdih
SciTegic.value.DoubleValue
0.050

@<SCITEGIC>MOL_PROPERTY
Idih
SciTegic.value.DoubleValue
0.000

@<SCITEGIC>MOL_PROPERTY
Tether
SciTegic.value.DoubleValue
0.000

@<TRIPOS>MOLECULE
guest-s19_confgen4.mol2 : confsearch ligand conformer 916
          17          16           1
SMALL
USER_CHARGES
 
@<TRIPOS>ATOM
       1    C1      22.064840   21.040704   21.081125 C.2        1 MOL1         0.6173
       2    O1      21.925565   22.079615   20.465458 O.co2      1 MOL1        -0.6755
       3    O2      23.109389   20.416891   21.096035 O.co2      1 MOL1        -0.6755
       4    C2      20.893403   20.531828   21.844573 C.2        1 MOL1        -0.1504
       5    H1      19.991846   21.137428   21.788470 H          1 MOL1         0.0814
       6    C3      20.905111   19.390618   22.570582 C.2        1 MOL1        -0.1394
       7    H2      21.803068   18.775999   22.629186 H          1 MOL1         0.0817
       8    C4      19.710055   18.873715   23.344525 C.3        1 MOL1        -0.1849
       9    H3      18.969005   19.671579   23.489422 H          1 MOL1         0.0736
      10    H4      20.036256   18.573960   24.349388 H          1 MOL1         0.0736
      11    C5      19.042410   17.664732   22.653310 C.3        1 MOL1        -0.1866
      12    H5      19.783669   16.867128   22.505591 H          1 MOL1         0.0738
      13    H6      18.268480   17.254874   23.316821 H          1 MOL1         0.0738
      14    C6      18.399649   18.034948   21.299564 C.3        1 MOL1        -0.2879
      15    H7      19.154978   18.389177   20.586083 H          1 MOL1         0.0750
      16    H8      17.902103   17.162360   20.856954 H          1 MOL1         0.0750
      17    H9      17.649051   18.826165   21.424743 H          1 MOL1         0.0750
@<TRIPOS>BOND
    1     1     2    1
    2     1     3    2
    3     1     4    1
    4     4     5    1
    5     4     6    2
    6     6     7    1
    7     6     8    1
    8     8     9    1
    9     8    10    1
   10     8    11    1
   11    11    12    1
   12    11    13    1
   13    11    14    1
   14    14    15    1
   15    14    16    1
   16    14    17    1
@<TRIPOS>SUBSTRUCTURE
       1 MOL1            1 RESIDUE      1      MOL     
@<SCITEGIC>MOL_PROPERTY
VConf Rank
SciTegic.value.IntegerValue
916

@<SCITEGIC>MOL_PROPERTY
Conf_Id
SciTegic.value.IntegerValue
45

@<SCITEGIC>MOL_PROPERTY
Delta U+W
SciTegic.value.DoubleValue
0.562

@<SCITEGIC>MOL_PROPERTY
U+W
SciTegic.value.DoubleValue
-52.846

@<SCITEGIC>MOL_PROPERTY
Grad RMS
SciTegic.value.DoubleValue
0.000000

@<SCITEGIC>MOL_PROPERTY
U
SciTegic.value.DoubleValue
10.243

@<SCITEGIC>MOL_PROPERTY
W
SciTegic.value.DoubleValue
-63.089

@<SCITEGIC>MOL_PROPERTY
W(PB)
SciTegic.value.DoubleValue
-65.116

@<SCITEGIC>MOL_PROPERTY
W(SA)
SciTegic.value.DoubleValue
2.026

@<SCITEGIC>MOL_PROPERTY
Valence
SciTegic.value.DoubleValue
2.822

@<SCITEGIC>MOL_PROPERTY
Coulomb
SciTegic.value.DoubleValue
6.637

@<SCITEGIC>MOL_PROPERTY
VdW
SciTegic.value.DoubleValue
0.785

@<SCITEGIC>MOL_PROPERTY
VdW6
SciTegic.value.DoubleValue
-5.216

@<SCITEGIC>MOL_PROPERTY
VdW12
SciTegic.value.DoubleValue
6.001

@<SCITEGIC>MOL_PROPERTY
Bond
SciTegic.value.DoubleValue
0.080

@<SCITEGIC>MOL_PROPERTY
Angle
SciTegic.value.DoubleValue
2.678

@<SCITEGIC>MOL_PROPERTY
Pdih
SciTegic.value.DoubleValue
0.064

@<SCITEGIC>MOL_PROPERTY
Idih
SciTegic.value.DoubleValue
0.000

@<SCITEGIC>MOL_PROPERTY
Tether
SciTegic.value.DoubleValue
0.000

@<TRIPOS>MOLECULE
guest-s19_confgen4.mol2 : confsearch ligand conformer 917
          17          16           1
SMALL
USER_CHARGES
 
@<TRIPOS>ATOM
       1    C1      21.733905   18.639862   24.762973 C.2        1 MOL1         0.6173
       2    O1      21.343379   18.650222   25.914097 O.co2      1 MOL1        -0.6755
       3    O2      22.913154   18.672212   24.465118 O.co2      1 MOL1        -0.6755
       4    C2      20.705866   18.583458   23.688675 C.2        1 MOL1        -0.1504
       5    H1      19.671206   18.556556   24.022836 H          1 MOL1         0.0814
       6    C3      20.996054   18.567497   22.367834 C.2        1 MOL1        -0.1394
       7    H2      22.029162   18.596515   22.021976 H          1 MOL1         0.0817
       8    C4      19.944351   18.512246   21.281507 C.3        1 MOL1        -0.1849
       9    H3      19.122670   17.850446   21.587562 H          1 MOL1         0.0736
      10    H4      20.377180   18.073133   20.372538 H          1 MOL1         0.0736
      11    C5      19.390879   19.916326   20.963320 C.3        1 MOL1        -0.1866
      12    H5      18.953648   20.355410   21.870841 H          1 MOL1         0.0738
      13    H6      20.214230   20.575806   20.655509 H          1 MOL1         0.0738
      14    C6      18.324902   19.869822   19.850190 C.3        1 MOL1        -0.2879
      15    H7      18.744884   19.463767   18.920585 H          1 MOL1         0.0750
      16    H8      17.475097   19.240778   20.146116 H          1 MOL1         0.0750
      17    H9      17.943184   20.876982   19.637942 H          1 MOL1         0.0750
@<TRIPOS>BOND
    1     1     2    1
    2     1     3    2
    3     1     4    1
    4     4     5    1
    5     4     6    2
    6     6     7    1
    7     6     8    1
    8     8     9    1
    9     8    10    1
   10     8    11    1
   11    11    12    1
   12    11    13    1
   13    11    14    1
   14    14    15    1
   15    14    16    1
   16    14    17    1
@<TRIPOS>SUBSTRUCTURE
       1 MOL1            1 RESIDUE      1      MOL     
@<SCITEGIC>MOL_PROPERTY
VConf Rank
SciTegic.value.IntegerValue
917

@<SCITEGIC>MOL_PROPERTY
Conf_Id
SciTegic.value.IntegerValue
36

@<SCITEGIC>MOL_PROPERTY
Delta U+W
SciTegic.value.DoubleValue
0.000

@<SCITEGIC>MOL_PROPERTY
U+W
SciTegic.value.DoubleValue
-53.409

@<SCITEGIC>MOL_PROPERTY
Grad RMS
SciTegic.value.DoubleValue
0.000000

@<SCITEGIC>MOL_PROPERTY
U
SciTegic.value.DoubleValue
9.048

@<SCITEGIC>MOL_PROPERTY
W
SciTegic.value.DoubleValue
-62.457

@<SCITEGIC>MOL_PROPERTY
W(PB)
SciTegic.value.DoubleValue
-64.540

@<SCITEGIC>MOL_PROPERTY
W(SA)
SciTegic.value.DoubleValue
2.084

@<SCITEGIC>MOL_PROPERTY
Valence
SciTegic.value.DoubleValue
2.652

@<SCITEGIC>MOL_PROPERTY
Coulomb
SciTegic.value.DoubleValue
5.578

@<SCITEGIC>MOL_PROPERTY
VdW
SciTegic.value.DoubleValue
0.818

@<SCITEGIC>MOL_PROPERTY
VdW6
SciTegic.value.DoubleValue
-4.534

@<SCITEGIC>MOL_PROPERTY
VdW12
SciTegic.value.DoubleValue
5.352

@<SCITEGIC>MOL_PROPERTY
Bond
SciTegic.value.DoubleValue
0.063

@<SCITEGIC>MOL_PROPERTY
Angle
SciTegic.value.DoubleValue
2.579

@<SCITEGIC>MOL_PROPERTY
Pdih
SciTegic.value.DoubleValue
0.010

@<SCITEGIC>MOL_PROPERTY
Idih
SciTegic.value.DoubleValue
0.000

@<SCITEGIC>MOL_PROPERTY
Tether
SciTegic.value.DoubleValue
0.000

@<TRIPOS>MOLECULE
guest-s19_confgen4.mol2 : confsearch ligand conformer 918
          17          16           1
SMALL
USER_CHARGES
 
@<TRIPOS>ATOM
       1    C1      18.106975   16.498212   20.910597 C.2        1 MOL1         0.6173
       2    O1      18.701599   15.483040   21.220824 O.co2      1 MOL1        -0.6755
       3    O2      17.129727   16.495930   20.187626 O.co2      1 MOL1        -0.6755
       4    C2      18.576742   17.812110   21.427467 C.2        1 MOL1        -0.1504
       5    H1      18.000993   18.679386   21.112417 H          1 MOL1         0.0814
       6    C3      19.648578   17.963565   22.238217 C.2        1 MOL1        -0.1394
       7    H2      20.233812   17.101658   22.558201 H          1 MOL1         0.0817
       8    C4      20.120829   19.303743   22.757968 C.3        1 MOL1        -0.1849
       9    H3      20.677489   19.159883   23.693822 H          1 MOL1         0.0736
      10    H4      19.257265   19.937293   23.002259 H          1 MOL1         0.0736
      11    C5      21.018145   20.021104   21.728778 C.3        1 MOL1        -0.1866
      12    H5      21.882233   19.386441   21.487694 H          1 MOL1         0.0738
      13    H6      20.461300   20.169501   20.793117 H          1 MOL1         0.0738
      14    C6      21.511285   21.384057   22.254797 C.3        1 MOL1        -0.2879
      15    H7      22.098859   21.261269   23.174096 H          1 MOL1         0.0750
      16    H8      22.147571   21.878971   21.509591 H          1 MOL1         0.0750
      17    H9      20.666089   22.049571   22.474275 H          1 MOL1         0.0750
@<TRIPOS>BOND
    1     1     2    1
    2     1     3    2
    3     1     4    1
    4     4     5    1
    5     4     6    2
    6     6     7    1
    7     6     8    1
    8     8     9    1
    9     8    10    1
   10     8    11    1
   11    11    12    1
   12    11    13    1
   13    11    14    1
   14    14    15    1
   15    14    16    1
   16    14    17    1
@<TRIPOS>SUBSTRUCTURE
       1 MOL1            1 RESIDUE      1      MOL     
@<SCITEGIC>MOL_PROPERTY
VConf Rank
SciTegic.value.IntegerValue
918

@<SCITEGIC>MOL_PROPERTY
Conf_Id
SciTegic.value.IntegerValue
1

@<SCITEGIC>MOL_PROPERTY
Delta U+W
SciTegic.value.DoubleValue
0.030

@<SCITEGIC>MOL_PROPERTY
U+W
SciTegic.value.DoubleValue
-53.378

@<SCITEGIC>MOL_PROPERTY
Grad RMS
SciTegic.value.DoubleValue
0.000000

@<SCITEGIC>MOL_PROPERTY
U
SciTegic.value.DoubleValue
9.048

@<SCITEGIC>MOL_PROPERTY
W
SciTegic.value.DoubleValue
-62.426

@<SCITEGIC>MOL_PROPERTY
W(PB)
SciTegic.value.DoubleValue
-64.506

@<SCITEGIC>MOL_PROPERTY
W(SA)
SciTegic.value.DoubleValue
2.080

@<SCITEGIC>MOL_PROPERTY
Valence
SciTegic.value.DoubleValue
2.652

@<SCITEGIC>MOL_PROPERTY
Coulomb
SciTegic.value.DoubleValue
5.578

@<SCITEGIC>MOL_PROPERTY
VdW
SciTegic.value.DoubleValue
0.818

@<SCITEGIC>MOL_PROPERTY
VdW6
SciTegic.value.DoubleValue
-4.535

@<SCITEGIC>MOL_PROPERTY
VdW12
SciTegic.value.DoubleValue
5.352

@<SCITEGIC>MOL_PROPERTY
Bond
SciTegic.value.DoubleValue
0.063

@<SCITEGIC>MOL_PROPERTY
Angle
SciTegic.value.DoubleValue
2.579

@<SCITEGIC>MOL_PROPERTY
Pdih
SciTegic.value.DoubleValue
0.010

@<SCITEGIC>MOL_PROPERTY
Idih
SciTegic.value.DoubleValue
0.000

@<SCITEGIC>MOL_PROPERTY
Tether
SciTegic.value.DoubleValue
0.000

@<TRIPOS>MOLECULE
guest-s19_confgen4.mol2 : confsearch ligand conformer 919
          17          16           1
SMALL
USER_CHARGES
 
@<TRIPOS>ATOM
       1    C1      17.350689   17.705793   21.355262 C.2        1 MOL1         0.6173
       2    O1      16.660460   18.081610   22.284126 O.co2      1 MOL1        -0.6755
       3    O2      16.886461   17.215770   20.344232 O.co2      1 MOL1        -0.6755
       4    C2      18.830469   17.837972   21.438139 C.2        1 MOL1        -0.1504
       5    H1      19.387949   17.482201   20.574772 H          1 MOL1         0.0814
       6    C3      19.481774   18.364602   22.499954 C.2        1 MOL1        -0.1394
       7    H2      18.932898   18.727185   23.368784 H          1 MOL1         0.0817
       8    C4      20.988130   18.499474   22.575551 C.3        1 MOL1        -0.1849
       9    H3      21.459882   17.599426   22.158550 H          1 MOL1         0.0736
      10    H4      21.305494   18.552912   23.625655 H          1 MOL1         0.0736
      11    C5      21.505860   19.740602   21.815869 C.3        1 MOL1        -0.1866
      12    H5      22.604503   19.728894   21.815240 H          1 MOL1         0.0738
      13    H6      21.190892   19.689355   20.764395 H          1 MOL1         0.0738
      14    C6      21.015820   21.063943   22.441442 C.3        1 MOL1        -0.2879
      15    H7      21.330397   21.142695   23.490244 H          1 MOL1         0.0750
      16    H8      21.428817   21.923752   21.898239 H          1 MOL1         0.0750
      17    H9      19.921063   21.137612   22.405378 H          1 MOL1         0.0750
@<TRIPOS>BOND
    1     1     2    1
    2     1     3    2
    3     1     4    1
    4     4     5    1
    5     4     6    2
    6     6     7    1
    7     6     8    1
    8     8     9    1
    9     8    10    1
   10     8    11    1
   11    11    12    1
   12    11    13    1
   13    11    14    1
   14    14    15    1
   15    14    16    1
   16    14    17    1
@<TRIPOS>SUBSTRUCTURE
       1 MOL1            1 RESIDUE      1      MOL     
@<SCITEGIC>MOL_PROPERTY
VConf Rank
SciTegic.value.IntegerValue
919

@<SCITEGIC>MOL_PROPERTY
Conf_Id
SciTegic.value.IntegerValue
3

@<SCITEGIC>MOL_PROPERTY
Delta U+W
SciTegic.value.DoubleValue
0.531

@<SCITEGIC>MOL_PROPERTY
U+W
SciTegic.value.DoubleValue
-52.878

@<SCITEGIC>MOL_PROPERTY
Grad RMS
SciTegic.value.DoubleValue
0.000000

@<SCITEGIC>MOL_PROPERTY
U
SciTegic.value.DoubleValue
10.067

@<SCITEGIC>MOL_PROPERTY
W
SciTegic.value.DoubleValue
-62.945

@<SCITEGIC>MOL_PROPERTY
W(PB)
SciTegic.value.DoubleValue
-64.982

@<SCITEGIC>MOL_PROPERTY
W(SA)
SciTegic.value.DoubleValue
2.037

@<SCITEGIC>MOL_PROPERTY
Valence
SciTegic.value.DoubleValue
2.779

@<SCITEGIC>MOL_PROPERTY
Coulomb
SciTegic.value.DoubleValue
6.474

@<SCITEGIC>MOL_PROPERTY
VdW
SciTegic.value.DoubleValue
0.815

@<SCITEGIC>MOL_PROPERTY
VdW6
SciTegic.value.DoubleValue
-5.088

@<SCITEGIC>MOL_PROPERTY
VdW12
SciTegic.value.DoubleValue
5.902

@<SCITEGIC>MOL_PROPERTY
Bond
SciTegic.value.DoubleValue
0.078

@<SCITEGIC>MOL_PROPERTY
Angle
SciTegic.value.DoubleValue
2.651

@<SCITEGIC>MOL_PROPERTY
Pdih
SciTegic.value.DoubleValue
0.050

@<SCITEGIC>MOL_PROPERTY
Idih
SciTegic.value.DoubleValue
0.000

@<SCITEGIC>MOL_PROPERTY
Tether
SciTegic.value.DoubleValue
0.000

@<TRIPOS>MOLECULE
guest-s19_confgen4.mol2 : confsearch ligand conformer 920
          17          16           1
SMALL
USER_CHARGES
 
@<TRIPOS>ATOM
       1    C1      16.976235   19.197690   22.399179 C.2        1 MOL1         0.6173
       2    O1      16.107579   19.257313   21.550851 O.co2      1 MOL1        -0.6755
       3    O2      16.793108   19.526981   23.556106 O.co2      1 MOL1        -0.6755
       4    C2      18.312263   18.693760   21.980663 C.2        1 MOL1        -0.1504
       5    H1      18.407511   18.416908   20.933291 H          1 MOL1         0.0814
       6    C3      19.369242   18.576750   22.816540 C.2        1 MOL1        -0.1394
       7    H2      19.283505   18.855349   23.866563 H          1 MOL1         0.0817
       8    C4      20.728954   18.065971   22.386860 C.3        1 MOL1        -0.1849
       9    H3      20.656134   17.530947   21.430206 H          1 MOL1         0.0736
      10    H4      21.084169   17.330924   23.121393 H          1 MOL1         0.0736
      11    C5      21.770724   19.200002   22.269164 C.3        1 MOL1        -0.1866
      12    H5      21.842279   19.737417   23.224949 H          1 MOL1         0.0738
      13    H6      22.759909   18.760010   22.081765 H          1 MOL1         0.0738
      14    C6      21.440120   20.194996   21.136240 C.3        1 MOL1        -0.2879
      15    H7      20.485370   20.703904   21.322031 H          1 MOL1         0.0750
      16    H8      22.220530   20.962797   21.056810 H          1 MOL1         0.0750
      17    H9      21.371244   19.680001   20.169219 H          1 MOL1         0.0750
@<TRIPOS>BOND
    1     1     2    1
    2     1     3    2
    3     1     4    1
    4     4     5    1
    5     4     6    2
    6     6     7    1
    7     6     8    1
    8     8     9    1
    9     8    10    1
   10     8    11    1
   11    11    12    1
   12    11    13    1
   13    11    14    1
   14    14    15    1
   15    14    16    1
   16    14    17    1
@<TRIPOS>SUBSTRUCTURE
       1 MOL1            1 RESIDUE      1      MOL     
@<SCITEGIC>MOL_PROPERTY
VConf Rank
SciTegic.value.IntegerValue
920

@<SCITEGIC>MOL_PROPERTY
Conf_Id
SciTegic.value.IntegerValue
45

@<SCITEGIC>MOL_PROPERTY
Delta U+W
SciTegic.value.DoubleValue
0.562

@<SCITEGIC>MOL_PROPERTY
U+W
SciTegic.value.DoubleValue
-52.846

@<SCITEGIC>MOL_PROPERTY
Grad RMS
SciTegic.value.DoubleValue
0.000000

@<SCITEGIC>MOL_PROPERTY
U
SciTegic.value.DoubleValue
10.243

@<SCITEGIC>MOL_PROPERTY
W
SciTegic.value.DoubleValue
-63.089

@<SCITEGIC>MOL_PROPERTY
W(PB)
SciTegic.value.DoubleValue
-65.116

@<SCITEGIC>MOL_PROPERTY
W(SA)
SciTegic.value.DoubleValue
2.026

@<SCITEGIC>MOL_PROPERTY
Valence
SciTegic.value.DoubleValue
2.822

@<SCITEGIC>MOL_PROPERTY
Coulomb
SciTegic.value.DoubleValue
6.637

@<SCITEGIC>MOL_PROPERTY
VdW
SciTegic.value.DoubleValue
0.785

@<SCITEGIC>MOL_PROPERTY
VdW6
SciTegic.value.DoubleValue
-5.216

@<SCITEGIC>MOL_PROPERTY
VdW12
SciTegic.value.DoubleValue
6.001

@<SCITEGIC>MOL_PROPERTY
Bond
SciTegic.value.DoubleValue
0.080

@<SCITEGIC>MOL_PROPERTY
Angle
SciTegic.value.DoubleValue
2.678

@<SCITEGIC>MOL_PROPERTY
Pdih
SciTegic.value.DoubleValue
0.064

@<SCITEGIC>MOL_PROPERTY
Idih
SciTegic.value.DoubleValue
0.000

@<SCITEGIC>MOL_PROPERTY
Tether
SciTegic.value.DoubleValue
0.000

@<TRIPOS>MOLECULE
guest-s19_confgen4.mol2 : confsearch ligand conformer 921
          17          16           1
SMALL
USER_CHARGES
 
@<TRIPOS>ATOM
       1    C1      21.168207   19.388665   18.763296 C.2        1 MOL1         0.6173
       2    O1      21.113390   20.333362   18.000244 O.co2      1 MOL1        -0.6755
       3    O2      21.480781   18.268313   18.406221 O.co2      1 MOL1        -0.6755
       4    C2      20.835409   19.638592   20.191911 C.2        1 MOL1        -0.1504
       5    H1      20.564507   20.661266   20.444218 H          1 MOL1         0.0814
       6    C3      20.853601   18.682665   21.148445 C.2        1 MOL1        -0.1394
       7    H2      21.121254   17.654340   20.906199 H          1 MOL1         0.0817
       8    C4      20.511645   18.944778   22.598825 C.3        1 MOL1        -0.1849
       9    H3      20.907113   19.922174   22.907226 H          1 MOL1         0.0736
      10    H4      21.002287   18.194747   23.233736 H          1 MOL1         0.0736
      11    C5      18.987772   18.902296   22.833387 C.3        1 MOL1        -0.1866
      12    H5      18.495710   19.655081   22.201921 H          1 MOL1         0.0738
      13    H6      18.594906   17.923108   22.526116 H          1 MOL1         0.0738
      14    C6      18.631373   19.159221   24.311391 C.3        1 MOL1        -0.2879
      15    H7      19.085333   18.400818   24.962679 H          1 MOL1         0.0750
      16    H8      18.986433   20.146386   24.635232 H          1 MOL1         0.0750
      17    H9      17.544030   19.125223   24.458571 H          1 MOL1         0.0750
@<TRIPOS>BOND
    1     1     2    1
    2     1     3    2
    3     1     4    1
    4     4     5    1
    5     4     6    2
    6     6     7    1
    7     6     8    1
    8     8     9    1
    9     8    10    1
   10     8    11    1
   11    11    12    1
   12    11    13    1
   13    11    14    1
   14    14    15    1
   15    14    16    1
   16    14    17    1
@<TRIPOS>SUBSTRUCTURE
       1 MOL1            1 RESIDUE      1      MOL     
@<SCITEGIC>MOL_PROPERTY
VConf Rank
SciTegic.value.IntegerValue
921

@<SCITEGIC>MOL_PROPERTY
Conf_Id
SciTegic.value.IntegerValue
36

@<SCITEGIC>MOL_PROPERTY
Delta U+W
SciTegic.value.DoubleValue
0.000

@<SCITEGIC>MOL_PROPERTY
U+W
SciTegic.value.DoubleValue
-53.409

@<SCITEGIC>MOL_PROPERTY
Grad RMS
SciTegic.value.DoubleValue
0.000000

@<SCITEGIC>MOL_PROPERTY
U
SciTegic.value.DoubleValue
9.048

@<SCITEGIC>MOL_PROPERTY
W
SciTegic.value.DoubleValue
-62.457

@<SCITEGIC>MOL_PROPERTY
W(PB)
SciTegic.value.DoubleValue
-64.540

@<SCITEGIC>MOL_PROPERTY
W(SA)
SciTegic.value.DoubleValue
2.084

@<SCITEGIC>MOL_PROPERTY
Valence
SciTegic.value.DoubleValue
2.652

@<SCITEGIC>MOL_PROPERTY
Coulomb
SciTegic.value.DoubleValue
5.578

@<SCITEGIC>MOL_PROPERTY
VdW
SciTegic.value.DoubleValue
0.818

@<SCITEGIC>MOL_PROPERTY
VdW6
SciTegic.value.DoubleValue
-4.534

@<SCITEGIC>MOL_PROPERTY
VdW12
SciTegic.value.DoubleValue
5.352

@<SCITEGIC>MOL_PROPERTY
Bond
SciTegic.value.DoubleValue
0.063

@<SCITEGIC>MOL_PROPERTY
Angle
SciTegic.value.DoubleValue
2.579

@<SCITEGIC>MOL_PROPERTY
Pdih
SciTegic.value.DoubleValue
0.010

@<SCITEGIC>MOL_PROPERTY
Idih
SciTegic.value.DoubleValue
0.000

@<SCITEGIC>MOL_PROPERTY
Tether
SciTegic.value.DoubleValue
0.000

@<TRIPOS>MOLECULE
guest-s19_confgen4.mol2 : confsearch ligand conformer 922
          17          16           1
SMALL
USER_CHARGES
 
@<TRIPOS>ATOM
       1    C1      17.558231   20.396504   20.003685 C.2        1 MOL1         0.6173
       2    O1      17.856399   21.556435   19.789093 O.co2      1 MOL1        -0.6755
       3    O2      16.466546   19.934868   19.733832 O.co2      1 MOL1        -0.6755
       4    C2      18.557316   19.483120   20.621520 C.2        1 MOL1        -0.1504
       5    H1      18.227028   18.460028   20.786151 H          1 MOL1         0.0814
       6    C3      19.807321   19.860695   20.973673 C.2        1 MOL1        -0.1394
       7    H2      20.147856   20.883780   20.815219 H          1 MOL1         0.0817
       8    C4      20.816745   18.925878   21.603290 C.3        1 MOL1        -0.1849
       9    H3      21.832749   19.287877   21.395739 H          1 MOL1         0.0736
      10    H4      20.740925   17.929209   21.147539 H          1 MOL1         0.0736
      11    C5      20.608549   18.818337   23.127793 C.3        1 MOL1        -0.1866
      12    H5      20.686988   19.816073   23.581597 H          1 MOL1         0.0738
      13    H6      19.593766   18.452339   23.337126 H          1 MOL1         0.0738
      14    C6      21.639548   17.874325   23.778490 C.3        1 MOL1        -0.2879
      15    H7      22.663004   18.234824   23.611136 H          1 MOL1         0.0750
      16    H8      21.475725   17.810639   24.862111 H          1 MOL1         0.0750
      17    H9      21.560795   16.860803   23.363751 H          1 MOL1         0.0750
@<TRIPOS>BOND
    1     1     2    1
    2     1     3    2
    3     1     4    1
    4     4     5    1
    5     4     6    2
    6     6     7    1
    7     6     8    1
    8     8     9    1
    9     8    10    1
   10     8    11    1
   11    11    12    1
   12    11    13    1
   13    11    14    1
   14    14    15    1
   15    14    16    1
   16    14    17    1
@<TRIPOS>SUBSTRUCTURE
       1 MOL1            1 RESIDUE      1      MOL     
@<SCITEGIC>MOL_PROPERTY
VConf Rank
SciTegic.value.IntegerValue
922

@<SCITEGIC>MOL_PROPERTY
Conf_Id
SciTegic.value.IntegerValue
1

@<SCITEGIC>MOL_PROPERTY
Delta U+W
SciTegic.value.DoubleValue
0.030

@<SCITEGIC>MOL_PROPERTY
U+W
SciTegic.value.DoubleValue
-53.378

@<SCITEGIC>MOL_PROPERTY
Grad RMS
SciTegic.value.DoubleValue
0.000000

@<SCITEGIC>MOL_PROPERTY
U
SciTegic.value.DoubleValue
9.048

@<SCITEGIC>MOL_PROPERTY
W
SciTegic.value.DoubleValue
-62.426

@<SCITEGIC>MOL_PROPERTY
W(PB)
SciTegic.value.DoubleValue
-64.506

@<SCITEGIC>MOL_PROPERTY
W(SA)
SciTegic.value.DoubleValue
2.080

@<SCITEGIC>MOL_PROPERTY
Valence
SciTegic.value.DoubleValue
2.652

@<SCITEGIC>MOL_PROPERTY
Coulomb
SciTegic.value.DoubleValue
5.578

@<SCITEGIC>MOL_PROPERTY
VdW
SciTegic.value.DoubleValue
0.818

@<SCITEGIC>MOL_PROPERTY
VdW6
SciTegic.value.DoubleValue
-4.535

@<SCITEGIC>MOL_PROPERTY
VdW12
SciTegic.value.DoubleValue
5.352

@<SCITEGIC>MOL_PROPERTY
Bond
SciTegic.value.DoubleValue
0.063

@<SCITEGIC>MOL_PROPERTY
Angle
SciTegic.value.DoubleValue
2.579

@<SCITEGIC>MOL_PROPERTY
Pdih
SciTegic.value.DoubleValue
0.010

@<SCITEGIC>MOL_PROPERTY
Idih
SciTegic.value.DoubleValue
0.000

@<SCITEGIC>MOL_PROPERTY
Tether
SciTegic.value.DoubleValue
0.000

@<TRIPOS>MOLECULE
guest-s19_confgen4.mol2 : confsearch ligand conformer 923
          17          16           1
SMALL
USER_CHARGES
 
@<TRIPOS>ATOM
       1    C1      21.819552   16.647092   21.509988 C.2        1 MOL1         0.6173
       2    O1      21.867169   16.674799   20.294502 O.co2      1 MOL1        -0.6755
       3    O2      22.591780   15.995463   22.185899 O.co2      1 MOL1        -0.6755
       4    C2      20.777393   17.434054   22.223210 C.2        1 MOL1        -0.1504
       5    H1      20.789830   17.364551   23.308463 H          1 MOL1         0.0814
       6    C3      19.855746   18.203110   21.600228 C.2        1 MOL1        -0.1394
       7    H2      19.836353   18.282604   20.513535 H          1 MOL1         0.0817
       8    C4      18.800381   19.004448   22.333082 C.3        1 MOL1        -0.1849
       9    H3      18.403037   18.412758   23.168874 H          1 MOL1         0.0736
      10    H4      17.950567   19.200433   21.665474 H          1 MOL1         0.0736
      11    C5      19.349762   20.342021   22.875891 C.3        1 MOL1        -0.1866
      12    H5      18.574875   20.828012   23.484591 H          1 MOL1         0.0738
      13    H6      20.199524   20.149068   23.545295 H          1 MOL1         0.0738
      14    C6      19.783431   21.304031   21.749311 C.3        1 MOL1        -0.2879
      15    H7      18.945455   21.521331   21.074239 H          1 MOL1         0.0750
      16    H8      20.136304   22.255124   22.168607 H          1 MOL1         0.0750
      17    H9      20.600400   20.874898   21.154645 H          1 MOL1         0.0750
@<TRIPOS>BOND
    1     1     2    1
    2     1     3    2
    3     1     4    1
    4     4     5    1
    5     4     6    2
    6     6     7    1
    7     6     8    1
    8     8     9    1
    9     8    10    1
   10     8    11    1
   11    11    12    1
   12    11    13    1
   13    11    14    1
   14    14    15    1
   15    14    16    1
   16    14    17    1
@<TRIPOS>SUBSTRUCTURE
       1 MOL1            1 RESIDUE      1      MOL     
@<SCITEGIC>MOL_PROPERTY
VConf Rank
SciTegic.value.IntegerValue
923

@<SCITEGIC>MOL_PROPERTY
Conf_Id
SciTegic.value.IntegerValue
3

@<SCITEGIC>MOL_PROPERTY
Delta U+W
SciTegic.value.DoubleValue
0.531

@<SCITEGIC>MOL_PROPERTY
U+W
SciTegic.value.DoubleValue
-52.878

@<SCITEGIC>MOL_PROPERTY
Grad RMS
SciTegic.value.DoubleValue
0.000000

@<SCITEGIC>MOL_PROPERTY
U
SciTegic.value.DoubleValue
10.067

@<SCITEGIC>MOL_PROPERTY
W
SciTegic.value.DoubleValue
-62.945

@<SCITEGIC>MOL_PROPERTY
W(PB)
SciTegic.value.DoubleValue
-64.982

@<SCITEGIC>MOL_PROPERTY
W(SA)
SciTegic.value.DoubleValue
2.037

@<SCITEGIC>MOL_PROPERTY
Valence
SciTegic.value.DoubleValue
2.779

@<SCITEGIC>MOL_PROPERTY
Coulomb
SciTegic.value.DoubleValue
6.474

@<SCITEGIC>MOL_PROPERTY
VdW
SciTegic.value.DoubleValue
0.815

@<SCITEGIC>MOL_PROPERTY
VdW6
SciTegic.value.DoubleValue
-5.088

@<SCITEGIC>MOL_PROPERTY
VdW12
SciTegic.value.DoubleValue
5.902

@<SCITEGIC>MOL_PROPERTY
Bond
SciTegic.value.DoubleValue
0.078

@<SCITEGIC>MOL_PROPERTY
Angle
SciTegic.value.DoubleValue
2.651

@<SCITEGIC>MOL_PROPERTY
Pdih
SciTegic.value.DoubleValue
0.050

@<SCITEGIC>MOL_PROPERTY
Idih
SciTegic.value.DoubleValue
0.000

@<SCITEGIC>MOL_PROPERTY
Tether
SciTegic.value.DoubleValue
0.000

@<TRIPOS>MOLECULE
guest-s19_confgen4.mol2 : confsearch ligand conformer 924
          17          16           1
SMALL
USER_CHARGES
 
@<TRIPOS>ATOM
       1    C1      21.560061   17.494664   24.085710 C.2        1 MOL1         0.6173
       2    O1      21.578390   16.294224   24.276473 O.co2      1 MOL1        -0.6755
       3    O2      21.920272   18.301761   24.921945 O.co2      1 MOL1        -0.6755
       4    C2      21.074832   17.973093   22.762936 C.2        1 MOL1        -0.1504
       5    H1      20.768535   17.199621   22.062486 H          1 MOL1         0.0814
       6    C3      20.998586   19.278026   22.415201 C.2        1 MOL1        -0.1394
       7    H2      21.299964   20.059555   23.112268 H          1 MOL1         0.0817
       8    C4      20.501553   19.762100   21.068737 C.3        1 MOL1        -0.1849
       9    H3      20.511594   18.943656   20.336079 H          1 MOL1         0.0736
      10    H4      21.192595   20.524219   20.684491 H          1 MOL1         0.0736
      11    C5      19.083253   20.367806   21.150661 C.3        1 MOL1        -0.1866
      12    H5      19.071692   21.184893   21.885300 H          1 MOL1         0.0738
      13    H6      18.827794   20.814878   20.180060 H          1 MOL1         0.0738
      14    C6      18.010717   19.320847   21.519950 C.3        1 MOL1        -0.2879
      15    H7      18.196999   18.897010   22.515297 H          1 MOL1         0.0750
      16    H8      17.012710   19.777725   21.530438 H          1 MOL1         0.0750
      17    H9      17.999331   18.497642   20.793798 H          1 MOL1         0.0750
@<TRIPOS>BOND
    1     1     2    1
    2     1     3    2
    3     1     4    1
    4     4     5    1
    5     4     6    2
    6     6     7    1
    7     6     8    1
    8     8     9    1
    9     8    10    1
   10     8    11    1
   11    11    12    1
   12    11    13    1
   13    11    14    1
   14    14    15    1
   15    14    16    1
   16    14    17    1
@<TRIPOS>SUBSTRUCTURE
       1 MOL1            1 RESIDUE      1      MOL     
@<SCITEGIC>MOL_PROPERTY
VConf Rank
SciTegic.value.IntegerValue
924

@<SCITEGIC>MOL_PROPERTY
Conf_Id
SciTegic.value.IntegerValue
45

@<SCITEGIC>MOL_PROPERTY
Delta U+W
SciTegic.value.DoubleValue
0.562

@<SCITEGIC>MOL_PROPERTY
U+W
SciTegic.value.DoubleValue
-52.846

@<SCITEGIC>MOL_PROPERTY
Grad RMS
SciTegic.value.DoubleValue
0.000000

@<SCITEGIC>MOL_PROPERTY
U
SciTegic.value.DoubleValue
10.243

@<SCITEGIC>MOL_PROPERTY
W
SciTegic.value.DoubleValue
-63.089

@<SCITEGIC>MOL_PROPERTY
W(PB)
SciTegic.value.DoubleValue
-65.116

@<SCITEGIC>MOL_PROPERTY
W(SA)
SciTegic.value.DoubleValue
2.026

@<SCITEGIC>MOL_PROPERTY
Valence
SciTegic.value.DoubleValue
2.822

@<SCITEGIC>MOL_PROPERTY
Coulomb
SciTegic.value.DoubleValue
6.637

@<SCITEGIC>MOL_PROPERTY
VdW
SciTegic.value.DoubleValue
0.785

@<SCITEGIC>MOL_PROPERTY
VdW6
SciTegic.value.DoubleValue
-5.216

@<SCITEGIC>MOL_PROPERTY
VdW12
SciTegic.value.DoubleValue
6.001

@<SCITEGIC>MOL_PROPERTY
Bond
SciTegic.value.DoubleValue
0.080

@<SCITEGIC>MOL_PROPERTY
Angle
SciTegic.value.DoubleValue
2.678

@<SCITEGIC>MOL_PROPERTY
Pdih
SciTegic.value.DoubleValue
0.064

@<SCITEGIC>MOL_PROPERTY
Idih
SciTegic.value.DoubleValue
0.000

@<SCITEGIC>MOL_PROPERTY
Tether
SciTegic.value.DoubleValue
0.000

@<TRIPOS>MOLECULE
guest-s19_confgen4.mol2 : confsearch ligand conformer 925
          17          16           1
SMALL
USER_CHARGES
 
@<TRIPOS>ATOM
       1    C1      21.506515   21.362722   19.901628 C.2        1 MOL1         0.6173
       2    O1      21.015125   22.122707   19.090047 O.co2      1 MOL1        -0.6755
       3    O2      22.700557   21.135119   19.955037 O.co2      1 MOL1        -0.6755
       4    C2      20.587337   20.694553   20.862265 C.2        1 MOL1        -0.1504
       5    H1      19.533055   20.941603   20.760456 H          1 MOL1         0.0814
       6    C3      20.994824   19.826264   21.815739 C.2        1 MOL1        -0.1394
       7    H2      22.048432   19.569858   21.925013 H          1 MOL1         0.0817
       8    C4      20.053142   19.149335   22.787459 C.3        1 MOL1        -0.1849
       9    H3      19.267109   19.850659   23.099079 H          1 MOL1         0.0736
      10    H4      20.601579   18.870342   23.697276 H          1 MOL1         0.0736
      11    C5      19.412102   17.891987   22.165239 C.3        1 MOL1        -0.1866
      12    H5      18.859429   18.170058   21.257059 H          1 MOL1         0.0738
      13    H6      20.200147   17.191220   21.856245 H          1 MOL1         0.0738
      14    C6      18.457904   17.190758   23.152817 C.3        1 MOL1        -0.2879
      15    H7      18.992606   16.873414   24.057702 H          1 MOL1         0.0750
      16    H8      17.642064   17.861015   23.453809 H          1 MOL1         0.0750
      17    H9      18.011823   16.299423   22.692748 H          1 MOL1         0.0750
@<TRIPOS>BOND
    1     1     2    1
    2     1     3    2
    3     1     4    1
    4     4     5    1
    5     4     6    2
    6     6     7    1
    7     6     8    1
    8     8     9    1
    9     8    10    1
   10     8    11    1
   11    11    12    1
   12    11    13    1
   13    11    14    1
   14    14    15    1
   15    14    16    1
   16    14    17    1
@<TRIPOS>SUBSTRUCTURE
       1 MOL1            1 RESIDUE      1      MOL     
@<SCITEGIC>MOL_PROPERTY
VConf Rank
SciTegic.value.IntegerValue
925

@<SCITEGIC>MOL_PROPERTY
Conf_Id
SciTegic.value.IntegerValue
36

@<SCITEGIC>MOL_PROPERTY
Delta U+W
SciTegic.value.DoubleValue
0.000

@<SCITEGIC>MOL_PROPERTY
U+W
SciTegic.value.DoubleValue
-53.409

@<SCITEGIC>MOL_PROPERTY
Grad RMS
SciTegic.value.DoubleValue
0.000000

@<SCITEGIC>MOL_PROPERTY
U
SciTegic.value.DoubleValue
9.048

@<SCITEGIC>MOL_PROPERTY
W
SciTegic.value.DoubleValue
-62.457

@<SCITEGIC>MOL_PROPERTY
W(PB)
SciTegic.value.DoubleValue
-64.540

@<SCITEGIC>MOL_PROPERTY
W(SA)
SciTegic.value.DoubleValue
2.084

@<SCITEGIC>MOL_PROPERTY
Valence
SciTegic.value.DoubleValue
2.652

@<SCITEGIC>MOL_PROPERTY
Coulomb
SciTegic.value.DoubleValue
5.578

@<SCITEGIC>MOL_PROPERTY
VdW
SciTegic.value.DoubleValue
0.818

@<SCITEGIC>MOL_PROPERTY
VdW6
SciTegic.value.DoubleValue
-4.534

@<SCITEGIC>MOL_PROPERTY
VdW12
SciTegic.value.DoubleValue
5.352

@<SCITEGIC>MOL_PROPERTY
Bond
SciTegic.value.DoubleValue
0.063

@<SCITEGIC>MOL_PROPERTY
Angle
SciTegic.value.DoubleValue
2.579

@<SCITEGIC>MOL_PROPERTY
Pdih
SciTegic.value.DoubleValue
0.010

@<SCITEGIC>MOL_PROPERTY
Idih
SciTegic.value.DoubleValue
0.000

@<SCITEGIC>MOL_PROPERTY
Tether
SciTegic.value.DoubleValue
0.000

@<TRIPOS>MOLECULE
guest-s19_confgen4.mol2 : confsearch ligand conformer 926
          17          16           1
SMALL
USER_CHARGES
 
@<TRIPOS>ATOM
       1    C1      21.496878   17.357583   19.430445 C.2        1 MOL1         0.6173
       2    O1      20.849011   16.339279   19.276432 O.co2      1 MOL1        -0.6755
       3    O2      22.578574   17.537370   18.905741 O.co2      1 MOL1        -0.6755
       4    C2      20.961930   18.445516   20.293228 C.2        1 MOL1        -0.1504
       5    H1      21.590329   19.328100   20.388468 H          1 MOL1         0.0814
       6    C3      19.775087   18.381132   20.938475 C.2        1 MOL1        -0.1394
       7    H2      19.138585   17.500723   20.851764 H          1 MOL1         0.0817
       8    C4      19.239169   19.491382   21.815616 C.3        1 MOL1        -0.1849
       9    H3      18.143579   19.427989   21.860914 H          1 MOL1         0.0736
      10    H4      19.477637   20.468070   21.372873 H          1 MOL1         0.0736
      11    C5      19.820230   19.410676   23.242105 C.3        1 MOL1        -0.1866
      12    H5      19.578568   18.433816   23.683594 H          1 MOL1         0.0738
      13    H6      20.916200   19.478082   23.198906 H          1 MOL1         0.0738
      14    C6      19.271672   20.533643   24.145185 C.3        1 MOL1        -0.2879
      15    H7      18.178970   20.470238   24.231293 H          1 MOL1         0.0750
      16    H8      19.695941   20.459858   25.154978 H          1 MOL1         0.0750
      17    H9      19.527132   21.522277   23.741727 H          1 MOL1         0.0750
@<TRIPOS>BOND
    1     1     2    1
    2     1     3    2
    3     1     4    1
    4     4     5    1
    5     4     6    2
    6     6     7    1
    7     6     8    1
    8     8     9    1
    9     8    10    1
   10     8    11    1
   11    11    12    1
   12    11    13    1
   13    11    14    1
   14    14    15    1
   15    14    16    1
   16    14    17    1
@<TRIPOS>SUBSTRUCTURE
       1 MOL1            1 RESIDUE      1      MOL     
@<SCITEGIC>MOL_PROPERTY
VConf Rank
SciTegic.value.IntegerValue
926

@<SCITEGIC>MOL_PROPERTY
Conf_Id
SciTegic.value.IntegerValue
1

@<SCITEGIC>MOL_PROPERTY
Delta U+W
SciTegic.value.DoubleValue
0.030

@<SCITEGIC>MOL_PROPERTY
U+W
SciTegic.value.DoubleValue
-53.378

@<SCITEGIC>MOL_PROPERTY
Grad RMS
SciTegic.value.DoubleValue
0.000000

@<SCITEGIC>MOL_PROPERTY
U
SciTegic.value.DoubleValue
9.048

@<SCITEGIC>MOL_PROPERTY
W
SciTegic.value.DoubleValue
-62.426

@<SCITEGIC>MOL_PROPERTY
W(PB)
SciTegic.value.DoubleValue
-64.506

@<SCITEGIC>MOL_PROPERTY
W(SA)
SciTegic.value.DoubleValue
2.080

@<SCITEGIC>MOL_PROPERTY
Valence
SciTegic.value.DoubleValue
2.652

@<SCITEGIC>MOL_PROPERTY
Coulomb
SciTegic.value.DoubleValue
5.578

@<SCITEGIC>MOL_PROPERTY
VdW
SciTegic.value.DoubleValue
0.818

@<SCITEGIC>MOL_PROPERTY
VdW6
SciTegic.value.DoubleValue
-4.535

@<SCITEGIC>MOL_PROPERTY
VdW12
SciTegic.value.DoubleValue
5.352

@<SCITEGIC>MOL_PROPERTY
Bond
SciTegic.value.DoubleValue
0.063

@<SCITEGIC>MOL_PROPERTY
Angle
SciTegic.value.DoubleValue
2.579

@<SCITEGIC>MOL_PROPERTY
Pdih
SciTegic.value.DoubleValue
0.010

@<SCITEGIC>MOL_PROPERTY
Idih
SciTegic.value.DoubleValue
0.000

@<SCITEGIC>MOL_PROPERTY
Tether
SciTegic.value.DoubleValue
0.000

@<TRIPOS>MOLECULE
guest-s19_confgen4.mol2 : confsearch ligand conformer 927
          17          16           1
SMALL
USER_CHARGES
 
@<TRIPOS>ATOM
       1    C1      19.495472   18.785389   19.027575 C.2        1 MOL1         0.6173
       2    O1      19.992826   17.693060   18.827833 O.co2      1 MOL1        -0.6755
       3    O2      18.743975   19.322694   18.237406 O.co2      1 MOL1        -0.6755
       4    C2      19.808144   19.516919   20.285029 C.2        1 MOL1        -0.1504
       5    H1      19.331708   20.487713   20.400478 H          1 MOL1         0.0814
       6    C3      20.625210   19.039701   21.251285 C.2        1 MOL1        -0.1394
       7    H2      21.105064   18.066793   21.147418 H          1 MOL1         0.0817
       8    C4      20.935735   19.788351   22.530391 C.3        1 MOL1        -0.1849
       9    H3      21.075464   20.854953   22.308213 H          1 MOL1         0.0736
      10    H4      21.888469   19.435106   22.947295 H          1 MOL1         0.0736
      11    C5      19.820416   19.633349   23.587556 C.3        1 MOL1        -0.1866
      12    H5      20.048131   20.278626   24.447159 H          1 MOL1         0.0738
      13    H6      18.865988   19.987193   23.173684 H          1 MOL1         0.0738
      14    C6      19.667114   18.177251   24.076422 C.3        1 MOL1        -0.2879
      15    H7      20.606724   17.806317   24.506175 H          1 MOL1         0.0750
      16    H8      18.890784   18.109477   24.849484 H          1 MOL1         0.0750
      17    H9      19.380332   17.510908   23.252429 H          1 MOL1         0.0750
@<TRIPOS>BOND
    1     1     2    1
    2     1     3    2
    3     1     4    1
    4     4     5    1
    5     4     6    2
    6     6     7    1
    7     6     8    1
    8     8     9    1
    9     8    10    1
   10     8    11    1
   11    11    12    1
   12    11    13    1
   13    11    14    1
   14    14    15    1
   15    14    16    1
   16    14    17    1
@<TRIPOS>SUBSTRUCTURE
       1 MOL1            1 RESIDUE      1      MOL     
@<SCITEGIC>MOL_PROPERTY
VConf Rank
SciTegic.value.IntegerValue
927

@<SCITEGIC>MOL_PROPERTY
Conf_Id
SciTegic.value.IntegerValue
3

@<SCITEGIC>MOL_PROPERTY
Delta U+W
SciTegic.value.DoubleValue
0.531

@<SCITEGIC>MOL_PROPERTY
U+W
SciTegic.value.DoubleValue
-52.878

@<SCITEGIC>MOL_PROPERTY
Grad RMS
SciTegic.value.DoubleValue
0.000000

@<SCITEGIC>MOL_PROPERTY
U
SciTegic.value.DoubleValue
10.067

@<SCITEGIC>MOL_PROPERTY
W
SciTegic.value.DoubleValue
-62.945

@<SCITEGIC>MOL_PROPERTY
W(PB)
SciTegic.value.DoubleValue
-64.982

@<SCITEGIC>MOL_PROPERTY
W(SA)
SciTegic.value.DoubleValue
2.037

@<SCITEGIC>MOL_PROPERTY
Valence
SciTegic.value.DoubleValue
2.779

@<SCITEGIC>MOL_PROPERTY
Coulomb
SciTegic.value.DoubleValue
6.474

@<SCITEGIC>MOL_PROPERTY
VdW
SciTegic.value.DoubleValue
0.815

@<SCITEGIC>MOL_PROPERTY
VdW6
SciTegic.value.DoubleValue
-5.088

@<SCITEGIC>MOL_PROPERTY
VdW12
SciTegic.value.DoubleValue
5.902

@<SCITEGIC>MOL_PROPERTY
Bond
SciTegic.value.DoubleValue
0.078

@<SCITEGIC>MOL_PROPERTY
Angle
SciTegic.value.DoubleValue
2.651

@<SCITEGIC>MOL_PROPERTY
Pdih
SciTegic.value.DoubleValue
0.050

@<SCITEGIC>MOL_PROPERTY
Idih
SciTegic.value.DoubleValue
0.000

@<SCITEGIC>MOL_PROPERTY
Tether
SciTegic.value.DoubleValue
0.000

@<TRIPOS>MOLECULE
guest-s19_confgen4.mol2 : confsearch ligand conformer 928
          17          16           1
SMALL
USER_CHARGES
 
@<TRIPOS>ATOM
       1    C1      17.355632   19.425271   20.613498 C.2        1 MOL1         0.6173
       2    O1      16.301106   18.842323   20.774518 O.co2      1 MOL1        -0.6755
       3    O2      17.639153   20.004438   19.581690 O.co2      1 MOL1        -0.6755
       4    C2      18.324090   19.418731   21.743152 C.2        1 MOL1        -0.1504
       5    H1      18.007892   18.883218   22.635313 H          1 MOL1         0.0814
       6    C3      19.533376   20.023348   21.702521 C.2        1 MOL1        -0.1394
       7    H2      19.859559   20.558908   20.811287 H          1 MOL1         0.0817
       8    C4      20.518296   20.012595   22.853239 C.3        1 MOL1        -0.1849
       9    H3      20.015556   19.734720   23.789603 H          1 MOL1         0.0736
      10    H4      20.904204   21.029604   23.004163 H          1 MOL1         0.0736
      11    C5      21.706116   19.058804   22.599203 C.3        1 MOL1        -0.1866
      12    H5      22.207990   19.334435   21.661328 H          1 MOL1         0.0738
      13    H6      22.446571   19.187041   23.400752 H          1 MOL1         0.0738
      14    C6      21.276719   17.577130   22.543617 C.3        1 MOL1        -0.2879
      15    H7      20.583784   17.396440   21.711603 H          1 MOL1         0.0750
      16    H8      22.149789   16.927244   22.401264 H          1 MOL1         0.0750
      17    H9      20.779047   17.277474   23.475079 H          1 MOL1         0.0750
@<TRIPOS>BOND
    1     1     2    1
    2     1     3    2
    3     1     4    1
    4     4     5    1
    5     4     6    2
    6     6     7    1
    7     6     8    1
    8     8     9    1
    9     8    10    1
   10     8    11    1
   11    11    12    1
   12    11    13    1
   13    11    14    1
   14    14    15    1
   15    14    16    1
   16    14    17    1
@<TRIPOS>SUBSTRUCTURE
       1 MOL1            1 RESIDUE      1      MOL     
@<SCITEGIC>MOL_PROPERTY
VConf Rank
SciTegic.value.IntegerValue
928

@<SCITEGIC>MOL_PROPERTY
Conf_Id
SciTegic.value.IntegerValue
45

@<SCITEGIC>MOL_PROPERTY
Delta U+W
SciTegic.value.DoubleValue
0.562

@<SCITEGIC>MOL_PROPERTY
U+W
SciTegic.value.DoubleValue
-52.846

@<SCITEGIC>MOL_PROPERTY
Grad RMS
SciTegic.value.DoubleValue
0.000000

@<SCITEGIC>MOL_PROPERTY
U
SciTegic.value.DoubleValue
10.243

@<SCITEGIC>MOL_PROPERTY
W
SciTegic.value.DoubleValue
-63.089

@<SCITEGIC>MOL_PROPERTY
W(PB)
SciTegic.value.DoubleValue
-65.116

@<SCITEGIC>MOL_PROPERTY
W(SA)
SciTegic.value.DoubleValue
2.026

@<SCITEGIC>MOL_PROPERTY
Valence
SciTegic.value.DoubleValue
2.822

@<SCITEGIC>MOL_PROPERTY
Coulomb
SciTegic.value.DoubleValue
6.637

@<SCITEGIC>MOL_PROPERTY
VdW
SciTegic.value.DoubleValue
0.785

@<SCITEGIC>MOL_PROPERTY
VdW6
SciTegic.value.DoubleValue
-5.216

@<SCITEGIC>MOL_PROPERTY
VdW12
SciTegic.value.DoubleValue
6.001

@<SCITEGIC>MOL_PROPERTY
Bond
SciTegic.value.DoubleValue
0.080

@<SCITEGIC>MOL_PROPERTY
Angle
SciTegic.value.DoubleValue
2.678

@<SCITEGIC>MOL_PROPERTY
Pdih
SciTegic.value.DoubleValue
0.064

@<SCITEGIC>MOL_PROPERTY
Idih
SciTegic.value.DoubleValue
0.000

@<SCITEGIC>MOL_PROPERTY
Tether
SciTegic.value.DoubleValue
0.000

@<TRIPOS>MOLECULE
guest-s19_confgen4.mol2 : confsearch ligand conformer 929
          17          16           1
SMALL
USER_CHARGES
 
@<TRIPOS>ATOM
       1    C1      18.473870   16.124216   22.243256 C.2        1 MOL1         0.6173
       2    O1      18.049799   15.377661   21.382719 O.co2      1 MOL1        -0.6755
       3    O2      18.203594   15.994225   23.422428 O.co2      1 MOL1        -0.6755
       4    C2      19.361638   17.237469   21.811173 C.2        1 MOL1        -0.1504
       5    H1      19.563217   17.296899   20.744055 H          1 MOL1         0.0814
       6    C3      19.903021   18.142022   22.658389 C.2        1 MOL1        -0.1394
       7    H2      19.705729   18.093189   23.729119 H          1 MOL1         0.0817
       8    C4      20.803227   19.272614   22.210473 C.3        1 MOL1        -0.1849
       9    H3      21.468926   18.927172   21.407775 H          1 MOL1         0.0736
      10    H4      21.450660   19.579184   23.043079 H          1 MOL1         0.0736
      11    C5      19.983050   20.483864   21.721395 C.3        1 MOL1        -0.1866
      12    H5      19.337758   20.179780   20.885517 H          1 MOL1         0.0738
      13    H6      19.319536   20.828801   22.526587 H          1 MOL1         0.0738
      14    C6      20.893378   21.644346   21.271829 C.3        1 MOL1        -0.2879
      15    H7      21.527638   21.989387   22.098928 H          1 MOL1         0.0750
      16    H8      21.546175   21.334062   20.445382 H          1 MOL1         0.0750
      17    H9      20.292533   22.496146   20.927514 H          1 MOL1         0.0750
@<TRIPOS>BOND
    1     1     2    1
    2     1     3    2
    3     1     4    1
    4     4     5    1
    5     4     6    2
    6     6     7    1
    7     6     8    1
    8     8     9    1
    9     8    10    1
   10     8    11    1
   11    11    12    1
   12    11    13    1
   13    11    14    1
   14    14    15    1
   15    14    16    1
   16    14    17    1
@<TRIPOS>SUBSTRUCTURE
       1 MOL1            1 RESIDUE      1      MOL     
@<SCITEGIC>MOL_PROPERTY
VConf Rank
SciTegic.value.IntegerValue
929

@<SCITEGIC>MOL_PROPERTY
Conf_Id
SciTegic.value.IntegerValue
36

@<SCITEGIC>MOL_PROPERTY
Delta U+W
SciTegic.value.DoubleValue
0.000

@<SCITEGIC>MOL_PROPERTY
U+W
SciTegic.value.DoubleValue
-53.409

@<SCITEGIC>MOL_PROPERTY
Grad RMS
SciTegic.value.DoubleValue
0.000000

@<SCITEGIC>MOL_PROPERTY
U
SciTegic.value.DoubleValue
9.048

@<SCITEGIC>MOL_PROPERTY
W
SciTegic.value.DoubleValue
-62.457

@<SCITEGIC>MOL_PROPERTY
W(PB)
SciTegic.value.DoubleValue
-64.540

@<SCITEGIC>MOL_PROPERTY
W(SA)
SciTegic.value.DoubleValue
2.084

@<SCITEGIC>MOL_PROPERTY
Valence
SciTegic.value.DoubleValue
2.652

@<SCITEGIC>MOL_PROPERTY
Coulomb
SciTegic.value.DoubleValue
5.578

@<SCITEGIC>MOL_PROPERTY
VdW
SciTegic.value.DoubleValue
0.818

@<SCITEGIC>MOL_PROPERTY
VdW6
SciTegic.value.DoubleValue
-4.534

@<SCITEGIC>MOL_PROPERTY
VdW12
SciTegic.value.DoubleValue
5.352

@<SCITEGIC>MOL_PROPERTY
Bond
SciTegic.value.DoubleValue
0.063

@<SCITEGIC>MOL_PROPERTY
Angle
SciTegic.value.DoubleValue
2.579

@<SCITEGIC>MOL_PROPERTY
Pdih
SciTegic.value.DoubleValue
0.010

@<SCITEGIC>MOL_PROPERTY
Idih
SciTegic.value.DoubleValue
0.000

@<SCITEGIC>MOL_PROPERTY
Tether
SciTegic.value.DoubleValue
0.000

@<TRIPOS>MOLECULE
guest-s19_confgen4.mol2 : confsearch ligand conformer 930
          17          16           1
SMALL
USER_CHARGES
 
@<TRIPOS>ATOM
       1    C1      21.808188   16.489705   20.738840 C.2        1 MOL1         0.6173
       2    O1      21.139708   15.965257   19.867931 O.co2      1 MOL1        -0.6755
       3    O2      22.816987   15.984185   21.191035 O.co2      1 MOL1        -0.6755
       4    C2      21.393751   17.808492   21.289481 C.2        1 MOL1        -0.1504
       5    H1      22.034788   18.221675   22.064891 H          1 MOL1         0.0814
       6    C3      20.295377   18.484039   20.881688 C.2        1 MOL1        -0.1394
       7    H2      19.644967   18.078254   20.107039 H          1 MOL1         0.0817
       8    C4      19.879899   19.824043   21.448262 C.3        1 MOL1        -0.1849
       9    H3      19.271526   20.363057   20.709524 H          1 MOL1         0.0736
      10    H4      20.767175   20.444333   21.634776 H          1 MOL1         0.0736
      11    C5      19.077362   19.657266   22.754837 C.3        1 MOL1        -0.1866
      12    H5      18.189344   19.038354   22.565266 H          1 MOL1         0.0738
      13    H6      19.686182   19.121700   23.496502 H          1 MOL1         0.0738
      14    C6      18.642121   21.018439   23.333888 C.3        1 MOL1        -0.2879
      15    H7      18.004978   21.561929   22.623890 H          1 MOL1         0.0750
      16    H8      18.072956   20.879603   24.262277 H          1 MOL1         0.0750
      17    H9      19.514183   21.645402   23.561617 H          1 MOL1         0.0750
@<TRIPOS>BOND
    1     1     2    1
    2     1     3    2
    3     1     4    1
    4     4     5    1
    5     4     6    2
    6     6     7    1
    7     6     8    1
    8     8     9    1
    9     8    10    1
   10     8    11    1
   11    11    12    1
   12    11    13    1
   13    11    14    1
   14    14    15    1
   15    14    16    1
   16    14    17    1
@<TRIPOS>SUBSTRUCTURE
       1 MOL1            1 RESIDUE      1      MOL     
@<SCITEGIC>MOL_PROPERTY
VConf Rank
SciTegic.value.IntegerValue
930

@<SCITEGIC>MOL_PROPERTY
Conf_Id
SciTegic.value.IntegerValue
1

@<SCITEGIC>MOL_PROPERTY
Delta U+W
SciTegic.value.DoubleValue
0.030

@<SCITEGIC>MOL_PROPERTY
U+W
SciTegic.value.DoubleValue
-53.378

@<SCITEGIC>MOL_PROPERTY
Grad RMS
SciTegic.value.DoubleValue
0.000000

@<SCITEGIC>MOL_PROPERTY
U
SciTegic.value.DoubleValue
9.048

@<SCITEGIC>MOL_PROPERTY
W
SciTegic.value.DoubleValue
-62.426

@<SCITEGIC>MOL_PROPERTY
W(PB)
SciTegic.value.DoubleValue
-64.506

@<SCITEGIC>MOL_PROPERTY
W(SA)
SciTegic.value.DoubleValue
2.080

@<SCITEGIC>MOL_PROPERTY
Valence
SciTegic.value.DoubleValue
2.652

@<SCITEGIC>MOL_PROPERTY
Coulomb
SciTegic.value.DoubleValue
5.578

@<SCITEGIC>MOL_PROPERTY
VdW
SciTegic.value.DoubleValue
0.818

@<SCITEGIC>MOL_PROPERTY
VdW6
SciTegic.value.DoubleValue
-4.535

@<SCITEGIC>MOL_PROPERTY
VdW12
SciTegic.value.DoubleValue
5.352

@<SCITEGIC>MOL_PROPERTY
Bond
SciTegic.value.DoubleValue
0.063

@<SCITEGIC>MOL_PROPERTY
Angle
SciTegic.value.DoubleValue
2.579

@<SCITEGIC>MOL_PROPERTY
Pdih
SciTegic.value.DoubleValue
0.010

@<SCITEGIC>MOL_PROPERTY
Idih
SciTegic.value.DoubleValue
0.000

@<SCITEGIC>MOL_PROPERTY
Tether
SciTegic.value.DoubleValue
0.000

@<TRIPOS>MOLECULE
guest-s19_confgen4.mol2 : confsearch ligand conformer 931
          17          16           1
SMALL
USER_CHARGES
 
@<TRIPOS>ATOM
       1    C1      17.764487   17.881290   20.326255 C.2        1 MOL1         0.6173
       2    O1      16.969995   17.566950   21.192520 O.co2      1 MOL1        -0.6755
       3    O2      17.464902   17.951535   19.150192 O.co2      1 MOL1        -0.6755
       4    C2      19.171007   18.194738   20.697122 C.2        1 MOL1        -0.1504
       5    H1      19.829131   18.467405   19.875364 H          1 MOL1         0.0814
       6    C3      19.642260   18.158489   21.964242 C.2        1 MOL1        -0.1394
       7    H2      18.990740   17.889892   22.795492 H          1 MOL1         0.0817
       8    C4      21.074322   18.482607   22.334594 C.3        1 MOL1        -0.1849
       9    H3      21.754584   18.050534   21.588213 H          1 MOL1         0.0736
      10    H4      21.328561   18.007733   23.291752 H          1 MOL1         0.0736
      11    C5      21.326963   20.003373   22.429488 C.3        1 MOL1        -0.1866
      12    H5      22.398668   20.179770   22.595272 H          1 MOL1         0.0738
      13    H6      21.074612   20.481198   21.472707 H          1 MOL1         0.0738
      14    C6      20.524359   20.666263   23.569275 C.3        1 MOL1        -0.2879
      15    H7      20.770190   20.212415   24.538158 H          1 MOL1         0.0750
      16    H8      20.752930   21.738201   23.629371 H          1 MOL1         0.0750
      17    H9      19.443847   20.561405   23.405815 H          1 MOL1         0.0750
@<TRIPOS>BOND
    1     1     2    1
    2     1     3    2
    3     1     4    1
    4     4     5    1
    5     4     6    2
    6     6     7    1
    7     6     8    1
    8     8     9    1
    9     8    10    1
   10     8    11    1
   11    11    12    1
   12    11    13    1
   13    11    14    1
   14    14    15    1
   15    14    16    1
   16    14    17    1
@<TRIPOS>SUBSTRUCTURE
       1 MOL1            1 RESIDUE      1      MOL     
@<SCITEGIC>MOL_PROPERTY
VConf Rank
SciTegic.value.IntegerValue
931

@<SCITEGIC>MOL_PROPERTY
Conf_Id
SciTegic.value.IntegerValue
3

@<SCITEGIC>MOL_PROPERTY
Delta U+W
SciTegic.value.DoubleValue
0.531

@<SCITEGIC>MOL_PROPERTY
U+W
SciTegic.value.DoubleValue
-52.878

@<SCITEGIC>MOL_PROPERTY
Grad RMS
SciTegic.value.DoubleValue
0.000000

@<SCITEGIC>MOL_PROPERTY
U
SciTegic.value.DoubleValue
10.067

@<SCITEGIC>MOL_PROPERTY
W
SciTegic.value.DoubleValue
-62.945

@<SCITEGIC>MOL_PROPERTY
W(PB)
SciTegic.value.DoubleValue
-64.982

@<SCITEGIC>MOL_PROPERTY
W(SA)
SciTegic.value.DoubleValue
2.037

@<SCITEGIC>MOL_PROPERTY
Valence
SciTegic.value.DoubleValue
2.779

@<SCITEGIC>MOL_PROPERTY
Coulomb
SciTegic.value.DoubleValue
6.474

@<SCITEGIC>MOL_PROPERTY
VdW
SciTegic.value.DoubleValue
0.815

@<SCITEGIC>MOL_PROPERTY
VdW6
SciTegic.value.DoubleValue
-5.088

@<SCITEGIC>MOL_PROPERTY
VdW12
SciTegic.value.DoubleValue
5.902

@<SCITEGIC>MOL_PROPERTY
Bond
SciTegic.value.DoubleValue
0.078

@<SCITEGIC>MOL_PROPERTY
Angle
SciTegic.value.DoubleValue
2.651

@<SCITEGIC>MOL_PROPERTY
Pdih
SciTegic.value.DoubleValue
0.050

@<SCITEGIC>MOL_PROPERTY
Idih
SciTegic.value.DoubleValue
0.000

@<SCITEGIC>MOL_PROPERTY
Tether
SciTegic.value.DoubleValue
0.000

@<TRIPOS>MOLECULE
guest-s19_confgen4.mol2 : confsearch ligand conformer 932
          17          16           1
SMALL
USER_CHARGES
 
@<TRIPOS>ATOM
       1    C1      22.086063   21.247395   21.838495 C.2        1 MOL1         0.6173
       2    O1      22.543089   21.982161   22.692326 O.co2      1 MOL1        -0.6755
       3    O2      22.151160   21.496313   20.649273 O.co2      1 MOL1        -0.6755
       4    C2      21.425956   19.993450   22.292317 C.2        1 MOL1        -0.1504
       5    H1      21.402467   19.832675   23.367634 H          1 MOL1         0.0814
       6    C3      20.872993   19.087047   21.454313 C.2        1 MOL1        -0.1394
       7    H2      20.888891   19.242110   20.375786 H          1 MOL1         0.0817
       8    C4      20.199222   17.812704   21.919521 C.3        1 MOL1        -0.1849
       9    H3      20.485909   17.579459   22.954000 H          1 MOL1         0.0736
      10    H4      20.556846   16.974133   21.307220 H          1 MOL1         0.0736
      11    C5      18.660501   17.890479   21.812483 C.3        1 MOL1        -0.1866
      12    H5      18.372941   18.126382   20.778502 H          1 MOL1         0.0738
      13    H6      18.235062   16.903112   22.038993 H          1 MOL1         0.0738
      14    C6      18.050258   18.933376   22.773108 C.3        1 MOL1        -0.2879
      15    H7      18.403476   19.945235   22.535556 H          1 MOL1         0.0750
      16    H8      16.955168   18.933222   22.697977 H          1 MOL1         0.0750
      17    H9      18.318877   18.712469   23.814327 H          1 MOL1         0.0750
@<TRIPOS>BOND
    1     1     2    1
    2     1     3    2
    3     1     4    1
    4     4     5    1
    5     4     6    2
    6     6     7    1
    7     6     8    1
    8     8     9    1
    9     8    10    1
   10     8    11    1
   11    11    12    1
   12    11    13    1
   13    11    14    1
   14    14    15    1
   15    14    16    1
   16    14    17    1
@<TRIPOS>SUBSTRUCTURE
       1 MOL1            1 RESIDUE      1      MOL     
@<SCITEGIC>MOL_PROPERTY
VConf Rank
SciTegic.value.IntegerValue
932

@<SCITEGIC>MOL_PROPERTY
Conf_Id
SciTegic.value.IntegerValue
45

@<SCITEGIC>MOL_PROPERTY
Delta U+W
SciTegic.value.DoubleValue
0.562

@<SCITEGIC>MOL_PROPERTY
U+W
SciTegic.value.DoubleValue
-52.846

@<SCITEGIC>MOL_PROPERTY
Grad RMS
SciTegic.value.DoubleValue
0.000000

@<SCITEGIC>MOL_PROPERTY
U
SciTegic.value.DoubleValue
10.243

@<SCITEGIC>MOL_PROPERTY
W
SciTegic.value.DoubleValue
-63.089

@<SCITEGIC>MOL_PROPERTY
W(PB)
SciTegic.value.DoubleValue
-65.116

@<SCITEGIC>MOL_PROPERTY
W(SA)
SciTegic.value.DoubleValue
2.026

@<SCITEGIC>MOL_PROPERTY
Valence
SciTegic.value.DoubleValue
2.822

@<SCITEGIC>MOL_PROPERTY
Coulomb
SciTegic.value.DoubleValue
6.637

@<SCITEGIC>MOL_PROPERTY
VdW
SciTegic.value.DoubleValue
0.785

@<SCITEGIC>MOL_PROPERTY
VdW6
SciTegic.value.DoubleValue
-5.216

@<SCITEGIC>MOL_PROPERTY
VdW12
SciTegic.value.DoubleValue
6.001

@<SCITEGIC>MOL_PROPERTY
Bond
SciTegic.value.DoubleValue
0.080

@<SCITEGIC>MOL_PROPERTY
Angle
SciTegic.value.DoubleValue
2.678

@<SCITEGIC>MOL_PROPERTY
Pdih
SciTegic.value.DoubleValue
0.064

@<SCITEGIC>MOL_PROPERTY
Idih
SciTegic.value.DoubleValue
0.000

@<SCITEGIC>MOL_PROPERTY
Tether
SciTegic.value.DoubleValue
0.000

@<TRIPOS>MOLECULE
guest-s19_confgen4.mol2 : confsearch ligand conformer 933
          17          16           1
SMALL
USER_CHARGES
 
@<TRIPOS>ATOM
       1    C1      19.046170   17.218807   19.291416 C.2        1 MOL1         0.6173
       2    O1      19.628580   16.292236   18.762295 O.co2      1 MOL1        -0.6755
       3    O2      18.082712   17.766610   18.789366 O.co2      1 MOL1        -0.6755
       4    C2      19.551434   17.684732   20.611182 C.2        1 MOL1        -0.1504
       5    H1      20.414998   17.152551   21.003546 H          1 MOL1         0.0814
       6    C3      19.002816   18.703472   21.311377 C.2        1 MOL1        -0.1394
       7    H2      18.138906   19.245029   20.926475 H          1 MOL1         0.0817
       8    C4      19.524180   19.172538   22.652046 C.3        1 MOL1        -0.1849
       9    H3      19.843105   18.310380   23.253527 H          1 MOL1         0.0736
      10    H4      18.714704   19.661147   23.210971 H          1 MOL1         0.0736
      11    C5      20.701702   20.154597   22.484666 C.3        1 MOL1        -0.1866
      12    H5      21.514217   19.665848   21.929236 H          1 MOL1         0.0738
      13    H6      20.379703   21.016978   21.884511 H          1 MOL1         0.0738
      14    C6      21.232851   20.644804   23.846688 C.3        1 MOL1        -0.2879
      15    H7      20.447823   21.166059   24.410120 H          1 MOL1         0.0750
      16    H8      21.590359   19.803479   24.454796 H          1 MOL1         0.0750
      17    H9      22.069492   21.341770   23.707400 H          1 MOL1         0.0750
@<TRIPOS>BOND
    1     1     2    1
    2     1     3    2
    3     1     4    1
    4     4     5    1
    5     4     6    2
    6     6     7    1
    7     6     8    1
    8     8     9    1
    9     8    10    1
   10     8    11    1
   11    11    12    1
   12    11    13    1
   13    11    14    1
   14    14    15    1
   15    14    16    1
   16    14    17    1
@<TRIPOS>SUBSTRUCTURE
       1 MOL1            1 RESIDUE      1      MOL     
@<SCITEGIC>MOL_PROPERTY
VConf Rank
SciTegic.value.IntegerValue
933

@<SCITEGIC>MOL_PROPERTY
Conf_Id
SciTegic.value.IntegerValue
36

@<SCITEGIC>MOL_PROPERTY
Delta U+W
SciTegic.value.DoubleValue
0.000

@<SCITEGIC>MOL_PROPERTY
U+W
SciTegic.value.DoubleValue
-53.409

@<SCITEGIC>MOL_PROPERTY
Grad RMS
SciTegic.value.DoubleValue
0.000000

@<SCITEGIC>MOL_PROPERTY
U
SciTegic.value.DoubleValue
9.048

@<SCITEGIC>MOL_PROPERTY
W
SciTegic.value.DoubleValue
-62.457

@<SCITEGIC>MOL_PROPERTY
W(PB)
SciTegic.value.DoubleValue
-64.540

@<SCITEGIC>MOL_PROPERTY
W(SA)
SciTegic.value.DoubleValue
2.084

@<SCITEGIC>MOL_PROPERTY
Valence
SciTegic.value.DoubleValue
2.652

@<SCITEGIC>MOL_PROPERTY
Coulomb
SciTegic.value.DoubleValue
5.578

@<SCITEGIC>MOL_PROPERTY
VdW
SciTegic.value.DoubleValue
0.818

@<SCITEGIC>MOL_PROPERTY
VdW6
SciTegic.value.DoubleValue
-4.534

@<SCITEGIC>MOL_PROPERTY
VdW12
SciTegic.value.DoubleValue
5.352

@<SCITEGIC>MOL_PROPERTY
Bond
SciTegic.value.DoubleValue
0.063

@<SCITEGIC>MOL_PROPERTY
Angle
SciTegic.value.DoubleValue
2.579

@<SCITEGIC>MOL_PROPERTY
Pdih
SciTegic.value.DoubleValue
0.010

@<SCITEGIC>MOL_PROPERTY
Idih
SciTegic.value.DoubleValue
0.000

@<SCITEGIC>MOL_PROPERTY
Tether
SciTegic.value.DoubleValue
0.000

@<TRIPOS>MOLECULE
guest-s19_confgen4.mol2 : confsearch ligand conformer 934
          17          16           1
SMALL
USER_CHARGES
 
@<TRIPOS>ATOM
       1    C1      20.280019   15.742431   21.633225 C.2        1 MOL1         0.6173
       2    O1      19.146958   15.301358   21.588270 O.co2      1 MOL1        -0.6755
       3    O2      21.259019   15.034496   21.767736 O.co2      1 MOL1        -0.6755
       4    C2      20.502682   17.209267   21.519312 C.2        1 MOL1        -0.1504
       5    H1      21.538598   17.537165   21.566964 H          1 MOL1         0.0814
       6    C3      19.508110   18.113058   21.367410 C.2        1 MOL1        -0.1394
       7    H2      18.466547   17.795671   21.320644 H          1 MOL1         0.0817
       8    C4      19.743033   19.603437   21.254193 C.3        1 MOL1        -0.1849
       9    H3      18.906442   20.067724   20.714804 H          1 MOL1         0.0736
      10    H4      20.645195   19.797207   20.658070 H          1 MOL1         0.0736
      11    C5      19.887175   20.256766   22.643942 C.3        1 MOL1        -0.1866
      12    H5      18.982795   20.063432   23.237479 H          1 MOL1         0.0738
      13    H6      20.726443   19.796151   23.183407 H          1 MOL1         0.0738
      14    C6      20.117689   21.777637   22.537450 C.3        1 MOL1        -0.2879
      15    H7      19.276921   22.267930   22.029365 H          1 MOL1         0.0750
      16    H8      20.217711   22.224436   23.535195 H          1 MOL1         0.0750
      17    H9      21.034153   21.997565   21.974279 H          1 MOL1         0.0750
@<TRIPOS>BOND
    1     1     2    1
    2     1     3    2
    3     1     4    1
    4     4     5    1
    5     4     6    2
    6     6     7    1
    7     6     8    1
    8     8     9    1
    9     8    10    1
   10     8    11    1
   11    11    12    1
   12    11    13    1
   13    11    14    1
   14    14    15    1
   15    14    16    1
   16    14    17    1
@<TRIPOS>SUBSTRUCTURE
       1 MOL1            1 RESIDUE      1      MOL     
@<SCITEGIC>MOL_PROPERTY
VConf Rank
SciTegic.value.IntegerValue
934

@<SCITEGIC>MOL_PROPERTY
Conf_Id
SciTegic.value.IntegerValue
1

@<SCITEGIC>MOL_PROPERTY
Delta U+W
SciTegic.value.DoubleValue
0.030

@<SCITEGIC>MOL_PROPERTY
U+W
SciTegic.value.DoubleValue
-53.378

@<SCITEGIC>MOL_PROPERTY
Grad RMS
SciTegic.value.DoubleValue
0.000000

@<SCITEGIC>MOL_PROPERTY
U
SciTegic.value.DoubleValue
9.048

@<SCITEGIC>MOL_PROPERTY
W
SciTegic.value.DoubleValue
-62.426

@<SCITEGIC>MOL_PROPERTY
W(PB)
SciTegic.value.DoubleValue
-64.506

@<SCITEGIC>MOL_PROPERTY
W(SA)
SciTegic.value.DoubleValue
2.080

@<SCITEGIC>MOL_PROPERTY
Valence
SciTegic.value.DoubleValue
2.652

@<SCITEGIC>MOL_PROPERTY
Coulomb
SciTegic.value.DoubleValue
5.578

@<SCITEGIC>MOL_PROPERTY
VdW
SciTegic.value.DoubleValue
0.818

@<SCITEGIC>MOL_PROPERTY
VdW6
SciTegic.value.DoubleValue
-4.535

@<SCITEGIC>MOL_PROPERTY
VdW12
SciTegic.value.DoubleValue
5.352

@<SCITEGIC>MOL_PROPERTY
Bond
SciTegic.value.DoubleValue
0.063

@<SCITEGIC>MOL_PROPERTY
Angle
SciTegic.value.DoubleValue
2.579

@<SCITEGIC>MOL_PROPERTY
Pdih
SciTegic.value.DoubleValue
0.010

@<SCITEGIC>MOL_PROPERTY
Idih
SciTegic.value.DoubleValue
0.000

@<SCITEGIC>MOL_PROPERTY
Tether
SciTegic.value.DoubleValue
0.000

@<TRIPOS>MOLECULE
guest-s19_confgen4.mol2 : confsearch ligand conformer 935
          17          16           1
SMALL
USER_CHARGES
 
@<TRIPOS>ATOM
       1    C1      19.293703   19.943816   19.178934 C.2        1 MOL1         0.6173
       2    O1      18.294725   20.604819   19.392378 O.co2      1 MOL1        -0.6755
       3    O2      19.902113   19.988266   18.127424 O.co2      1 MOL1        -0.6755
       4    C2      19.810924   19.031143   20.234207 C.2        1 MOL1        -0.1504
       5    H1      20.706125   18.468967   19.978604 H          1 MOL1         0.0814
       6    C3      19.236743   18.882335   21.449591 C.2        1 MOL1        -0.1394
       7    H2      18.341571   19.443186   21.717381 H          1 MOL1         0.0817
       8    C4      19.771162   17.954268   22.520153 C.3        1 MOL1        -0.1849
       9    H3      20.102690   17.013543   22.060096 H          1 MOL1         0.0736
      10    H4      18.966037   17.686862   23.217693 H          1 MOL1         0.0736
      11    C5      20.947639   18.576769   23.303705 C.3        1 MOL1        -0.1866
      12    H5      21.360417   17.824328   23.989708 H          1 MOL1         0.0738
      13    H6      21.755426   18.844273   22.608472 H          1 MOL1         0.0738
      14    C6      20.525978   19.820980   24.114171 C.3        1 MOL1        -0.2879
      15    H7      19.727128   19.574071   24.825522 H          1 MOL1         0.0750
      16    H8      21.376642   20.216911   24.683834 H          1 MOL1         0.0750
      17    H9      20.162536   20.619262   23.453961 H          1 MOL1         0.0750
@<TRIPOS>BOND
    1     1     2    1
    2     1     3    2
    3     1     4    1
    4     4     5    1
    5     4     6    2
    6     6     7    1
    7     6     8    1
    8     8     9    1
    9     8    10    1
   10     8    11    1
   11    11    12    1
   12    11    13    1
   13    11    14    1
   14    14    15    1
   15    14    16    1
   16    14    17    1
@<TRIPOS>SUBSTRUCTURE
       1 MOL1            1 RESIDUE      1      MOL     
@<SCITEGIC>MOL_PROPERTY
VConf Rank
SciTegic.value.IntegerValue
935

@<SCITEGIC>MOL_PROPERTY
Conf_Id
SciTegic.value.IntegerValue
3

@<SCITEGIC>MOL_PROPERTY
Delta U+W
SciTegic.value.DoubleValue
0.531

@<SCITEGIC>MOL_PROPERTY
U+W
SciTegic.value.DoubleValue
-52.878

@<SCITEGIC>MOL_PROPERTY
Grad RMS
SciTegic.value.DoubleValue
0.000000

@<SCITEGIC>MOL_PROPERTY
U
SciTegic.value.DoubleValue
10.067

@<SCITEGIC>MOL_PROPERTY
W
SciTegic.value.DoubleValue
-62.945

@<SCITEGIC>MOL_PROPERTY
W(PB)
SciTegic.value.DoubleValue
-64.982

@<SCITEGIC>MOL_PROPERTY
W(SA)
SciTegic.value.DoubleValue
2.037

@<SCITEGIC>MOL_PROPERTY
Valence
SciTegic.value.DoubleValue
2.779

@<SCITEGIC>MOL_PROPERTY
Coulomb
SciTegic.value.DoubleValue
6.474

@<SCITEGIC>MOL_PROPERTY
VdW
SciTegic.value.DoubleValue
0.815

@<SCITEGIC>MOL_PROPERTY
VdW6
SciTegic.value.DoubleValue
-5.088

@<SCITEGIC>MOL_PROPERTY
VdW12
SciTegic.value.DoubleValue
5.902

@<SCITEGIC>MOL_PROPERTY
Bond
SciTegic.value.DoubleValue
0.078

@<SCITEGIC>MOL_PROPERTY
Angle
SciTegic.value.DoubleValue
2.651

@<SCITEGIC>MOL_PROPERTY
Pdih
SciTegic.value.DoubleValue
0.050

@<SCITEGIC>MOL_PROPERTY
Idih
SciTegic.value.DoubleValue
0.000

@<SCITEGIC>MOL_PROPERTY
Tether
SciTegic.value.DoubleValue
0.000

@<TRIPOS>MOLECULE
guest-s19_confgen4.mol2 : confsearch ligand conformer 936
          17          16           1
SMALL
USER_CHARGES
 
@<TRIPOS>ATOM
       1    C1      19.580205   16.563478   23.666969 C.2        1 MOL1         0.6173
       2    O1      19.908863   16.305771   24.808613 O.co2      1 MOL1        -0.6755
       3    O2      19.341662   15.704743   22.838646 O.co2      1 MOL1        -0.6755
       4    C2      19.468622   17.998902   23.291228 C.2        1 MOL1        -0.1504
       5    H1      19.695462   18.713879   24.078665 H          1 MOL1         0.0814
       6    C3      19.115834   18.429985   22.058632 C.2        1 MOL1        -0.1394
       7    H2      18.890462   17.720410   21.262875 H          1 MOL1         0.0817
       8    C4      19.005780   19.892050   21.678381 C.3        1 MOL1        -0.1849
       9    H3      18.943653   20.521331   22.576648 H          1 MOL1         0.0736
      10    H4      18.067751   20.049986   21.129594 H          1 MOL1         0.0736
      11    C5      20.185688   20.359193   20.798175 C.3        1 MOL1        -0.1866
      12    H5      20.250183   19.728525   19.900647 H          1 MOL1         0.0738
      13    H6      19.989476   21.382400   20.449254 H          1 MOL1         0.0738
      14    C6      21.533759   20.334024   21.549774 C.3        1 MOL1        -0.2879
      15    H7      21.795939   19.313876   21.858988 H          1 MOL1         0.0750
      16    H8      22.341057   20.708566   20.907236 H          1 MOL1         0.0750
      17    H9      21.494483   20.964603   22.447505 H          1 MOL1         0.0750
@<TRIPOS>BOND
    1     1     2    1
    2     1     3    2
    3     1     4    1
    4     4     5    1
    5     4     6    2
    6     6     7    1
    7     6     8    1
    8     8     9    1
    9     8    10    1
   10     8    11    1
   11    11    12    1
   12    11    13    1
   13    11    14    1
   14    14    15    1
   15    14    16    1
   16    14    17    1
@<TRIPOS>SUBSTRUCTURE
       1 MOL1            1 RESIDUE      1      MOL     
@<SCITEGIC>MOL_PROPERTY
VConf Rank
SciTegic.value.IntegerValue
936

@<SCITEGIC>MOL_PROPERTY
Conf_Id
SciTegic.value.IntegerValue
45

@<SCITEGIC>MOL_PROPERTY
Delta U+W
SciTegic.value.DoubleValue
0.562

@<SCITEGIC>MOL_PROPERTY
U+W
SciTegic.value.DoubleValue
-52.846

@<SCITEGIC>MOL_PROPERTY
Grad RMS
SciTegic.value.DoubleValue
0.000000

@<SCITEGIC>MOL_PROPERTY
U
SciTegic.value.DoubleValue
10.243

@<SCITEGIC>MOL_PROPERTY
W
SciTegic.value.DoubleValue
-63.089

@<SCITEGIC>MOL_PROPERTY
W(PB)
SciTegic.value.DoubleValue
-65.116

@<SCITEGIC>MOL_PROPERTY
W(SA)
SciTegic.value.DoubleValue
2.026

@<SCITEGIC>MOL_PROPERTY
Valence
SciTegic.value.DoubleValue
2.822

@<SCITEGIC>MOL_PROPERTY
Coulomb
SciTegic.value.DoubleValue
6.637

@<SCITEGIC>MOL_PROPERTY
VdW
SciTegic.value.DoubleValue
0.785

@<SCITEGIC>MOL_PROPERTY
VdW6
SciTegic.value.DoubleValue
-5.216

@<SCITEGIC>MOL_PROPERTY
VdW12
SciTegic.value.DoubleValue
6.001

@<SCITEGIC>MOL_PROPERTY
Bond
SciTegic.value.DoubleValue
0.080

@<SCITEGIC>MOL_PROPERTY
Angle
SciTegic.value.DoubleValue
2.678

@<SCITEGIC>MOL_PROPERTY
Pdih
SciTegic.value.DoubleValue
0.064

@<SCITEGIC>MOL_PROPERTY
Idih
SciTegic.value.DoubleValue
0.000

@<SCITEGIC>MOL_PROPERTY
Tether
SciTegic.value.DoubleValue
0.000

@<TRIPOS>MOLECULE
guest-s19_confgen4.mol2 : confsearch ligand conformer 937
          17          16           1
SMALL
USER_CHARGES
 
@<TRIPOS>ATOM
       1    C1      18.101728   20.108339   19.302164 C.2        1 MOL1         0.6173
       2    O1      16.893771   20.074282   19.170317 O.co2      1 MOL1        -0.6755
       3    O2      18.861893   20.315563   18.375017 O.co2      1 MOL1        -0.6755
       4    C2      18.650921   19.885326   20.667014 C.2        1 MOL1        -0.1504
       5    H1      17.917798   19.705878   21.450108 H          1 MOL1         0.0814
       6    C3      19.971463   19.894312   20.958859 C.2        1 MOL1        -0.1394
       7    H2      20.714672   20.070750   20.181502 H          1 MOL1         0.0817
       8    C4      20.521853   19.664441   22.349351 C.3        1 MOL1        -0.1849
       9    H3      19.875306   20.148521   23.093967 H          1 MOL1         0.0736
      10    H4      21.508798   20.138360   22.437253 H          1 MOL1         0.0736
      11    C5      20.642147   18.159339   22.664332 C.3        1 MOL1        -0.1866
      12    H5      19.654697   17.684423   22.580926 H          1 MOL1         0.0738
      13    H6      21.290882   17.677789   21.919469 H          1 MOL1         0.0738
      14    C6      21.211378   17.916457   24.076603 C.3        1 MOL1        -0.2879
      15    H7      22.213185   18.354290   24.177183 H          1 MOL1         0.0750
      16    H8      20.563806   18.362000   24.843138 H          1 MOL1         0.0750
      17    H9      21.289451   16.840968   24.282418 H          1 MOL1         0.0750
@<TRIPOS>BOND
    1     1     2    1
    2     1     3    2
    3     1     4    1
    4     4     5    1
    5     4     6    2
    6     6     7    1
    7     6     8    1
    8     8     9    1
    9     8    10    1
   10     8    11    1
   11    11    12    1
   12    11    13    1
   13    11    14    1
   14    14    15    1
   15    14    16    1
   16    14    17    1
@<TRIPOS>SUBSTRUCTURE
       1 MOL1            1 RESIDUE      1      MOL     
@<SCITEGIC>MOL_PROPERTY
VConf Rank
SciTegic.value.IntegerValue
937

@<SCITEGIC>MOL_PROPERTY
Conf_Id
SciTegic.value.IntegerValue
36

@<SCITEGIC>MOL_PROPERTY
Delta U+W
SciTegic.value.DoubleValue
0.000

@<SCITEGIC>MOL_PROPERTY
U+W
SciTegic.value.DoubleValue
-53.409

@<SCITEGIC>MOL_PROPERTY
Grad RMS
SciTegic.value.DoubleValue
0.000000

@<SCITEGIC>MOL_PROPERTY
U
SciTegic.value.DoubleValue
9.048

@<SCITEGIC>MOL_PROPERTY
W
SciTegic.value.DoubleValue
-62.457

@<SCITEGIC>MOL_PROPERTY
W(PB)
SciTegic.value.DoubleValue
-64.540

@<SCITEGIC>MOL_PROPERTY
W(SA)
SciTegic.value.DoubleValue
2.084

@<SCITEGIC>MOL_PROPERTY
Valence
SciTegic.value.DoubleValue
2.652

@<SCITEGIC>MOL_PROPERTY
Coulomb
SciTegic.value.DoubleValue
5.578

@<SCITEGIC>MOL_PROPERTY
VdW
SciTegic.value.DoubleValue
0.818

@<SCITEGIC>MOL_PROPERTY
VdW6
SciTegic.value.DoubleValue
-4.534

@<SCITEGIC>MOL_PROPERTY
VdW12
SciTegic.value.DoubleValue
5.352

@<SCITEGIC>MOL_PROPERTY
Bond
SciTegic.value.DoubleValue
0.063

@<SCITEGIC>MOL_PROPERTY
Angle
SciTegic.value.DoubleValue
2.579

@<SCITEGIC>MOL_PROPERTY
Pdih
SciTegic.value.DoubleValue
0.010

@<SCITEGIC>MOL_PROPERTY
Idih
SciTegic.value.DoubleValue
0.000

@<SCITEGIC>MOL_PROPERTY
Tether
SciTegic.value.DoubleValue
0.000

@<TRIPOS>MOLECULE
guest-s19_confgen4.mol2 : confsearch ligand conformer 938
          17          16           1
SMALL
USER_CHARGES
 
@<TRIPOS>ATOM
       1    C1      23.106059   18.495756   23.122021 C.2        1 MOL1         0.6173
       2    O1      23.433037   17.393315   22.724399 O.co2      1 MOL1        -0.6755
       3    O2      23.733606   19.106129   23.965428 O.co2      1 MOL1        -0.6755
       4    C2      21.889171   19.146623   22.565498 C.2        1 MOL1        -0.1504
       5    H1      21.653235   20.130893   22.963562 H          1 MOL1         0.0814
       6    C3      21.096925   18.584169   21.624712 C.2        1 MOL1        -0.1394
       7    H2      21.322814   17.597540   21.220594 H          1 MOL1         0.0817
       8    C4      19.859931   19.252145   21.065346 C.3        1 MOL1        -0.1849
       9    H3      19.648469   18.854702   20.063493 H          1 MOL1         0.0736
      10    H4      20.037521   20.329333   20.943132 H          1 MOL1         0.0736
      11    C5      18.637694   19.026422   21.978693 C.3        1 MOL1        -0.1866
      12    H5      18.460790   17.948404   22.097645 H          1 MOL1         0.0738
      13    H6      18.846090   19.427219   22.980438 H          1 MOL1         0.0738
      14    C6      17.370441   19.696479   21.410697 C.3        1 MOL1        -0.2879
      15    H7      17.121010   19.290589   20.421522 H          1 MOL1         0.0750
      16    H8      16.512227   19.525144   22.073451 H          1 MOL1         0.0750
      17    H9      17.510472   20.780873   21.311113 H          1 MOL1         0.0750
@<TRIPOS>BOND
    1     1     2    1
    2     1     3    2
    3     1     4    1
    4     4     5    1
    5     4     6    2
    6     6     7    1
    7     6     8    1
    8     8     9    1
    9     8    10    1
   10     8    11    1
   11    11    12    1
   12    11    13    1
   13    11    14    1
   14    14    15    1
   15    14    16    1
   16    14    17    1
@<TRIPOS>SUBSTRUCTURE
       1 MOL1            1 RESIDUE      1      MOL     
@<SCITEGIC>MOL_PROPERTY
VConf Rank
SciTegic.value.IntegerValue
938

@<SCITEGIC>MOL_PROPERTY
Conf_Id
SciTegic.value.IntegerValue
1

@<SCITEGIC>MOL_PROPERTY
Delta U+W
SciTegic.value.DoubleValue
0.030

@<SCITEGIC>MOL_PROPERTY
U+W
SciTegic.value.DoubleValue
-53.378

@<SCITEGIC>MOL_PROPERTY
Grad RMS
SciTegic.value.DoubleValue
0.000000

@<SCITEGIC>MOL_PROPERTY
U
SciTegic.value.DoubleValue
9.048

@<SCITEGIC>MOL_PROPERTY
W
SciTegic.value.DoubleValue
-62.426

@<SCITEGIC>MOL_PROPERTY
W(PB)
SciTegic.value.DoubleValue
-64.506

@<SCITEGIC>MOL_PROPERTY
W(SA)
SciTegic.value.DoubleValue
2.080

@<SCITEGIC>MOL_PROPERTY
Valence
SciTegic.value.DoubleValue
2.652

@<SCITEGIC>MOL_PROPERTY
Coulomb
SciTegic.value.DoubleValue
5.578

@<SCITEGIC>MOL_PROPERTY
VdW
SciTegic.value.DoubleValue
0.818

@<SCITEGIC>MOL_PROPERTY
VdW6
SciTegic.value.DoubleValue
-4.535

@<SCITEGIC>MOL_PROPERTY
VdW12
SciTegic.value.DoubleValue
5.352

@<SCITEGIC>MOL_PROPERTY
Bond
SciTegic.value.DoubleValue
0.063

@<SCITEGIC>MOL_PROPERTY
Angle
SciTegic.value.DoubleValue
2.579

@<SCITEGIC>MOL_PROPERTY
Pdih
SciTegic.value.DoubleValue
0.010

@<SCITEGIC>MOL_PROPERTY
Idih
SciTegic.value.DoubleValue
0.000

@<SCITEGIC>MOL_PROPERTY
Tether
SciTegic.value.DoubleValue
0.000

@<TRIPOS>MOLECULE
guest-s19_confgen4.mol2 : confsearch ligand conformer 939
          17          16           1
SMALL
USER_CHARGES
 
@<TRIPOS>ATOM
       1    C1      19.762141   22.058389   22.832294 C.2        1 MOL1         0.6173
       2    O1      19.862788   22.582130   21.738673 O.co2      1 MOL1        -0.6755
       3    O2      19.340313   22.646300   23.809142 O.co2      1 MOL1        -0.6755
       4    C2      20.170001   20.638203   23.007830 C.2        1 MOL1        -0.1504
       5    H1      20.055463   20.231809   24.010070 H          1 MOL1         0.0814
       6    C3      20.654309   19.864350   22.010041 C.2        1 MOL1        -0.1394
       7    H2      20.769992   20.260362   21.001383 H          1 MOL1         0.0817
       8    C4      21.063781   18.418322   22.195380 C.3        1 MOL1        -0.1849
       9    H3      21.593245   18.305059   23.151082 H          1 MOL1         0.0736
      10    H4      21.778888   18.130077   21.413184 H          1 MOL1         0.0736
      11    C5      19.854927   17.457303   22.169379 C.3        1 MOL1        -0.1866
      12    H5      20.197760   16.442224   22.412758 H          1 MOL1         0.0738
      13    H6      19.138119   17.742477   22.951869 H          1 MOL1         0.0738
      14    C6      19.146288   17.435247   20.798227 C.3        1 MOL1        -0.2879
      15    H7      19.841548   17.140138   20.001566 H          1 MOL1         0.0750
      16    H8      18.314811   16.718652   20.805084 H          1 MOL1         0.0750
      17    H9      18.737183   18.422757   20.547871 H          1 MOL1         0.0750
@<TRIPOS>BOND
    1     1     2    1
    2     1     3    2
    3     1     4    1
    4     4     5    1
    5     4     6    2
    6     6     7    1
    7     6     8    1
    8     8     9    1
    9     8    10    1
   10     8    11    1
   11    11    12    1
   12    11    13    1
   13    11    14    1
   14    14    15    1
   15    14    16    1
   16    14    17    1
@<TRIPOS>SUBSTRUCTURE
       1 MOL1            1 RESIDUE      1      MOL     
@<SCITEGIC>MOL_PROPERTY
VConf Rank
SciTegic.value.IntegerValue
939

@<SCITEGIC>MOL_PROPERTY
Conf_Id
SciTegic.value.IntegerValue
3

@<SCITEGIC>MOL_PROPERTY
Delta U+W
SciTegic.value.DoubleValue
0.531

@<SCITEGIC>MOL_PROPERTY
U+W
SciTegic.value.DoubleValue
-52.878

@<SCITEGIC>MOL_PROPERTY
Grad RMS
SciTegic.value.DoubleValue
0.000000

@<SCITEGIC>MOL_PROPERTY
U
SciTegic.value.DoubleValue
10.067

@<SCITEGIC>MOL_PROPERTY
W
SciTegic.value.DoubleValue
-62.945

@<SCITEGIC>MOL_PROPERTY
W(PB)
SciTegic.value.DoubleValue
-64.982

@<SCITEGIC>MOL_PROPERTY
W(SA)
SciTegic.value.DoubleValue
2.037

@<SCITEGIC>MOL_PROPERTY
Valence
SciTegic.value.DoubleValue
2.779

@<SCITEGIC>MOL_PROPERTY
Coulomb
SciTegic.value.DoubleValue
6.474

@<SCITEGIC>MOL_PROPERTY
VdW
SciTegic.value.DoubleValue
0.815

@<SCITEGIC>MOL_PROPERTY
VdW6
SciTegic.value.DoubleValue
-5.088

@<SCITEGIC>MOL_PROPERTY
VdW12
SciTegic.value.DoubleValue
5.902

@<SCITEGIC>MOL_PROPERTY
Bond
SciTegic.value.DoubleValue
0.078

@<SCITEGIC>MOL_PROPERTY
Angle
SciTegic.value.DoubleValue
2.651

@<SCITEGIC>MOL_PROPERTY
Pdih
SciTegic.value.DoubleValue
0.050

@<SCITEGIC>MOL_PROPERTY
Idih
SciTegic.value.DoubleValue
0.000

@<SCITEGIC>MOL_PROPERTY
Tether
SciTegic.value.DoubleValue
0.000

@<TRIPOS>MOLECULE
guest-s19_confgen4.mol2 : confsearch ligand conformer 940
          17          16           1
SMALL
USER_CHARGES
 
@<TRIPOS>ATOM
       1    C1      21.855446   16.735265   22.076304 C.2        1 MOL1         0.6173
       2    O1      21.766978   15.675803   21.486817 O.co2      1 MOL1        -0.6755
       3    O2      22.555250   16.887197   23.059990 O.co2      1 MOL1        -0.6755
       4    C2      21.066424   17.882178   21.550845 C.2        1 MOL1        -0.1504
       5    H1      20.462715   17.677920   20.669641 H          1 MOL1         0.0814
       6    C3      21.067416   19.115246   22.106835 C.2        1 MOL1        -0.1394
       7    H2      21.666560   19.327515   22.991983 H          1 MOL1         0.0817
       8    C4      20.260924   20.280149   21.571195 C.3        1 MOL1        -0.1849
       9    H3      19.940277   20.085834   20.538641 H          1 MOL1         0.0736
      10    H4      20.902104   21.170730   21.529209 H          1 MOL1         0.0736
      11    C5      19.027942   20.591619   22.447498 C.3        1 MOL1        -0.1866
      12    H5      19.347562   20.783531   23.481167 H          1 MOL1         0.0738
      13    H6      18.557017   21.516837   22.087776 H          1 MOL1         0.0738
      14    C6      17.983317   19.455300   22.428335 C.3        1 MOL1        -0.2879
      15    H7      18.399453   18.527608   22.842185 H          1 MOL1         0.0750
      16    H8      17.105766   19.727464   23.028917 H          1 MOL1         0.0750
      17    H9      17.643730   19.251525   21.404495 H          1 MOL1         0.0750
@<TRIPOS>BOND
    1     1     2    1
    2     1     3    2
    3     1     4    1
    4     4     5    1
    5     4     6    2
    6     6     7    1
    7     6     8    1
    8     8     9    1
    9     8    10    1
   10     8    11    1
   11    11    12    1
   12    11    13    1
   13    11    14    1
   14    14    15    1
   15    14    16    1
   16    14    17    1
@<TRIPOS>SUBSTRUCTURE
       1 MOL1            1 RESIDUE      1      MOL     
@<SCITEGIC>MOL_PROPERTY
VConf Rank
SciTegic.value.IntegerValue
940

@<SCITEGIC>MOL_PROPERTY
Conf_Id
SciTegic.value.IntegerValue
45

@<SCITEGIC>MOL_PROPERTY
Delta U+W
SciTegic.value.DoubleValue
0.562

@<SCITEGIC>MOL_PROPERTY
U+W
SciTegic.value.DoubleValue
-52.846

@<SCITEGIC>MOL_PROPERTY
Grad RMS
SciTegic.value.DoubleValue
0.000000

@<SCITEGIC>MOL_PROPERTY
U
SciTegic.value.DoubleValue
10.243

@<SCITEGIC>MOL_PROPERTY
W
SciTegic.value.DoubleValue
-63.089

@<SCITEGIC>MOL_PROPERTY
W(PB)
SciTegic.value.DoubleValue
-65.116

@<SCITEGIC>MOL_PROPERTY
W(SA)
SciTegic.value.DoubleValue
2.026

@<SCITEGIC>MOL_PROPERTY
Valence
SciTegic.value.DoubleValue
2.822

@<SCITEGIC>MOL_PROPERTY
Coulomb
SciTegic.value.DoubleValue
6.637

@<SCITEGIC>MOL_PROPERTY
VdW
SciTegic.value.DoubleValue
0.785

@<SCITEGIC>MOL_PROPERTY
VdW6
SciTegic.value.DoubleValue
-5.216

@<SCITEGIC>MOL_PROPERTY
VdW12
SciTegic.value.DoubleValue
6.001

@<SCITEGIC>MOL_PROPERTY
Bond
SciTegic.value.DoubleValue
0.080

@<SCITEGIC>MOL_PROPERTY
Angle
SciTegic.value.DoubleValue
2.678

@<SCITEGIC>MOL_PROPERTY
Pdih
SciTegic.value.DoubleValue
0.064

@<SCITEGIC>MOL_PROPERTY
Idih
SciTegic.value.DoubleValue
0.000

@<SCITEGIC>MOL_PROPERTY
Tether
SciTegic.value.DoubleValue
0.000

@<TRIPOS>MOLECULE
guest-s19_confgen4.mol2 : confsearch ligand conformer 941
          17          16           1
SMALL
USER_CHARGES
 
@<TRIPOS>ATOM
       1    C1      19.610083   21.288536   24.466688 C.2        1 MOL1         0.6173
       2    O1      18.680631   21.409690   25.240732 O.co2      1 MOL1        -0.6755
       3    O2      20.491457   22.120174   24.357364 O.co2      1 MOL1        -0.6755
       4    C2      19.650586   20.060170   23.627858 C.2        1 MOL1        -0.1504
       5    H1      18.833149   19.357953   23.774816 H          1 MOL1         0.0814
       6    C3      20.622658   19.795288   22.725639 C.2        1 MOL1        -0.1394
       7    H2      21.445007   20.493057   22.568692 H          1 MOL1         0.0817
       8    C4      20.655254   18.544530   21.874886 C.3        1 MOL1        -0.1849
       9    H3      20.315777   17.681163   22.463239 H          1 MOL1         0.0736
      10    H4      21.689949   18.330717   21.574757 H          1 MOL1         0.0736
      11    C5      19.774262   18.696753   20.618026 C.3        1 MOL1        -0.1866
      12    H5      18.737754   18.906569   20.916669 H          1 MOL1         0.0738
      13    H6      20.117015   19.559625   20.030199 H          1 MOL1         0.0738
      14    C6      19.809528   17.429352   19.740543 C.3        1 MOL1        -0.2879
      15    H7      20.831418   17.214446   19.401445 H          1 MOL1         0.0750
      16    H8      19.441810   16.556615   20.296015 H          1 MOL1         0.0750
      17    H9      19.177412   17.556399   18.852050 H          1 MOL1         0.0750
@<TRIPOS>BOND
    1     1     2    1
    2     1     3    2
    3     1     4    1
    4     4     5    1
    5     4     6    2
    6     6     7    1
    7     6     8    1
    8     8     9    1
    9     8    10    1
   10     8    11    1
   11    11    12    1
   12    11    13    1
   13    11    14    1
   14    14    15    1
   15    14    16    1
   16    14    17    1
@<TRIPOS>SUBSTRUCTURE
       1 MOL1            1 RESIDUE      1      MOL     
@<SCITEGIC>MOL_PROPERTY
VConf Rank
SciTegic.value.IntegerValue
941

@<SCITEGIC>MOL_PROPERTY
Conf_Id
SciTegic.value.IntegerValue
36

@<SCITEGIC>MOL_PROPERTY
Delta U+W
SciTegic.value.DoubleValue
0.000

@<SCITEGIC>MOL_PROPERTY
U+W
SciTegic.value.DoubleValue
-53.409

@<SCITEGIC>MOL_PROPERTY
Grad RMS
SciTegic.value.DoubleValue
0.000000

@<SCITEGIC>MOL_PROPERTY
U
SciTegic.value.DoubleValue
9.048

@<SCITEGIC>MOL_PROPERTY
W
SciTegic.value.DoubleValue
-62.457

@<SCITEGIC>MOL_PROPERTY
W(PB)
SciTegic.value.DoubleValue
-64.540

@<SCITEGIC>MOL_PROPERTY
W(SA)
SciTegic.value.DoubleValue
2.084

@<SCITEGIC>MOL_PROPERTY
Valence
SciTegic.value.DoubleValue
2.652

@<SCITEGIC>MOL_PROPERTY
Coulomb
SciTegic.value.DoubleValue
5.578

@<SCITEGIC>MOL_PROPERTY
VdW
SciTegic.value.DoubleValue
0.818

@<SCITEGIC>MOL_PROPERTY
VdW6
SciTegic.value.DoubleValue
-4.534

@<SCITEGIC>MOL_PROPERTY
VdW12
SciTegic.value.DoubleValue
5.352

@<SCITEGIC>MOL_PROPERTY
Bond
SciTegic.value.DoubleValue
0.063

@<SCITEGIC>MOL_PROPERTY
Angle
SciTegic.value.DoubleValue
2.579

@<SCITEGIC>MOL_PROPERTY
Pdih
SciTegic.value.DoubleValue
0.010

@<SCITEGIC>MOL_PROPERTY
Idih
SciTegic.value.DoubleValue
0.000

@<SCITEGIC>MOL_PROPERTY
Tether
SciTegic.value.DoubleValue
0.000

@<TRIPOS>MOLECULE
guest-s19_confgen4.mol2 : confsearch ligand conformer 942
          17          16           1
SMALL
USER_CHARGES
 
@<TRIPOS>ATOM
       1    C1      17.037330   18.984655   20.331026 C.2        1 MOL1         0.6173
       2    O1      17.229326   18.449845   19.255150 O.co2      1 MOL1        -0.6755
       3    O2      15.994526   19.541258   20.614676 O.co2      1 MOL1        -0.6755
       4    C2      18.110554   18.968627   21.361607 C.2        1 MOL1        -0.1504
       5    H1      17.874321   19.464061   22.300568 H          1 MOL1         0.0814
       6    C3      19.318829   18.388016   21.182587 C.2        1 MOL1        -0.1394
       7    H2      19.566815   17.890813   20.245003 H          1 MOL1         0.0817
       8    C4      20.405559   18.377815   22.235275 C.3        1 MOL1        -0.1849
       9    H3      21.073056   17.522032   22.066543 H          1 MOL1         0.0736
      10    H4      19.962799   18.237265   23.230773 H          1 MOL1         0.0736
      11    C5      21.224924   19.684340   22.209747 C.3        1 MOL1        -0.1866
      12    H5      21.668504   19.821588   21.213773 H          1 MOL1         0.0738
      13    H6      20.559142   20.541339   22.382510 H          1 MOL1         0.0738
      14    C6      22.340793   19.678001   23.273853 C.3        1 MOL1        -0.2879
      15    H7      23.039812   18.848296   23.105354 H          1 MOL1         0.0750
      16    H8      22.912372   20.614651   23.240453 H          1 MOL1         0.0750
      17    H9      21.920828   19.573130   24.282846 H          1 MOL1         0.0750
@<TRIPOS>BOND
    1     1     2    1
    2     1     3    2
    3     1     4    1
    4     4     5    1
    5     4     6    2
    6     6     7    1
    7     6     8    1
    8     8     9    1
    9     8    10    1
   10     8    11    1
   11    11    12    1
   12    11    13    1
   13    11    14    1
   14    14    15    1
   15    14    16    1
   16    14    17    1
@<TRIPOS>SUBSTRUCTURE
       1 MOL1            1 RESIDUE      1      MOL     
@<SCITEGIC>MOL_PROPERTY
VConf Rank
SciTegic.value.IntegerValue
942

@<SCITEGIC>MOL_PROPERTY
Conf_Id
SciTegic.value.IntegerValue
1

@<SCITEGIC>MOL_PROPERTY
Delta U+W
SciTegic.value.DoubleValue
0.030

@<SCITEGIC>MOL_PROPERTY
U+W
SciTegic.value.DoubleValue
-53.378

@<SCITEGIC>MOL_PROPERTY
Grad RMS
SciTegic.value.DoubleValue
0.000000

@<SCITEGIC>MOL_PROPERTY
U
SciTegic.value.DoubleValue
9.048

@<SCITEGIC>MOL_PROPERTY
W
SciTegic.value.DoubleValue
-62.426

@<SCITEGIC>MOL_PROPERTY
W(PB)
SciTegic.value.DoubleValue
-64.506

@<SCITEGIC>MOL_PROPERTY
W(SA)
SciTegic.value.DoubleValue
2.080

@<SCITEGIC>MOL_PROPERTY
Valence
SciTegic.value.DoubleValue
2.652

@<SCITEGIC>MOL_PROPERTY
Coulomb
SciTegic.value.DoubleValue
5.578

@<SCITEGIC>MOL_PROPERTY
VdW
SciTegic.value.DoubleValue
0.818

@<SCITEGIC>MOL_PROPERTY
VdW6
SciTegic.value.DoubleValue
-4.535

@<SCITEGIC>MOL_PROPERTY
VdW12
SciTegic.value.DoubleValue
5.352

@<SCITEGIC>MOL_PROPERTY
Bond
SciTegic.value.DoubleValue
0.063

@<SCITEGIC>MOL_PROPERTY
Angle
SciTegic.value.DoubleValue
2.579

@<SCITEGIC>MOL_PROPERTY
Pdih
SciTegic.value.DoubleValue
0.010

@<SCITEGIC>MOL_PROPERTY
Idih
SciTegic.value.DoubleValue
0.000

@<SCITEGIC>MOL_PROPERTY
Tether
SciTegic.value.DoubleValue
0.000

@<TRIPOS>MOLECULE
guest-s19_confgen4.mol2 : confsearch ligand conformer 943
          17          16           1
SMALL
USER_CHARGES
 
@<TRIPOS>ATOM
       1    C1      17.448801   20.585123   22.865816 C.2        1 MOL1         0.6173
       2    O1      16.695472   20.226328   21.980264 O.co2      1 MOL1        -0.6755
       3    O2      17.059182   21.105777   23.892913 O.co2      1 MOL1        -0.6755
       4    C2      18.915597   20.392120   22.706593 C.2        1 MOL1        -0.1504
       5    H1      19.532171   20.735468   23.534064 H          1 MOL1         0.0814
       6    C3      19.487703   19.826698   21.619404 C.2        1 MOL1        -0.1394
       7    H2      18.879150   19.476128   20.786121 H          1 MOL1         0.0817
       8    C4      20.981297   19.630017   21.466081 C.3        1 MOL1        -0.1849
       9    H3      21.510124   20.515212   21.844628 H          1 MOL1         0.0736
      10    H4      21.239665   19.551031   20.401515 H          1 MOL1         0.0736
      11    C5      21.489108   18.378246   22.214919 C.3        1 MOL1        -0.1866
      12    H5      22.585806   18.345452   22.157204 H          1 MOL1         0.0738
      13    H6      21.233117   18.454962   23.280757 H          1 MOL1         0.0738
      14    C6      20.914033   17.068347   21.635123 C.3        1 MOL1        -0.2879
      15    H7      21.168682   16.964198   20.572366 H          1 MOL1         0.0750
      16    H8      21.320942   16.199170   22.167911 H          1 MOL1         0.0750
      17    H9      19.820708   17.039522   21.730155 H          1 MOL1         0.0750
@<TRIPOS>BOND
    1     1     2    1
    2     1     3    2
    3     1     4    1
    4     4     5    1
    5     4     6    2
    6     6     7    1
    7     6     8    1
    8     8     9    1
    9     8    10    1
   10     8    11    1
   11    11    12    1
   12    11    13    1
   13    11    14    1
   14    14    15    1
   15    14    16    1
   16    14    17    1
@<TRIPOS>SUBSTRUCTURE
       1 MOL1            1 RESIDUE      1      MOL     
@<SCITEGIC>MOL_PROPERTY
VConf Rank
SciTegic.value.IntegerValue
943

@<SCITEGIC>MOL_PROPERTY
Conf_Id
SciTegic.value.IntegerValue
3

@<SCITEGIC>MOL_PROPERTY
Delta U+W
SciTegic.value.DoubleValue
0.531

@<SCITEGIC>MOL_PROPERTY
U+W
SciTegic.value.DoubleValue
-52.878

@<SCITEGIC>MOL_PROPERTY
Grad RMS
SciTegic.value.DoubleValue
0.000000

@<SCITEGIC>MOL_PROPERTY
U
SciTegic.value.DoubleValue
10.067

@<SCITEGIC>MOL_PROPERTY
W
SciTegic.value.DoubleValue
-62.945

@<SCITEGIC>MOL_PROPERTY
W(PB)
SciTegic.value.DoubleValue
-64.982

@<SCITEGIC>MOL_PROPERTY
W(SA)
SciTegic.value.DoubleValue
2.037

@<SCITEGIC>MOL_PROPERTY
Valence
SciTegic.value.DoubleValue
2.779

@<SCITEGIC>MOL_PROPERTY
Coulomb
SciTegic.value.DoubleValue
6.474

@<SCITEGIC>MOL_PROPERTY
VdW
SciTegic.value.DoubleValue
0.815

@<SCITEGIC>MOL_PROPERTY
VdW6
SciTegic.value.DoubleValue
-5.088

@<SCITEGIC>MOL_PROPERTY
VdW12
SciTegic.value.DoubleValue
5.902

@<SCITEGIC>MOL_PROPERTY
Bond
SciTegic.value.DoubleValue
0.078

@<SCITEGIC>MOL_PROPERTY
Angle
SciTegic.value.DoubleValue
2.651

@<SCITEGIC>MOL_PROPERTY
Pdih
SciTegic.value.DoubleValue
0.050

@<SCITEGIC>MOL_PROPERTY
Idih
SciTegic.value.DoubleValue
0.000

@<SCITEGIC>MOL_PROPERTY
Tether
SciTegic.value.DoubleValue
0.000

@<TRIPOS>MOLECULE
guest-s19_confgen4.mol2 : confsearch ligand conformer 944
          17          16           1
SMALL
USER_CHARGES
 
@<TRIPOS>ATOM
       1    C1      20.031309   22.111410   21.867338 C.2        1 MOL1         0.6173
       2    O1      20.982035   22.867395   21.818498 O.co2      1 MOL1        -0.6755
       3    O2      18.917555   22.471660   22.199332 O.co2      1 MOL1        -0.6755
       4    C2      20.264364   20.689158   21.497262 C.2        1 MOL1        -0.1504
       5    H1      21.282082   20.434778   21.210474 H          1 MOL1         0.0814
       6    C3      19.300787   19.739959   21.508459 C.2        1 MOL1        -0.1394
       7    H2      18.279321   19.985465   21.798033 H          1 MOL1         0.0817
       8    C4      19.541756   18.292232   21.133819 C.3        1 MOL1        -0.1849
       9    H3      20.481652   18.189078   20.574627 H          1 MOL1         0.0736
      10    H4      18.744788   17.960266   20.455106 H          1 MOL1         0.0736
      11    C5      19.567596   17.363935   22.367822 C.3        1 MOL1        -0.1866
      12    H5      18.628798   17.468469   22.929240 H          1 MOL1         0.0738
      13    H6      19.616454   16.319632   22.029824 H          1 MOL1         0.0738
      14    C6      20.765321   17.647523   23.299413 C.3        1 MOL1        -0.2879
      15    H7      20.716104   18.664607   23.709500 H          1 MOL1         0.0750
      16    H8      20.773279   16.944963   24.142748 H          1 MOL1         0.0750
      17    H9      21.715680   17.541192   22.760336 H          1 MOL1         0.0750
@<TRIPOS>BOND
    1     1     2    1
    2     1     3    2
    3     1     4    1
    4     4     5    1
    5     4     6    2
    6     6     7    1
    7     6     8    1
    8     8     9    1
    9     8    10    1
   10     8    11    1
   11    11    12    1
   12    11    13    1
   13    11    14    1
   14    14    15    1
   15    14    16    1
   16    14    17    1
@<TRIPOS>SUBSTRUCTURE
       1 MOL1            1 RESIDUE      1      MOL     
@<SCITEGIC>MOL_PROPERTY
VConf Rank
SciTegic.value.IntegerValue
944

@<SCITEGIC>MOL_PROPERTY
Conf_Id
SciTegic.value.IntegerValue
45

@<SCITEGIC>MOL_PROPERTY
Delta U+W
SciTegic.value.DoubleValue
0.562

@<SCITEGIC>MOL_PROPERTY
U+W
SciTegic.value.DoubleValue
-52.846

@<SCITEGIC>MOL_PROPERTY
Grad RMS
SciTegic.value.DoubleValue
0.000000

@<SCITEGIC>MOL_PROPERTY
U
SciTegic.value.DoubleValue
10.243

@<SCITEGIC>MOL_PROPERTY
W
SciTegic.value.DoubleValue
-63.089

@<SCITEGIC>MOL_PROPERTY
W(PB)
SciTegic.value.DoubleValue
-65.116

@<SCITEGIC>MOL_PROPERTY
W(SA)
SciTegic.value.DoubleValue
2.026

@<SCITEGIC>MOL_PROPERTY
Valence
SciTegic.value.DoubleValue
2.822

@<SCITEGIC>MOL_PROPERTY
Coulomb
SciTegic.value.DoubleValue
6.637

@<SCITEGIC>MOL_PROPERTY
VdW
SciTegic.value.DoubleValue
0.785

@<SCITEGIC>MOL_PROPERTY
VdW6
SciTegic.value.DoubleValue
-5.216

@<SCITEGIC>MOL_PROPERTY
VdW12
SciTegic.value.DoubleValue
6.001

@<SCITEGIC>MOL_PROPERTY
Bond
SciTegic.value.DoubleValue
0.080

@<SCITEGIC>MOL_PROPERTY
Angle
SciTegic.value.DoubleValue
2.678

@<SCITEGIC>MOL_PROPERTY
Pdih
SciTegic.value.DoubleValue
0.064

@<SCITEGIC>MOL_PROPERTY
Idih
SciTegic.value.DoubleValue
0.000

@<SCITEGIC>MOL_PROPERTY
Tether
SciTegic.value.DoubleValue
0.000

@<TRIPOS>MOLECULE
guest-s19_confgen4.mol2 : confsearch ligand conformer 945
          17          16           1
SMALL
USER_CHARGES
 
@<TRIPOS>ATOM
       1    C1      18.953116   16.769214   19.726989 C.2        1 MOL1         0.6173
       2    O1      18.876869   15.564488   19.870258 O.co2      1 MOL1        -0.6755
       3    O2      18.865615   17.312281   18.641717 O.co2      1 MOL1        -0.6755
       4    C2      19.161296   17.594890   20.947268 C.2        1 MOL1        -0.1504
       5    H1      19.230812   17.047491   21.884514 H          1 MOL1         0.0814
       6    C3      19.265532   18.943259   20.936235 C.2        1 MOL1        -0.1394
       7    H2      19.199702   19.501502   20.002531 H          1 MOL1         0.0817
       8    C4      19.479396   19.775378   22.181658 C.3        1 MOL1        -0.1849
       9    H3      18.899497   19.358225   23.016230 H          1 MOL1         0.0736
      10    H4      19.099177   20.792163   22.014422 H          1 MOL1         0.0736
      11    C5      20.971937   19.839094   22.565421 C.3        1 MOL1        -0.1866
      12    H5      21.352879   18.822761   22.737212 H          1 MOL1         0.0738
      13    H6      21.549544   20.258524   21.729947 H          1 MOL1         0.0738
      14    C6      21.199493   20.693380   23.828725 C.3        1 MOL1        -0.2879
      15    H7      20.855965   21.724482   23.673006 H          1 MOL1         0.0750
      16    H8      20.656737   20.277037   24.687510 H          1 MOL1         0.0750
      17    H9      22.266184   20.726867   24.085977 H          1 MOL1         0.0750
@<TRIPOS>BOND
    1     1     2    1
    2     1     3    2
    3     1     4    1
    4     4     5    1
    5     4     6    2
    6     6     7    1
    7     6     8    1
    8     8     9    1
    9     8    10    1
   10     8    11    1
   11    11    12    1
   12    11    13    1
   13    11    14    1
   14    14    15    1
   15    14    16    1
   16    14    17    1
@<TRIPOS>SUBSTRUCTURE
       1 MOL1            1 RESIDUE      1      MOL     
@<SCITEGIC>MOL_PROPERTY
VConf Rank
SciTegic.value.IntegerValue
945

@<SCITEGIC>MOL_PROPERTY
Conf_Id
SciTegic.value.IntegerValue
36

@<SCITEGIC>MOL_PROPERTY
Delta U+W
SciTegic.value.DoubleValue
0.000

@<SCITEGIC>MOL_PROPERTY
U+W
SciTegic.value.DoubleValue
-53.409

@<SCITEGIC>MOL_PROPERTY
Grad RMS
SciTegic.value.DoubleValue
0.000000

@<SCITEGIC>MOL_PROPERTY
U
SciTegic.value.DoubleValue
9.048

@<SCITEGIC>MOL_PROPERTY
W
SciTegic.value.DoubleValue
-62.457

@<SCITEGIC>MOL_PROPERTY
W(PB)
SciTegic.value.DoubleValue
-64.540

@<SCITEGIC>MOL_PROPERTY
W(SA)
SciTegic.value.DoubleValue
2.084

@<SCITEGIC>MOL_PROPERTY
Valence
SciTegic.value.DoubleValue
2.652

@<SCITEGIC>MOL_PROPERTY
Coulomb
SciTegic.value.DoubleValue
5.578

@<SCITEGIC>MOL_PROPERTY
VdW
SciTegic.value.DoubleValue
0.818

@<SCITEGIC>MOL_PROPERTY
VdW6
SciTegic.value.DoubleValue
-4.534

@<SCITEGIC>MOL_PROPERTY
VdW12
SciTegic.value.DoubleValue
5.352

@<SCITEGIC>MOL_PROPERTY
Bond
SciTegic.value.DoubleValue
0.063

@<SCITEGIC>MOL_PROPERTY
Angle
SciTegic.value.DoubleValue
2.579

@<SCITEGIC>MOL_PROPERTY
Pdih
SciTegic.value.DoubleValue
0.010

@<SCITEGIC>MOL_PROPERTY
Idih
SciTegic.value.DoubleValue
0.000

@<SCITEGIC>MOL_PROPERTY
Tether
SciTegic.value.DoubleValue
0.000

@<TRIPOS>MOLECULE
guest-s19_confgen4.mol2 : confsearch ligand conformer 946
          17          16           1
SMALL
USER_CHARGES
 
@<TRIPOS>ATOM
       1    C1      21.918425   16.761951   20.391812 C.2        1 MOL1         0.6173
       2    O1      22.176402   15.916670   21.228078 O.co2      1 MOL1        -0.6755
       3    O2      22.459894   16.801213   19.304165 O.co2      1 MOL1        -0.6755
       4    C2      20.897865   17.803038   20.689733 C.2        1 MOL1        -0.1504
       5    H1      20.714845   18.527986   19.899883 H          1 MOL1         0.0814
       6    C3      20.218966   17.880841   21.856836 C.2        1 MOL1        -0.1394
       7    H2      20.396072   17.161010   22.655741 H          1 MOL1         0.0817
       8    C4      19.183876   18.944042   22.152525 C.3        1 MOL1        -0.1849
       9    H3      18.482129   18.573127   22.911709 H          1 MOL1         0.0736
      10    H4      18.589610   19.150397   21.251930 H          1 MOL1         0.0736
      11    C5      19.842712   20.246469   22.651158 C.3        1 MOL1        -0.1866
      12    H5      20.434728   20.037929   23.553153 H          1 MOL1         0.0738
      13    H6      20.542159   20.621164   21.890936 H          1 MOL1         0.0738
      14    C6      18.793544   21.332345   22.963639 C.3        1 MOL1        -0.2879
      15    H7      18.099566   20.995103   23.744723 H          1 MOL1         0.0750
      16    H8      19.280687   22.250590   23.316695 H          1 MOL1         0.0750
      17    H9      18.208011   21.581859   22.069028 H          1 MOL1         0.0750
@<TRIPOS>BOND
    1     1     2    1
    2     1     3    2
    3     1     4    1
    4     4     5    1
    5     4     6    2
    6     6     7    1
    7     6     8    1
    8     8     9    1
    9     8    10    1
   10     8    11    1
   11    11    12    1
   12    11    13    1
   13    11    14    1
   14    14    15    1
   15    14    16    1
   16    14    17    1
@<TRIPOS>SUBSTRUCTURE
       1 MOL1            1 RESIDUE      1      MOL     
@<SCITEGIC>MOL_PROPERTY
VConf Rank
SciTegic.value.IntegerValue
946

@<SCITEGIC>MOL_PROPERTY
Conf_Id
SciTegic.value.IntegerValue
1

@<SCITEGIC>MOL_PROPERTY
Delta U+W
SciTegic.value.DoubleValue
0.030

@<SCITEGIC>MOL_PROPERTY
U+W
SciTegic.value.DoubleValue
-53.378

@<SCITEGIC>MOL_PROPERTY
Grad RMS
SciTegic.value.DoubleValue
0.000000

@<SCITEGIC>MOL_PROPERTY
U
SciTegic.value.DoubleValue
9.048

@<SCITEGIC>MOL_PROPERTY
W
SciTegic.value.DoubleValue
-62.426

@<SCITEGIC>MOL_PROPERTY
W(PB)
SciTegic.value.DoubleValue
-64.506

@<SCITEGIC>MOL_PROPERTY
W(SA)
SciTegic.value.DoubleValue
2.080

@<SCITEGIC>MOL_PROPERTY
Valence
SciTegic.value.DoubleValue
2.652

@<SCITEGIC>MOL_PROPERTY
Coulomb
SciTegic.value.DoubleValue
5.578

@<SCITEGIC>MOL_PROPERTY
VdW
SciTegic.value.DoubleValue
0.818

@<SCITEGIC>MOL_PROPERTY
VdW6
SciTegic.value.DoubleValue
-4.535

@<SCITEGIC>MOL_PROPERTY
VdW12
SciTegic.value.DoubleValue
5.352

@<SCITEGIC>MOL_PROPERTY
Bond
SciTegic.value.DoubleValue
0.063

@<SCITEGIC>MOL_PROPERTY
Angle
SciTegic.value.DoubleValue
2.579

@<SCITEGIC>MOL_PROPERTY
Pdih
SciTegic.value.DoubleValue
0.010

@<SCITEGIC>MOL_PROPERTY
Idih
SciTegic.value.DoubleValue
0.000

@<SCITEGIC>MOL_PROPERTY
Tether
SciTegic.value.DoubleValue
0.000

@<TRIPOS>MOLECULE
guest-s19_confgen4.mol2 : confsearch ligand conformer 947
          17          16           1
SMALL
USER_CHARGES
 
@<TRIPOS>ATOM
       1    C1      21.457106   16.372723   22.280486 C.2        1 MOL1         0.6173
       2    O1      21.008444   15.975839   23.339555 O.co2      1 MOL1        -0.6755
       3    O2      22.029059   15.645292   21.492117 O.co2      1 MOL1        -0.6755
       4    C2      21.315062   17.807656   21.913222 C.2        1 MOL1        -0.1504
       5    H1      21.738722   18.096377   20.954100 H          1 MOL1         0.0814
       6    C3      20.702034   18.727799   22.692015 C.2        1 MOL1        -0.1394
       7    H2      20.271119   18.448723   23.653278 H          1 MOL1         0.0817
       8    C4      20.557837   20.185920   22.309779 C.3        1 MOL1        -0.1849
       9    H3      21.487762   20.538034   21.843107 H          1 MOL1         0.0736
      10    H4      20.418177   20.795960   23.212353 H          1 MOL1         0.0736
      11    C5      19.381560   20.425069   21.337801 C.3        1 MOL1        -0.1866
      12    H5      19.390647   21.475063   21.014408 H          1 MOL1         0.0738
      13    H6      19.519141   19.816858   20.433048 H          1 MOL1         0.0738
      14    C6      18.012788   20.105552   21.975832 C.3        1 MOL1        -0.2879
      15    H7      17.848012   20.711880   22.876032 H          1 MOL1         0.0750
      16    H8      17.199156   20.318180   21.270354 H          1 MOL1         0.0750
      17    H9      17.944929   19.046872   22.258346 H          1 MOL1         0.0750
@<TRIPOS>BOND
    1     1     2    1
    2     1     3    2
    3     1     4    1
    4     4     5    1
    5     4     6    2
    6     6     7    1
    7     6     8    1
    8     8     9    1
    9     8    10    1
   10     8    11    1
   11    11    12    1
   12    11    13    1
   13    11    14    1
   14    14    15    1
   15    14    16    1
   16    14    17    1
@<TRIPOS>SUBSTRUCTURE
       1 MOL1            1 RESIDUE      1      MOL     
@<SCITEGIC>MOL_PROPERTY
VConf Rank
SciTegic.value.IntegerValue
947

@<SCITEGIC>MOL_PROPERTY
Conf_Id
SciTegic.value.IntegerValue
3

@<SCITEGIC>MOL_PROPERTY
Delta U+W
SciTegic.value.DoubleValue
0.531

@<SCITEGIC>MOL_PROPERTY
U+W
SciTegic.value.DoubleValue
-52.878

@<SCITEGIC>MOL_PROPERTY
Grad RMS
SciTegic.value.DoubleValue
0.000000

@<SCITEGIC>MOL_PROPERTY
U
SciTegic.value.DoubleValue
10.067

@<SCITEGIC>MOL_PROPERTY
W
SciTegic.value.DoubleValue
-62.945

@<SCITEGIC>MOL_PROPERTY
W(PB)
SciTegic.value.DoubleValue
-64.982

@<SCITEGIC>MOL_PROPERTY
W(SA)
SciTegic.value.DoubleValue
2.037

@<SCITEGIC>MOL_PROPERTY
Valence
SciTegic.value.DoubleValue
2.779

@<SCITEGIC>MOL_PROPERTY
Coulomb
SciTegic.value.DoubleValue
6.474

@<SCITEGIC>MOL_PROPERTY
VdW
SciTegic.value.DoubleValue
0.815

@<SCITEGIC>MOL_PROPERTY
VdW6
SciTegic.value.DoubleValue
-5.088

@<SCITEGIC>MOL_PROPERTY
VdW12
SciTegic.value.DoubleValue
5.902

@<SCITEGIC>MOL_PROPERTY
Bond
SciTegic.value.DoubleValue
0.078

@<SCITEGIC>MOL_PROPERTY
Angle
SciTegic.value.DoubleValue
2.651

@<SCITEGIC>MOL_PROPERTY
Pdih
SciTegic.value.DoubleValue
0.050

@<SCITEGIC>MOL_PROPERTY
Idih
SciTegic.value.DoubleValue
0.000

@<SCITEGIC>MOL_PROPERTY
Tether
SciTegic.value.DoubleValue
0.000

@<TRIPOS>MOLECULE
guest-s19_confgen4.mol2 : confsearch ligand conformer 948
          17          16           1
SMALL
USER_CHARGES
 
@<TRIPOS>ATOM
       1    C1      22.658567   17.773903   22.489099 C.2        1 MOL1         0.6173
       2    O1      23.678591   18.223810   22.973779 O.co2      1 MOL1        -0.6755
       3    O2      22.648494   16.804316   21.754083 O.co2      1 MOL1        -0.6755
       4    C2      21.378935   18.453974   22.826910 C.2        1 MOL1        -0.1504
       5    H1      21.459301   19.313412   23.488434 H          1 MOL1         0.0814
       6    C3      20.171568   18.063695   22.358369 C.2        1 MOL1        -0.1394
       7    H2      20.082479   17.205918   21.692185 H          1 MOL1         0.0817
       8    C4      18.870875   18.759776   22.701889 C.3        1 MOL1        -0.1849
       9    H3      18.995302   19.395225   23.589280 H          1 MOL1         0.0736
      10    H4      18.120183   18.004466   22.970173 H          1 MOL1         0.0736
      11    C5      18.331760   19.606943   21.528505 C.3        1 MOL1        -0.1866
      12    H5      18.209499   18.972583   20.639630 H          1 MOL1         0.0738
      13    H6      17.331630   19.981505   21.786653 H          1 MOL1         0.0738
      14    C6      19.245671   20.804433   21.191436 C.3        1 MOL1        -0.2879
      15    H7      20.237921   20.466156   20.865767 H          1 MOL1         0.0750
      16    H8      18.812329   21.404697   20.381025 H          1 MOL1         0.0750
      17    H9      19.375774   21.456909   22.064615 H          1 MOL1         0.0750
@<TRIPOS>BOND
    1     1     2    1
    2     1     3    2
    3     1     4    1
    4     4     5    1
    5     4     6    2
    6     6     7    1
    7     6     8    1
    8     8     9    1
    9     8    10    1
   10     8    11    1
   11    11    12    1
   12    11    13    1
   13    11    14    1
   14    14    15    1
   15    14    16    1
   16    14    17    1
@<TRIPOS>SUBSTRUCTURE
       1 MOL1            1 RESIDUE      1      MOL     
@<SCITEGIC>MOL_PROPERTY
VConf Rank
SciTegic.value.IntegerValue
948

@<SCITEGIC>MOL_PROPERTY
Conf_Id
SciTegic.value.IntegerValue
45

@<SCITEGIC>MOL_PROPERTY
Delta U+W
SciTegic.value.DoubleValue
0.562

@<SCITEGIC>MOL_PROPERTY
U+W
SciTegic.value.DoubleValue
-52.846

@<SCITEGIC>MOL_PROPERTY
Grad RMS
SciTegic.value.DoubleValue
0.000000

@<SCITEGIC>MOL_PROPERTY
U
SciTegic.value.DoubleValue
10.243

@<SCITEGIC>MOL_PROPERTY
W
SciTegic.value.DoubleValue
-63.089

@<SCITEGIC>MOL_PROPERTY
W(PB)
SciTegic.value.DoubleValue
-65.116

@<SCITEGIC>MOL_PROPERTY
W(SA)
SciTegic.value.DoubleValue
2.026

@<SCITEGIC>MOL_PROPERTY
Valence
SciTegic.value.DoubleValue
2.822

@<SCITEGIC>MOL_PROPERTY
Coulomb
SciTegic.value.DoubleValue
6.637

@<SCITEGIC>MOL_PROPERTY
VdW
SciTegic.value.DoubleValue
0.785

@<SCITEGIC>MOL_PROPERTY
VdW6
SciTegic.value.DoubleValue
-5.216

@<SCITEGIC>MOL_PROPERTY
VdW12
SciTegic.value.DoubleValue
6.001

@<SCITEGIC>MOL_PROPERTY
Bond
SciTegic.value.DoubleValue
0.080

@<SCITEGIC>MOL_PROPERTY
Angle
SciTegic.value.DoubleValue
2.678

@<SCITEGIC>MOL_PROPERTY
Pdih
SciTegic.value.DoubleValue
0.064

@<SCITEGIC>MOL_PROPERTY
Idih
SciTegic.value.DoubleValue
0.000

@<SCITEGIC>MOL_PROPERTY
Tether
SciTegic.value.DoubleValue
0.000

@<TRIPOS>MOLECULE
guest-s19_confgen4.mol2 : confsearch ligand conformer 949
          17          16           1
SMALL
USER_CHARGES
 
@<TRIPOS>ATOM
       1    C1      21.579647   18.116347   19.110238 C.2        1 MOL1         0.6173
       2    O1      21.420399   18.484595   17.962746 O.co2      1 MOL1        -0.6755
       3    O2      22.218502   17.122986   19.402633 O.co2      1 MOL1        -0.6755
       4    C2      20.957614   18.933408   20.187107 C.2        1 MOL1        -0.1504
       5    H1      20.400691   19.807675   19.857860 H          1 MOL1         0.0814
       6    C3      21.051950   18.641788   21.504355 C.2        1 MOL1        -0.1394
       7    H2      21.605483   17.766988   21.845088 H          1 MOL1         0.0817
       8    C4      20.414447   19.476860   22.593154 C.3        1 MOL1        -0.1849
       9    H3      20.494538   20.543713   22.343717 H          1 MOL1         0.0736
      10    H4      20.962149   19.334093   23.534443 H          1 MOL1         0.0736
      11    C5      18.932715   19.099494   22.795840 C.3        1 MOL1        -0.1866
      12    H5      18.382385   19.245791   21.856003 H          1 MOL1         0.0738
      13    H6      18.855360   18.032538   23.047215 H          1 MOL1         0.0738
      14    C6      18.278057   19.939815   23.910654 C.3        1 MOL1        -0.2879
      15    H7      18.790113   19.787370   24.869816 H          1 MOL1         0.0750
      16    H8      18.314569   21.010116   23.668667 H          1 MOL1         0.0750
      17    H9      17.225131   19.657459   24.040083 H          1 MOL1         0.0750
@<TRIPOS>BOND
    1     1     2    1
    2     1     3    2
    3     1     4    1
    4     4     5    1
    5     4     6    2
    6     6     7    1
    7     6     8    1
    8     8     9    1
    9     8    10    1
   10     8    11    1
   11    11    12    1
   12    11    13    1
   13    11    14    1
   14    14    15    1
   15    14    16    1
   16    14    17    1
@<TRIPOS>SUBSTRUCTURE
       1 MOL1            1 RESIDUE      1      MOL     
@<SCITEGIC>MOL_PROPERTY
VConf Rank
SciTegic.value.IntegerValue
949

@<SCITEGIC>MOL_PROPERTY
Conf_Id
SciTegic.value.IntegerValue
36

@<SCITEGIC>MOL_PROPERTY
Delta U+W
SciTegic.value.DoubleValue
0.000

@<SCITEGIC>MOL_PROPERTY
U+W
SciTegic.value.DoubleValue
-53.409

@<SCITEGIC>MOL_PROPERTY
Grad RMS
SciTegic.value.DoubleValue
0.000000

@<SCITEGIC>MOL_PROPERTY
U
SciTegic.value.DoubleValue
9.048

@<SCITEGIC>MOL_PROPERTY
W
SciTegic.value.DoubleValue
-62.457

@<SCITEGIC>MOL_PROPERTY
W(PB)
SciTegic.value.DoubleValue
-64.540

@<SCITEGIC>MOL_PROPERTY
W(SA)
SciTegic.value.DoubleValue
2.084

@<SCITEGIC>MOL_PROPERTY
Valence
SciTegic.value.DoubleValue
2.652

@<SCITEGIC>MOL_PROPERTY
Coulomb
SciTegic.value.DoubleValue
5.578

@<SCITEGIC>MOL_PROPERTY
VdW
SciTegic.value.DoubleValue
0.818

@<SCITEGIC>MOL_PROPERTY
VdW6
SciTegic.value.DoubleValue
-4.534

@<SCITEGIC>MOL_PROPERTY
VdW12
SciTegic.value.DoubleValue
5.352

@<SCITEGIC>MOL_PROPERTY
Bond
SciTegic.value.DoubleValue
0.063

@<SCITEGIC>MOL_PROPERTY
Angle
SciTegic.value.DoubleValue
2.579

@<SCITEGIC>MOL_PROPERTY
Pdih
SciTegic.value.DoubleValue
0.010

@<SCITEGIC>MOL_PROPERTY
Idih
SciTegic.value.DoubleValue
0.000

@<SCITEGIC>MOL_PROPERTY
Tether
SciTegic.value.DoubleValue
0.000

@<TRIPOS>MOLECULE
guest-s19_confgen4.mol2 : confsearch ligand conformer 950
          17          16           1
SMALL
USER_CHARGES
 
@<TRIPOS>ATOM
       1    C1      17.139131   19.241490   20.155741 C.2        1 MOL1         0.6173
       2    O1      17.445487   19.438152   18.994765 O.co2      1 MOL1        -0.6755
       3    O2      15.994441   19.316043   20.558025 O.co2      1 MOL1        -0.6755
       4    C2      18.194127   18.891542   21.145024 C.2        1 MOL1        -0.1504
       5    H1      17.853143   18.728590   22.164870 H          1 MOL1         0.0814
       6    C3      19.506205   18.775306   20.838386 C.2        1 MOL1        -0.1394
       7    H2      19.859030   18.938561   19.820233 H          1 MOL1         0.0817
       8    C4      20.573091   18.420834   21.850977 C.3        1 MOL1        -0.1849
       9    H3      21.428953   17.961688   21.338071 H          1 MOL1         0.0736
      10    H4      20.189175   17.668306   22.553200 H          1 MOL1         0.0736
      11    C5      21.045146   19.666060   22.629176 C.3        1 MOL1        -0.1866
      12    H5      21.430664   20.416350   21.924898 H          1 MOL1         0.0738
      13    H6      20.190689   20.124347   23.146319 H          1 MOL1         0.0738
      14    C6      22.139441   19.314634   23.657058 C.3        1 MOL1        -0.2879
      15    H7      23.019433   18.883147   23.162220 H          1 MOL1         0.0750
      16    H8      22.462360   20.212254   24.200318 H          1 MOL1         0.0750
      17    H9      21.768974   18.588430   24.392461 H          1 MOL1         0.0750
@<TRIPOS>BOND
    1     1     2    1
    2     1     3    2
    3     1     4    1
    4     4     5    1
    5     4     6    2
    6     6     7    1
    7     6     8    1
    8     8     9    1
    9     8    10    1
   10     8    11    1
   11    11    12    1
   12    11    13    1
   13    11    14    1
   14    14    15    1
   15    14    16    1
   16    14    17    1
@<TRIPOS>SUBSTRUCTURE
       1 MOL1            1 RESIDUE      1      MOL     
@<SCITEGIC>MOL_PROPERTY
VConf Rank
SciTegic.value.IntegerValue
950

@<SCITEGIC>MOL_PROPERTY
Conf_Id
SciTegic.value.IntegerValue
1

@<SCITEGIC>MOL_PROPERTY
Delta U+W
SciTegic.value.DoubleValue
0.030

@<SCITEGIC>MOL_PROPERTY
U+W
SciTegic.value.DoubleValue
-53.378

@<SCITEGIC>MOL_PROPERTY
Grad RMS
SciTegic.value.DoubleValue
0.000000

@<SCITEGIC>MOL_PROPERTY
U
SciTegic.value.DoubleValue
9.048

@<SCITEGIC>MOL_PROPERTY
W
SciTegic.value.DoubleValue
-62.426

@<SCITEGIC>MOL_PROPERTY
W(PB)
SciTegic.value.DoubleValue
-64.506

@<SCITEGIC>MOL_PROPERTY
W(SA)
SciTegic.value.DoubleValue
2.080

@<SCITEGIC>MOL_PROPERTY
Valence
SciTegic.value.DoubleValue
2.652

@<SCITEGIC>MOL_PROPERTY
Coulomb
SciTegic.value.DoubleValue
5.578

@<SCITEGIC>MOL_PROPERTY
VdW
SciTegic.value.DoubleValue
0.818

@<SCITEGIC>MOL_PROPERTY
VdW6
SciTegic.value.DoubleValue
-4.535

@<SCITEGIC>MOL_PROPERTY
VdW12
SciTegic.value.DoubleValue
5.352

@<SCITEGIC>MOL_PROPERTY
Bond
SciTegic.value.DoubleValue
0.063

@<SCITEGIC>MOL_PROPERTY
Angle
SciTegic.value.DoubleValue
2.579

@<SCITEGIC>MOL_PROPERTY
Pdih
SciTegic.value.DoubleValue
0.010

@<SCITEGIC>MOL_PROPERTY
Idih
SciTegic.value.DoubleValue
0.000

@<SCITEGIC>MOL_PROPERTY
Tether
SciTegic.value.DoubleValue
0.000

@<TRIPOS>MOLECULE
guest-s19_confgen4.mol2 : confsearch ligand conformer 951
          17          16           1
SMALL
USER_CHARGES
 
@<TRIPOS>ATOM
       1    C1      22.329843   17.195248   21.297436 C.2        1 MOL1         0.6173
       2    O1      21.985201   16.185014   21.881465 O.co2      1 MOL1        -0.6755
       3    O2      23.180979   17.197810   20.429466 O.co2      1 MOL1        -0.6755
       4    C2      21.699136   18.497251   21.645415 C.2        1 MOL1        -0.1504
       5    H1      22.053181   19.360582   21.086781 H          1 MOL1         0.0814
       6    C3      20.740131   18.642084   22.587921 C.2        1 MOL1        -0.1394
       7    H2      20.375679   17.783295   23.151174 H          1 MOL1         0.0817
       8    C4      20.099988   19.970044   22.933977 C.3        1 MOL1        -0.1849
       9    H3      20.866845   20.756360   22.946730 H          1 MOL1         0.0736
      10    H4      19.685157   19.930469   23.950167 H          1 MOL1         0.0736
      11    C5      18.987779   20.363742   21.937205 C.3        1 MOL1        -0.1866
      12    H5      18.634964   21.376844   22.174483 H          1 MOL1         0.0738
      13    H6      19.400162   20.405383   20.919544 H          1 MOL1         0.0738
      14    C6      17.789790   19.390996   21.973276 C.3        1 MOL1        -0.2879
      15    H7      17.353164   19.342884   22.979351 H          1 MOL1         0.0750
      16    H8      17.005518   19.718805   21.278751 H          1 MOL1         0.0750
      17    H9      18.094041   18.376987   21.682692 H          1 MOL1         0.0750
@<TRIPOS>BOND
    1     1     2    1
    2     1     3    2
    3     1     4    1
    4     4     5    1
    5     4     6    2
    6     6     7    1
    7     6     8    1
    8     8     9    1
    9     8    10    1
   10     8    11    1
   11    11    12    1
   12    11    13    1
   13    11    14    1
   14    14    15    1
   15    14    16    1
   16    14    17    1
@<TRIPOS>SUBSTRUCTURE
       1 MOL1            1 RESIDUE      1      MOL     
@<SCITEGIC>MOL_PROPERTY
VConf Rank
SciTegic.value.IntegerValue
951

@<SCITEGIC>MOL_PROPERTY
Conf_Id
SciTegic.value.IntegerValue
3

@<SCITEGIC>MOL_PROPERTY
Delta U+W
SciTegic.value.DoubleValue
0.531

@<SCITEGIC>MOL_PROPERTY
U+W
SciTegic.value.DoubleValue
-52.878

@<SCITEGIC>MOL_PROPERTY
Grad RMS
SciTegic.value.DoubleValue
0.000000

@<SCITEGIC>MOL_PROPERTY
U
SciTegic.value.DoubleValue
10.067

@<SCITEGIC>MOL_PROPERTY
W
SciTegic.value.DoubleValue
-62.945

@<SCITEGIC>MOL_PROPERTY
W(PB)
SciTegic.value.DoubleValue
-64.982

@<SCITEGIC>MOL_PROPERTY
W(SA)
SciTegic.value.DoubleValue
2.037

@<SCITEGIC>MOL_PROPERTY
Valence
SciTegic.value.DoubleValue
2.779

@<SCITEGIC>MOL_PROPERTY
Coulomb
SciTegic.value.DoubleValue
6.474

@<SCITEGIC>MOL_PROPERTY
VdW
SciTegic.value.DoubleValue
0.815

@<SCITEGIC>MOL_PROPERTY
VdW6
SciTegic.value.DoubleValue
-5.088

@<SCITEGIC>MOL_PROPERTY
VdW12
SciTegic.value.DoubleValue
5.902

@<SCITEGIC>MOL_PROPERTY
Bond
SciTegic.value.DoubleValue
0.078

@<SCITEGIC>MOL_PROPERTY
Angle
SciTegic.value.DoubleValue
2.651

@<SCITEGIC>MOL_PROPERTY
Pdih
SciTegic.value.DoubleValue
0.050

@<SCITEGIC>MOL_PROPERTY
Idih
SciTegic.value.DoubleValue
0.000

@<SCITEGIC>MOL_PROPERTY
Tether
SciTegic.value.DoubleValue
0.000

@<TRIPOS>MOLECULE
guest-s19_confgen4.mol2 : confsearch ligand conformer 952
          17          16           1
SMALL
USER_CHARGES
 
@<TRIPOS>ATOM
       1    C1      20.793334   16.475746   23.328652 C.2        1 MOL1         0.6173
       2    O1      21.887645   16.105313   23.706862 O.co2      1 MOL1        -0.6755
       3    O2      19.890071   15.704574   23.064347 O.co2      1 MOL1        -0.6755
       4    C2      20.572335   17.941047   23.194023 C.2        1 MOL1        -0.1504
       5    H1      21.420465   18.573337   23.446196 H          1 MOL1         0.0814
       6    C3      19.407964   18.492855   22.782523 C.2        1 MOL1        -0.1394
       7    H2      18.554401   17.866510   22.524376 H          1 MOL1         0.0817
       8    C4      19.186909   19.984912   22.643824 C.3        1 MOL1        -0.1849
       9    H3      19.954457   20.542408   23.197727 H          1 MOL1         0.0736
      10    H4      18.225688   20.249138   23.104526 H          1 MOL1         0.0736
      11    C5      19.177420   20.441403   21.168462 C.3        1 MOL1        -0.1866
      12    H5      18.411666   19.882310   20.613039 H          1 MOL1         0.0738
      13    H6      18.887758   21.500271   21.122722 H          1 MOL1         0.0738
      14    C6      20.549490   20.265361   20.483434 C.3        1 MOL1        -0.2879
      15    H7      20.844008   19.208316   20.452292 H          1 MOL1         0.0750
      16    H8      20.515682   20.635563   19.450635 H          1 MOL1         0.0750
      17    H9      21.329585   20.822658   21.018190 H          1 MOL1         0.0750
@<TRIPOS>BOND
    1     1     2    1
    2     1     3    2
    3     1     4    1
    4     4     5    1
    5     4     6    2
    6     6     7    1
    7     6     8    1
    8     8     9    1
    9     8    10    1
   10     8    11    1
   11    11    12    1
   12    11    13    1
   13    11    14    1
   14    14    15    1
   15    14    16    1
   16    14    17    1
@<TRIPOS>SUBSTRUCTURE
       1 MOL1            1 RESIDUE      1      MOL     
@<SCITEGIC>MOL_PROPERTY
VConf Rank
SciTegic.value.IntegerValue
952

@<SCITEGIC>MOL_PROPERTY
Conf_Id
SciTegic.value.IntegerValue
45

@<SCITEGIC>MOL_PROPERTY
Delta U+W
SciTegic.value.DoubleValue
0.562

@<SCITEGIC>MOL_PROPERTY
U+W
SciTegic.value.DoubleValue
-52.846

@<SCITEGIC>MOL_PROPERTY
Grad RMS
SciTegic.value.DoubleValue
0.000000

@<SCITEGIC>MOL_PROPERTY
U
SciTegic.value.DoubleValue
10.243

@<SCITEGIC>MOL_PROPERTY
W
SciTegic.value.DoubleValue
-63.089

@<SCITEGIC>MOL_PROPERTY
W(PB)
SciTegic.value.DoubleValue
-65.116

@<SCITEGIC>MOL_PROPERTY
W(SA)
SciTegic.value.DoubleValue
2.026

@<SCITEGIC>MOL_PROPERTY
Valence
SciTegic.value.DoubleValue
2.822

@<SCITEGIC>MOL_PROPERTY
Coulomb
SciTegic.value.DoubleValue
6.637

@<SCITEGIC>MOL_PROPERTY
VdW
SciTegic.value.DoubleValue
0.785

@<SCITEGIC>MOL_PROPERTY
VdW6
SciTegic.value.DoubleValue
-5.216

@<SCITEGIC>MOL_PROPERTY
VdW12
SciTegic.value.DoubleValue
6.001

@<SCITEGIC>MOL_PROPERTY
Bond
SciTegic.value.DoubleValue
0.080

@<SCITEGIC>MOL_PROPERTY
Angle
SciTegic.value.DoubleValue
2.678

@<SCITEGIC>MOL_PROPERTY
Pdih
SciTegic.value.DoubleValue
0.064

@<SCITEGIC>MOL_PROPERTY
Idih
SciTegic.value.DoubleValue
0.000

@<SCITEGIC>MOL_PROPERTY
Tether
SciTegic.value.DoubleValue
0.000

@<TRIPOS>MOLECULE
guest-s19_confgen4.mol2 : confsearch ligand conformer 953
          17          16           1
SMALL
USER_CHARGES
 
@<TRIPOS>ATOM
       1    C1      19.699040   15.880713   21.011655 C.2        1 MOL1         0.6173
       2    O1      19.888801   14.877774   21.671811 O.co2      1 MOL1        -0.6755
       3    O2      19.578355   15.861765   19.801088 O.co2      1 MOL1        -0.6755
       4    C2      19.612920   17.176211   21.738587 C.2        1 MOL1        -0.1504
       5    H1      19.729196   17.123006   22.818660 H          1 MOL1         0.0814
       6    C3      19.406709   18.367902   21.133249 C.2        1 MOL1        -0.1394
       7    H2      19.291242   18.432948   20.051487 H          1 MOL1         0.0817
       8    C4      19.322583   19.681247   21.879765 C.3        1 MOL1        -0.1849
       9    H3      18.787438   19.540243   22.828736 H          1 MOL1         0.0736
      10    H4      18.734911   20.400536   21.293547 H          1 MOL1         0.0736
      11    C5      20.724713   20.262381   22.154230 C.3        1 MOL1        -0.1866
      12    H5      21.312612   19.545631   22.744318 H          1 MOL1         0.0738
      13    H6      21.257187   20.404420   21.203513 H          1 MOL1         0.0738
      14    C6      20.647346   21.606021   22.906674 C.3        1 MOL1        -0.2879
      15    H7      20.091058   22.351573   22.323470 H          1 MOL1         0.0750
      16    H8      20.146078   21.485149   23.875982 H          1 MOL1         0.0750
      17    H9      21.653561   22.003515   23.092847 H          1 MOL1         0.0750
@<TRIPOS>BOND
    1     1     2    1
    2     1     3    2
    3     1     4    1
    4     4     5    1
    5     4     6    2
    6     6     7    1
    7     6     8    1
    8     8     9    1
    9     8    10    1
   10     8    11    1
   11    11    12    1
   12    11    13    1
   13    11    14    1
   14    14    15    1
   15    14    16    1
   16    14    17    1
@<TRIPOS>SUBSTRUCTURE
       1 MOL1            1 RESIDUE      1      MOL     
@<SCITEGIC>MOL_PROPERTY
VConf Rank
SciTegic.value.IntegerValue
953

@<SCITEGIC>MOL_PROPERTY
Conf_Id
SciTegic.value.IntegerValue
36

@<SCITEGIC>MOL_PROPERTY
Delta U+W
SciTegic.value.DoubleValue
0.000

@<SCITEGIC>MOL_PROPERTY
U+W
SciTegic.value.DoubleValue
-53.409

@<SCITEGIC>MOL_PROPERTY
Grad RMS
SciTegic.value.DoubleValue
0.000000

@<SCITEGIC>MOL_PROPERTY
U
SciTegic.value.DoubleValue
9.048

@<SCITEGIC>MOL_PROPERTY
W
SciTegic.value.DoubleValue
-62.457

@<SCITEGIC>MOL_PROPERTY
W(PB)
SciTegic.value.DoubleValue
-64.540

@<SCITEGIC>MOL_PROPERTY
W(SA)
SciTegic.value.DoubleValue
2.084

@<SCITEGIC>MOL_PROPERTY
Valence
SciTegic.value.DoubleValue
2.652

@<SCITEGIC>MOL_PROPERTY
Coulomb
SciTegic.value.DoubleValue
5.578

@<SCITEGIC>MOL_PROPERTY
VdW
SciTegic.value.DoubleValue
0.818

@<SCITEGIC>MOL_PROPERTY
VdW6
SciTegic.value.DoubleValue
-4.534

@<SCITEGIC>MOL_PROPERTY
VdW12
SciTegic.value.DoubleValue
5.352

@<SCITEGIC>MOL_PROPERTY
Bond
SciTegic.value.DoubleValue
0.063

@<SCITEGIC>MOL_PROPERTY
Angle
SciTegic.value.DoubleValue
2.579

@<SCITEGIC>MOL_PROPERTY
Pdih
SciTegic.value.DoubleValue
0.010

@<SCITEGIC>MOL_PROPERTY
Idih
SciTegic.value.DoubleValue
0.000

@<SCITEGIC>MOL_PROPERTY
Tether
SciTegic.value.DoubleValue
0.000

@<TRIPOS>MOLECULE
guest-s19_confgen4.mol2 : confsearch ligand conformer 954
          17          16           1
SMALL
USER_CHARGES
 
@<TRIPOS>ATOM
       1    C1      22.169193   17.814248   19.655950 C.2        1 MOL1         0.6173
       2    O1      23.079169   17.307525   20.284892 O.co2      1 MOL1        -0.6755
       3    O2      22.210896   17.980162   18.452439 O.co2      1 MOL1        -0.6755
       4    C2      20.940437   18.257068   20.368853 C.2        1 MOL1        -0.1504
       5    H1      20.165741   18.701468   19.748156 H          1 MOL1         0.0814
       6    C3      20.758148   18.135473   21.703421 C.2        1 MOL1        -0.1394
       7    H2      21.528680   17.693727   22.335017 H          1 MOL1         0.0817
       8    C4      19.506079   18.590137   22.420948 C.3        1 MOL1        -0.1849
       9    H3      19.388134   18.019744   23.352145 H          1 MOL1         0.0736
      10    H4      18.621437   18.372576   21.807040 H          1 MOL1         0.0736
      11    C5      19.558668   20.097772   22.742335 C.3        1 MOL1        -0.1866
      12    H5      20.443070   20.312518   23.358195 H          1 MOL1         0.0738
      13    H6      19.672551   20.670199   21.811251 H          1 MOL1         0.0738
      14    C6      18.289870   20.567270   23.482097 C.3        1 MOL1        -0.2879
      15    H7      18.168958   20.032444   24.433292 H          1 MOL1         0.0750
      16    H8      18.345558   21.641353   23.702041 H          1 MOL1         0.0750
      17    H9      17.392903   20.392050   22.873671 H          1 MOL1         0.0750
@<TRIPOS>BOND
    1     1     2    1
    2     1     3    2
    3     1     4    1
    4     4     5    1
    5     4     6    2
    6     6     7    1
    7     6     8    1
    8     8     9    1
    9     8    10    1
   10     8    11    1
   11    11    12    1
   12    11    13    1
   13    11    14    1
   14    14    15    1
   15    14    16    1
   16    14    17    1
@<TRIPOS>SUBSTRUCTURE
       1 MOL1            1 RESIDUE      1      MOL     
@<SCITEGIC>MOL_PROPERTY
VConf Rank
SciTegic.value.IntegerValue
954

@<SCITEGIC>MOL_PROPERTY
Conf_Id
SciTegic.value.IntegerValue
1

@<SCITEGIC>MOL_PROPERTY
Delta U+W
SciTegic.value.DoubleValue
0.030

@<SCITEGIC>MOL_PROPERTY
U+W
SciTegic.value.DoubleValue
-53.378

@<SCITEGIC>MOL_PROPERTY
Grad RMS
SciTegic.value.DoubleValue
0.000000

@<SCITEGIC>MOL_PROPERTY
U
SciTegic.value.DoubleValue
9.048

@<SCITEGIC>MOL_PROPERTY
W
SciTegic.value.DoubleValue
-62.426

@<SCITEGIC>MOL_PROPERTY
W(PB)
SciTegic.value.DoubleValue
-64.506

@<SCITEGIC>MOL_PROPERTY
W(SA)
SciTegic.value.DoubleValue
2.080

@<SCITEGIC>MOL_PROPERTY
Valence
SciTegic.value.DoubleValue
2.652

@<SCITEGIC>MOL_PROPERTY
Coulomb
SciTegic.value.DoubleValue
5.578

@<SCITEGIC>MOL_PROPERTY
VdW
SciTegic.value.DoubleValue
0.818

@<SCITEGIC>MOL_PROPERTY
VdW6
SciTegic.value.DoubleValue
-4.535

@<SCITEGIC>MOL_PROPERTY
VdW12
SciTegic.value.DoubleValue
5.352

@<SCITEGIC>MOL_PROPERTY
Bond
SciTegic.value.DoubleValue
0.063

@<SCITEGIC>MOL_PROPERTY
Angle
SciTegic.value.DoubleValue
2.579

@<SCITEGIC>MOL_PROPERTY
Pdih
SciTegic.value.DoubleValue
0.010

@<SCITEGIC>MOL_PROPERTY
Idih
SciTegic.value.DoubleValue
0.000

@<SCITEGIC>MOL_PROPERTY
Tether
SciTegic.value.DoubleValue
0.000

@<TRIPOS>MOLECULE
guest-s19_confgen4.mol2 : confsearch ligand conformer 955
          17          16           1
SMALL
USER_CHARGES
 
@<TRIPOS>ATOM
       1    C1      18.647831   20.077879   19.472240 C.2        1 MOL1         0.6173
       2    O1      19.422677   19.652971   18.635874 O.co2      1 MOL1        -0.6755
       3    O2      17.526853   20.460787   19.199105 O.co2      1 MOL1        -0.6755
       4    C2      19.068690   20.144870   20.897891 C.2        1 MOL1        -0.1504
       5    H1      18.329218   20.535157   21.593318 H          1 MOL1         0.0814
       6    C3      20.283448   19.752376   21.344318 C.2        1 MOL1        -0.1394
       7    H2      21.030631   19.356696   20.656748 H          1 MOL1         0.0817
       8    C4      20.703363   19.819895   22.797634 C.3        1 MOL1        -0.1849
       9    H3      20.340597   20.756295   23.242697 H          1 MOL1         0.0736
      10    H4      21.798950   19.851709   22.868131 H          1 MOL1         0.0736
      11    C5      20.167428   18.627515   23.620170 C.3        1 MOL1        -0.1866
      12    H5      20.411782   18.783500   24.679940 H          1 MOL1         0.0738
      13    H6      19.071198   18.593788   23.552563 H          1 MOL1         0.0738
      14    C6      20.758455   17.277995   23.159524 C.3        1 MOL1        -0.2879
      15    H7      21.853923   17.284317   23.230631 H          1 MOL1         0.0750
      16    H8      20.382882   16.458405   23.785724 H          1 MOL1         0.0750
      17    H9      20.483631   17.059645   22.119324 H          1 MOL1         0.0750
@<TRIPOS>BOND
    1     1     2    1
    2     1     3    2
    3     1     4    1
    4     4     5    1
    5     4     6    2
    6     6     7    1
    7     6     8    1
    8     8     9    1
    9     8    10    1
   10     8    11    1
   11    11    12    1
   12    11    13    1
   13    11    14    1
   14    14    15    1
   15    14    16    1
   16    14    17    1
@<TRIPOS>SUBSTRUCTURE
       1 MOL1            1 RESIDUE      1      MOL     
@<SCITEGIC>MOL_PROPERTY
VConf Rank
SciTegic.value.IntegerValue
955

@<SCITEGIC>MOL_PROPERTY
Conf_Id
SciTegic.value.IntegerValue
3

@<SCITEGIC>MOL_PROPERTY
Delta U+W
SciTegic.value.DoubleValue
0.531

@<SCITEGIC>MOL_PROPERTY
U+W
SciTegic.value.DoubleValue
-52.878

@<SCITEGIC>MOL_PROPERTY
Grad RMS
SciTegic.value.DoubleValue
0.000000

@<SCITEGIC>MOL_PROPERTY
U
SciTegic.value.DoubleValue
10.067

@<SCITEGIC>MOL_PROPERTY
W
SciTegic.value.DoubleValue
-62.945

@<SCITEGIC>MOL_PROPERTY
W(PB)
SciTegic.value.DoubleValue
-64.982

@<SCITEGIC>MOL_PROPERTY
W(SA)
SciTegic.value.DoubleValue
2.037

@<SCITEGIC>MOL_PROPERTY
Valence
SciTegic.value.DoubleValue
2.779

@<SCITEGIC>MOL_PROPERTY
Coulomb
SciTegic.value.DoubleValue
6.474

@<SCITEGIC>MOL_PROPERTY
VdW
SciTegic.value.DoubleValue
0.815

@<SCITEGIC>MOL_PROPERTY
VdW6
SciTegic.value.DoubleValue
-5.088

@<SCITEGIC>MOL_PROPERTY
VdW12
SciTegic.value.DoubleValue
5.902

@<SCITEGIC>MOL_PROPERTY
Bond
SciTegic.value.DoubleValue
0.078

@<SCITEGIC>MOL_PROPERTY
Angle
SciTegic.value.DoubleValue
2.651

@<SCITEGIC>MOL_PROPERTY
Pdih
SciTegic.value.DoubleValue
0.050

@<SCITEGIC>MOL_PROPERTY
Idih
SciTegic.value.DoubleValue
0.000

@<SCITEGIC>MOL_PROPERTY
Tether
SciTegic.value.DoubleValue
0.000

@<TRIPOS>MOLECULE
guest-s19_confgen4.mol2 : confsearch ligand conformer 956
          17          16           1
SMALL
USER_CHARGES
 
@<TRIPOS>ATOM
       1    C1      18.426151   21.379918   23.306576 C.2        1 MOL1         0.6173
       2    O1      18.805581   22.488015   23.632053 O.co2      1 MOL1        -0.6755
       3    O2      17.415234   20.870583   23.752751 O.co2      1 MOL1        -0.6755
       4    C2      19.249111   20.635172   22.315536 C.2        1 MOL1        -0.1504
       5    H1      20.138870   21.147918   21.957589 H          1 MOL1         0.0814
       6    C3      18.948282   19.395434   21.865938 C.2        1 MOL1        -0.1394
       7    H2      18.060714   18.873062   22.222125 H          1 MOL1         0.0817
       8    C4      19.789581   18.638683   20.859022 C.3        1 MOL1        -0.1849
       9    H3      20.467719   19.322415   20.330459 H          1 MOL1         0.0736
      10    H4      19.130907   18.209020   20.092505 H          1 MOL1         0.0736
      11    C5      20.605042   17.501818   21.513031 C.3        1 MOL1        -0.1866
      12    H5      19.927674   16.818836   22.044225 H          1 MOL1         0.0738
      13    H6      21.091995   16.910871   20.725087 H          1 MOL1         0.0738
      14    C6      21.682231   18.027267   22.485862 C.3        1 MOL1        -0.2879
      15    H7      21.227564   18.570165   23.324666 H          1 MOL1         0.0750
      16    H8      22.266453   17.195720   22.900689 H          1 MOL1         0.0750
      17    H9      22.375771   18.706825   21.973715 H          1 MOL1         0.0750
@<TRIPOS>BOND
    1     1     2    1
    2     1     3    2
    3     1     4    1
    4     4     5    1
    5     4     6    2
    6     6     7    1
    7     6     8    1
    8     8     9    1
    9     8    10    1
   10     8    11    1
   11    11    12    1
   12    11    13    1
   13    11    14    1
   14    14    15    1
   15    14    16    1
   16    14    17    1
@<TRIPOS>SUBSTRUCTURE
       1 MOL1            1 RESIDUE      1      MOL     
@<SCITEGIC>MOL_PROPERTY
VConf Rank
SciTegic.value.IntegerValue
956

@<SCITEGIC>MOL_PROPERTY
Conf_Id
SciTegic.value.IntegerValue
45

@<SCITEGIC>MOL_PROPERTY
Delta U+W
SciTegic.value.DoubleValue
0.562

@<SCITEGIC>MOL_PROPERTY
U+W
SciTegic.value.DoubleValue
-52.846

@<SCITEGIC>MOL_PROPERTY
Grad RMS
SciTegic.value.DoubleValue
0.000000

@<SCITEGIC>MOL_PROPERTY
U
SciTegic.value.DoubleValue
10.243

@<SCITEGIC>MOL_PROPERTY
W
SciTegic.value.DoubleValue
-63.089

@<SCITEGIC>MOL_PROPERTY
W(PB)
SciTegic.value.DoubleValue
-65.116

@<SCITEGIC>MOL_PROPERTY
W(SA)
SciTegic.value.DoubleValue
2.026

@<SCITEGIC>MOL_PROPERTY
Valence
SciTegic.value.DoubleValue
2.822

@<SCITEGIC>MOL_PROPERTY
Coulomb
SciTegic.value.DoubleValue
6.637

@<SCITEGIC>MOL_PROPERTY
VdW
SciTegic.value.DoubleValue
0.785

@<SCITEGIC>MOL_PROPERTY
VdW6
SciTegic.value.DoubleValue
-5.216

@<SCITEGIC>MOL_PROPERTY
VdW12
SciTegic.value.DoubleValue
6.001

@<SCITEGIC>MOL_PROPERTY
Bond
SciTegic.value.DoubleValue
0.080

@<SCITEGIC>MOL_PROPERTY
Angle
SciTegic.value.DoubleValue
2.678

@<SCITEGIC>MOL_PROPERTY
Pdih
SciTegic.value.DoubleValue
0.064

@<SCITEGIC>MOL_PROPERTY
Idih
SciTegic.value.DoubleValue
0.000

@<SCITEGIC>MOL_PROPERTY
Tether
SciTegic.value.DoubleValue
0.000

@<TRIPOS>MOLECULE
guest-s19_confgen4.mol2 : confsearch ligand conformer 957
          17          16           1
SMALL
USER_CHARGES
 
@<TRIPOS>ATOM
       1    C1      18.680301   17.488365   19.267828 C.2        1 MOL1         0.6173
       2    O1      17.645953   17.704625   18.666946 O.co2      1 MOL1        -0.6755
       3    O2      19.321423   16.463261   19.131741 O.co2      1 MOL1        -0.6755
       4    C2      19.164045   18.538873   20.204090 C.2        1 MOL1        -0.1504
       5    H1      18.544639   19.429750   20.278812 H          1 MOL1         0.0814
       6    C3      20.295639   18.432190   20.937028 C.2        1 MOL1        -0.1394
       7    H2      20.922386   17.542986   20.871634 H          1 MOL1         0.0817
       8    C4      20.779448   19.504394   21.888630 C.3        1 MOL1        -0.1849
       9    H3      20.591545   20.498696   21.461002 H          1 MOL1         0.0736
      10    H4      21.867081   19.419538   22.016065 H          1 MOL1         0.0736
      11    C5      20.088285   19.389644   23.262726 C.3        1 MOL1        -0.1866
      12    H5      19.000183   19.478561   23.137473 H          1 MOL1         0.0738
      13    H6      20.279363   18.395111   23.689295 H          1 MOL1         0.0738
      14    C6      20.582979   20.473384   24.241660 C.3        1 MOL1        -0.2879
      15    H7      21.664535   20.387083   24.409651 H          1 MOL1         0.0750
      16    H8      20.375509   21.478749   23.852260 H          1 MOL1         0.0750
      17    H9      20.080437   20.375827   25.212775 H          1 MOL1         0.0750
@<TRIPOS>BOND
    1     1     2    1
    2     1     3    2
    3     1     4    1
    4     4     5    1
    5     4     6    2
    6     6     7    1
    7     6     8    1
    8     8     9    1
    9     8    10    1
   10     8    11    1
   11    11    12    1
   12    11    13    1
   13    11    14    1
   14    14    15    1
   15    14    16    1
   16    14    17    1
@<TRIPOS>SUBSTRUCTURE
       1 MOL1            1 RESIDUE      1      MOL     
@<SCITEGIC>MOL_PROPERTY
VConf Rank
SciTegic.value.IntegerValue
957

@<SCITEGIC>MOL_PROPERTY
Conf_Id
SciTegic.value.IntegerValue
36

@<SCITEGIC>MOL_PROPERTY
Delta U+W
SciTegic.value.DoubleValue
0.000

@<SCITEGIC>MOL_PROPERTY
U+W
SciTegic.value.DoubleValue
-53.409

@<SCITEGIC>MOL_PROPERTY
Grad RMS
SciTegic.value.DoubleValue
0.000000

@<SCITEGIC>MOL_PROPERTY
U
SciTegic.value.DoubleValue
9.048

@<SCITEGIC>MOL_PROPERTY
W
SciTegic.value.DoubleValue
-62.457

@<SCITEGIC>MOL_PROPERTY
W(PB)
SciTegic.value.DoubleValue
-64.540

@<SCITEGIC>MOL_PROPERTY
W(SA)
SciTegic.value.DoubleValue
2.084

@<SCITEGIC>MOL_PROPERTY
Valence
SciTegic.value.DoubleValue
2.652

@<SCITEGIC>MOL_PROPERTY
Coulomb
SciTegic.value.DoubleValue
5.578

@<SCITEGIC>MOL_PROPERTY
VdW
SciTegic.value.DoubleValue
0.818

@<SCITEGIC>MOL_PROPERTY
VdW6
SciTegic.value.DoubleValue
-4.534

@<SCITEGIC>MOL_PROPERTY
VdW12
SciTegic.value.DoubleValue
5.352

@<SCITEGIC>MOL_PROPERTY
Bond
SciTegic.value.DoubleValue
0.063

@<SCITEGIC>MOL_PROPERTY
Angle
SciTegic.value.DoubleValue
2.579

@<SCITEGIC>MOL_PROPERTY
Pdih
SciTegic.value.DoubleValue
0.010

@<SCITEGIC>MOL_PROPERTY
Idih
SciTegic.value.DoubleValue
0.000

@<SCITEGIC>MOL_PROPERTY
Tether
SciTegic.value.DoubleValue
0.000

@<TRIPOS>MOLECULE
guest-s19_confgen4.mol2 : confsearch ligand conformer 958
          17          16           1
SMALL
USER_CHARGES
 
@<TRIPOS>ATOM
       1    C1      18.427903   16.570545   20.333329 C.2        1 MOL1         0.6173
       2    O1      17.801189   15.962441   21.180579 O.co2      1 MOL1        -0.6755
       3    O2      18.578581   16.157071   19.200173 O.co2      1 MOL1        -0.6755
       4    C2      19.045110   17.880719   20.674885 C.2        1 MOL1        -0.1504
       5    H1      19.590990   18.371753   19.872507 H          1 MOL1         0.0814
       6    C3      18.959082   18.459408   21.894230 C.2        1 MOL1        -0.1394
       7    H2      18.416488   17.975131   22.705920 H          1 MOL1         0.0817
       8    C4      19.591350   19.791369   22.233874 C.3        1 MOL1        -0.1849
       9    H3      19.049384   20.253187   23.070167 H          1 MOL1         0.0736
      10    H4      19.497624   20.479508   21.382706 H          1 MOL1         0.0736
      11    C5      21.078276   19.627990   22.609871 C.3        1 MOL1        -0.1866
      12    H5      21.169262   18.941035   23.462737 H          1 MOL1         0.0738
      13    H6      21.622833   19.169771   21.772582 H          1 MOL1         0.0738
      14    C6      21.727743   20.980233   22.966460 C.3        1 MOL1        -0.2879
      15    H7      21.221532   21.445802   23.822279 H          1 MOL1         0.0750
      16    H8      22.784430   20.843956   23.230981 H          1 MOL1         0.0750
      17    H9      21.677713   21.675814   22.118462 H          1 MOL1         0.0750
@<TRIPOS>BOND
    1     1     2    1
    2     1     3    2
    3     1     4    1
    4     4     5    1
    5     4     6    2
    6     6     7    1
    7     6     8    1
    8     8     9    1
    9     8    10    1
   10     8    11    1
   11    11    12    1
   12    11    13    1
   13    11    14    1
   14    14    15    1
   15    14    16    1
   16    14    17    1
@<TRIPOS>SUBSTRUCTURE
       1 MOL1            1 RESIDUE      1      MOL     
@<SCITEGIC>MOL_PROPERTY
VConf Rank
SciTegic.value.IntegerValue
958

@<SCITEGIC>MOL_PROPERTY
Conf_Id
SciTegic.value.IntegerValue
1

@<SCITEGIC>MOL_PROPERTY
Delta U+W
SciTegic.value.DoubleValue
0.030

@<SCITEGIC>MOL_PROPERTY
U+W
SciTegic.value.DoubleValue
-53.378

@<SCITEGIC>MOL_PROPERTY
Grad RMS
SciTegic.value.DoubleValue
0.000000

@<SCITEGIC>MOL_PROPERTY
U
SciTegic.value.DoubleValue
9.048

@<SCITEGIC>MOL_PROPERTY
W
SciTegic.value.DoubleValue
-62.426

@<SCITEGIC>MOL_PROPERTY
W(PB)
SciTegic.value.DoubleValue
-64.506

@<SCITEGIC>MOL_PROPERTY
W(SA)
SciTegic.value.DoubleValue
2.080

@<SCITEGIC>MOL_PROPERTY
Valence
SciTegic.value.DoubleValue
2.652

@<SCITEGIC>MOL_PROPERTY
Coulomb
SciTegic.value.DoubleValue
5.578

@<SCITEGIC>MOL_PROPERTY
VdW
SciTegic.value.DoubleValue
0.818

@<SCITEGIC>MOL_PROPERTY
VdW6
SciTegic.value.DoubleValue
-4.535

@<SCITEGIC>MOL_PROPERTY
VdW12
SciTegic.value.DoubleValue
5.352

@<SCITEGIC>MOL_PROPERTY
Bond
SciTegic.value.DoubleValue
0.063

@<SCITEGIC>MOL_PROPERTY
Angle
SciTegic.value.DoubleValue
2.579

@<SCITEGIC>MOL_PROPERTY
Pdih
SciTegic.value.DoubleValue
0.010

@<SCITEGIC>MOL_PROPERTY
Idih
SciTegic.value.DoubleValue
0.000

@<SCITEGIC>MOL_PROPERTY
Tether
SciTegic.value.DoubleValue
0.000

@<TRIPOS>MOLECULE
guest-s19_confgen4.mol2 : confsearch ligand conformer 959
          17          16           1
SMALL
USER_CHARGES
 
@<TRIPOS>ATOM
       1    C1      20.712369   22.010856   21.363198 C.2        1 MOL1         0.6173
       2    O1      21.765717   22.131382   21.960167 O.co2      1 MOL1        -0.6755
       3    O2      20.345879   22.792381   20.507210 O.co2      1 MOL1        -0.6755
       4    C2      19.814681   20.867037   21.679308 C.2        1 MOL1        -0.1504
       5    H1      18.889027   20.818742   21.110456 H          1 MOL1         0.0814
       6    C3      20.095171   19.922530   22.605709 C.2        1 MOL1        -0.1394
       7    H2      21.021254   19.959387   23.178953 H          1 MOL1         0.0817
       8    C4      19.178300   18.758907   22.919307 C.3        1 MOL1        -0.1849
       9    H3      18.135491   19.103850   22.928787 H          1 MOL1         0.0736
      10    H4      19.385546   18.382785   23.930185 H          1 MOL1         0.0736
      11    C5      19.321217   17.606974   21.900392 C.3        1 MOL1        -0.1866
      12    H5      18.562640   16.841635   22.114796 H          1 MOL1         0.0738
      13    H6      19.113200   17.980021   20.887973 H          1 MOL1         0.0738
      14    C6      20.719936   16.955087   21.937040 C.3        1 MOL1        -0.2879
      15    H7      20.944499   16.563313   22.937654 H          1 MOL1         0.0750
      16    H8      20.775509   16.120667   21.226011 H          1 MOL1         0.0750
      17    H9      21.501119   17.678247   21.668687 H          1 MOL1         0.0750
@<TRIPOS>BOND
    1     1     2    1
    2     1     3    2
    3     1     4    1
    4     4     5    1
    5     4     6    2
    6     6     7    1
    7     6     8    1
    8     8     9    1
    9     8    10    1
   10     8    11    1
   11    11    12    1
   12    11    13    1
   13    11    14    1
   14    14    15    1
   15    14    16    1
   16    14    17    1
@<TRIPOS>SUBSTRUCTURE
       1 MOL1            1 RESIDUE      1      MOL     
@<SCITEGIC>MOL_PROPERTY
VConf Rank
SciTegic.value.IntegerValue
959

@<SCITEGIC>MOL_PROPERTY
Conf_Id
SciTegic.value.IntegerValue
3

@<SCITEGIC>MOL_PROPERTY
Delta U+W
SciTegic.value.DoubleValue
0.531

@<SCITEGIC>MOL_PROPERTY
U+W
SciTegic.value.DoubleValue
-52.878

@<SCITEGIC>MOL_PROPERTY
Grad RMS
SciTegic.value.DoubleValue
0.000000

@<SCITEGIC>MOL_PROPERTY
U
SciTegic.value.DoubleValue
10.067

@<SCITEGIC>MOL_PROPERTY
W
SciTegic.value.DoubleValue
-62.945

@<SCITEGIC>MOL_PROPERTY
W(PB)
SciTegic.value.DoubleValue
-64.982

@<SCITEGIC>MOL_PROPERTY
W(SA)
SciTegic.value.DoubleValue
2.037

@<SCITEGIC>MOL_PROPERTY
Valence
SciTegic.value.DoubleValue
2.779

@<SCITEGIC>MOL_PROPERTY
Coulomb
SciTegic.value.DoubleValue
6.474

@<SCITEGIC>MOL_PROPERTY
VdW
SciTegic.value.DoubleValue
0.815

@<SCITEGIC>MOL_PROPERTY
VdW6
SciTegic.value.DoubleValue
-5.088

@<SCITEGIC>MOL_PROPERTY
VdW12
SciTegic.value.DoubleValue
5.902

@<SCITEGIC>MOL_PROPERTY
Bond
SciTegic.value.DoubleValue
0.078

@<SCITEGIC>MOL_PROPERTY
Angle
SciTegic.value.DoubleValue
2.651

@<SCITEGIC>MOL_PROPERTY
Pdih
SciTegic.value.DoubleValue
0.050

@<SCITEGIC>MOL_PROPERTY
Idih
SciTegic.value.DoubleValue
0.000

@<SCITEGIC>MOL_PROPERTY
Tether
SciTegic.value.DoubleValue
0.000

@<TRIPOS>MOLECULE
guest-s19_confgen4.mol2 : confsearch ligand conformer 960
          17          16           1
SMALL
USER_CHARGES
 
@<TRIPOS>ATOM
       1    C1      17.384370   19.620917   23.534212 C.2        1 MOL1         0.6173
       2    O1      16.747199   18.889625   24.267019 O.co2      1 MOL1        -0.6755
       3    O2      16.895064   20.584159   22.974575 O.co2      1 MOL1        -0.6755
       4    C2      18.824273   19.305445   23.331165 C.2        1 MOL1        -0.1504
       5    H1      19.197152   18.431630   23.860424 H          1 MOL1         0.0814
       6    C3      19.650635   20.030232   22.542880 C.2        1 MOL1        -0.1394
       7    H2      19.284357   20.905027   22.006137 H          1 MOL1         0.0817
       8    C4      21.115459   19.704932   22.335986 C.3        1 MOL1        -0.1849
       9    H3      21.474950   19.025350   23.120634 H          1 MOL1         0.0736
      10    H4      21.704800   20.626119   22.436497 H          1 MOL1         0.0736
      11    C5      21.387861   19.085097   20.947905 C.3        1 MOL1        -0.1866
      12    H5      21.026152   19.763098   20.162450 H          1 MOL1         0.0738
      13    H6      22.473018   18.989573   20.804695 H          1 MOL1         0.0738
      14    C6      20.734180   17.696974   20.778651 C.3        1 MOL1        -0.2879
      15    H7      19.640801   17.762454   20.851380 H          1 MOL1         0.0750
      16    H8      20.981002   17.271056   19.797560 H          1 MOL1         0.0750
      17    H9      21.087607   17.000033   21.549660 H          1 MOL1         0.0750
@<TRIPOS>BOND
    1     1     2    1
    2     1     3    2
    3     1     4    1
    4     4     5    1
    5     4     6    2
    6     6     7    1
    7     6     8    1
    8     8     9    1
    9     8    10    1
   10     8    11    1
   11    11    12    1
   12    11    13    1
   13    11    14    1
   14    14    15    1
   15    14    16    1
   16    14    17    1
@<TRIPOS>SUBSTRUCTURE
       1 MOL1            1 RESIDUE      1      MOL     
@<SCITEGIC>MOL_PROPERTY
VConf Rank
SciTegic.value.IntegerValue
960

@<SCITEGIC>MOL_PROPERTY
Conf_Id
SciTegic.value.IntegerValue
45

@<SCITEGIC>MOL_PROPERTY
Delta U+W
SciTegic.value.DoubleValue
0.562

@<SCITEGIC>MOL_PROPERTY
U+W
SciTegic.value.DoubleValue
-52.846

@<SCITEGIC>MOL_PROPERTY
Grad RMS
SciTegic.value.DoubleValue
0.000000

@<SCITEGIC>MOL_PROPERTY
U
SciTegic.value.DoubleValue
10.243

@<SCITEGIC>MOL_PROPERTY
W
SciTegic.value.DoubleValue
-63.089

@<SCITEGIC>MOL_PROPERTY
W(PB)
SciTegic.value.DoubleValue
-65.116

@<SCITEGIC>MOL_PROPERTY
W(SA)
SciTegic.value.DoubleValue
2.026

@<SCITEGIC>MOL_PROPERTY
Valence
SciTegic.value.DoubleValue
2.822

@<SCITEGIC>MOL_PROPERTY
Coulomb
SciTegic.value.DoubleValue
6.637

@<SCITEGIC>MOL_PROPERTY
VdW
SciTegic.value.DoubleValue
0.785

@<SCITEGIC>MOL_PROPERTY
VdW6
SciTegic.value.DoubleValue
-5.216

@<SCITEGIC>MOL_PROPERTY
VdW12
SciTegic.value.DoubleValue
6.001

@<SCITEGIC>MOL_PROPERTY
Bond
SciTegic.value.DoubleValue
0.080

@<SCITEGIC>MOL_PROPERTY
Angle
SciTegic.value.DoubleValue
2.678

@<SCITEGIC>MOL_PROPERTY
Pdih
SciTegic.value.DoubleValue
0.064

@<SCITEGIC>MOL_PROPERTY
Idih
SciTegic.value.DoubleValue
0.000

@<SCITEGIC>MOL_PROPERTY
Tether
SciTegic.value.DoubleValue
0.000

@<TRIPOS>MOLECULE
guest-s19_confgen4.mol2 : confsearch ligand conformer 961
          17          16           1
SMALL
USER_CHARGES
 
@<TRIPOS>ATOM
       1    C1      17.585951   18.598667   19.608314 C.2        1 MOL1         0.6173
       2    O1      17.117624   17.550982   19.207403 O.co2      1 MOL1        -0.6755
       3    O2      17.397307   19.663144   19.050016 O.co2      1 MOL1        -0.6755
       4    C2      18.421977   18.551974   20.838372 C.2        1 MOL1        -0.1504
       5    H1      18.550782   17.569909   21.287668 H          1 MOL1         0.0814
       6    C3      19.005571   19.637777   21.394730 C.2        1 MOL1        -0.1394
       7    H2      18.885018   20.626093   20.951479 H          1 MOL1         0.0817
       8    C4      19.856181   19.581316   22.644735 C.3        1 MOL1        -0.1849
       9    H3      19.428464   18.863570   23.357972 H          1 MOL1         0.0736
      10    H4      19.844625   20.560580   23.142022 H          1 MOL1         0.0736
      11    C5      21.310627   19.185879   22.317275 C.3        1 MOL1        -0.1866
      12    H5      21.324292   18.204313   21.823411 H          1 MOL1         0.0738
      13    H6      21.736892   19.906339   21.605373 H          1 MOL1         0.0738
      14    C6      22.186601   19.135264   23.585200 C.3        1 MOL1        -0.2879
      15    H7      22.216071   20.114000   24.081828 H          1 MOL1         0.0750
      16    H8      21.798987   18.398811   24.301320 H          1 MOL1         0.0750
      17    H9      23.216782   18.852418   23.332502 H          1 MOL1         0.0750
@<TRIPOS>BOND
    1     1     2    1
    2     1     3    2
    3     1     4    1
    4     4     5    1
    5     4     6    2
    6     6     7    1
    7     6     8    1
    8     8     9    1
    9     8    10    1
   10     8    11    1
   11    11    12    1
   12    11    13    1
   13    11    14    1
   14    14    15    1
   15    14    16    1
   16    14    17    1
@<TRIPOS>SUBSTRUCTURE
       1 MOL1            1 RESIDUE      1      MOL     
@<SCITEGIC>MOL_PROPERTY
VConf Rank
SciTegic.value.IntegerValue
961

@<SCITEGIC>MOL_PROPERTY
Conf_Id
SciTegic.value.IntegerValue
36

@<SCITEGIC>MOL_PROPERTY
Delta U+W
SciTegic.value.DoubleValue
0.000

@<SCITEGIC>MOL_PROPERTY
U+W
SciTegic.value.DoubleValue
-53.409

@<SCITEGIC>MOL_PROPERTY
Grad RMS
SciTegic.value.DoubleValue
0.000000

@<SCITEGIC>MOL_PROPERTY
U
SciTegic.value.DoubleValue
9.048

@<SCITEGIC>MOL_PROPERTY
W
SciTegic.value.DoubleValue
-62.457

@<SCITEGIC>MOL_PROPERTY
W(PB)
SciTegic.value.DoubleValue
-64.540

@<SCITEGIC>MOL_PROPERTY
W(SA)
SciTegic.value.DoubleValue
2.084

@<SCITEGIC>MOL_PROPERTY
Valence
SciTegic.value.DoubleValue
2.652

@<SCITEGIC>MOL_PROPERTY
Coulomb
SciTegic.value.DoubleValue
5.578

@<SCITEGIC>MOL_PROPERTY
VdW
SciTegic.value.DoubleValue
0.818

@<SCITEGIC>MOL_PROPERTY
VdW6
SciTegic.value.DoubleValue
-4.534

@<SCITEGIC>MOL_PROPERTY
VdW12
SciTegic.value.DoubleValue
5.352

@<SCITEGIC>MOL_PROPERTY
Bond
SciTegic.value.DoubleValue
0.063

@<SCITEGIC>MOL_PROPERTY
Angle
SciTegic.value.DoubleValue
2.579

@<SCITEGIC>MOL_PROPERTY
Pdih
SciTegic.value.DoubleValue
0.010

@<SCITEGIC>MOL_PROPERTY
Idih
SciTegic.value.DoubleValue
0.000

@<SCITEGIC>MOL_PROPERTY
Tether
SciTegic.value.DoubleValue
0.000

@<TRIPOS>MOLECULE
guest-s19_confgen4.mol2 : confsearch ligand conformer 962
          17          16           1
SMALL
USER_CHARGES
 
@<TRIPOS>ATOM
       1    C1      21.512003   21.803679   20.576657 C.2        1 MOL1         0.6173
       2    O1      21.021943   22.778715   21.114747 O.co2      1 MOL1        -0.6755
       3    O2      22.234582   21.881010   19.602180 O.co2      1 MOL1        -0.6755
       4    C2      21.230283   20.446453   21.117706 C.2        1 MOL1        -0.1504
       5    H1      21.699078   19.618664   20.590538 H          1 MOL1         0.0814
       6    C3      20.444799   20.211950   22.193395 C.2        1 MOL1        -0.1394
       7    H2      19.968445   21.033782   22.727673 H          1 MOL1         0.0817
       8    C4      20.161868   18.828251   22.736137 C.3        1 MOL1        -0.1849
       9    H3      19.901962   18.896931   23.801087 H          1 MOL1         0.0736
      10    H4      21.066785   18.208451   22.674657 H          1 MOL1         0.0736
      11    C5      19.011327   18.147344   21.966956 C.3        1 MOL1        -0.1866
      12    H5      18.106836   18.768043   22.031724 H          1 MOL1         0.0738
      13    H6      19.271523   18.074133   20.901828 H          1 MOL1         0.0738
      14    C6      18.710539   16.739883   22.520222 C.3        1 MOL1        -0.2879
      15    H7      18.416486   16.787580   23.576957 H          1 MOL1         0.0750
      16    H8      17.890012   16.271730   21.961028 H          1 MOL1         0.0750
      17    H9      19.591019   16.089135   22.438253 H          1 MOL1         0.0750
@<TRIPOS>BOND
    1     1     2    1
    2     1     3    2
    3     1     4    1
    4     4     5    1
    5     4     6    2
    6     6     7    1
    7     6     8    1
    8     8     9    1
    9     8    10    1
   10     8    11    1
   11    11    12    1
   12    11    13    1
   13    11    14    1
   14    14    15    1
   15    14    16    1
   16    14    17    1
@<TRIPOS>SUBSTRUCTURE
       1 MOL1            1 RESIDUE      1      MOL     
@<SCITEGIC>MOL_PROPERTY
VConf Rank
SciTegic.value.IntegerValue
962

@<SCITEGIC>MOL_PROPERTY
Conf_Id
SciTegic.value.IntegerValue
1

@<SCITEGIC>MOL_PROPERTY
Delta U+W
SciTegic.value.DoubleValue
0.030

@<SCITEGIC>MOL_PROPERTY
U+W
SciTegic.value.DoubleValue
-53.378

@<SCITEGIC>MOL_PROPERTY
Grad RMS
SciTegic.value.DoubleValue
0.000000

@<SCITEGIC>MOL_PROPERTY
U
SciTegic.value.DoubleValue
9.048

@<SCITEGIC>MOL_PROPERTY
W
SciTegic.value.DoubleValue
-62.426

@<SCITEGIC>MOL_PROPERTY
W(PB)
SciTegic.value.DoubleValue
-64.506

@<SCITEGIC>MOL_PROPERTY
W(SA)
SciTegic.value.DoubleValue
2.080

@<SCITEGIC>MOL_PROPERTY
Valence
SciTegic.value.DoubleValue
2.652

@<SCITEGIC>MOL_PROPERTY
Coulomb
SciTegic.value.DoubleValue
5.578

@<SCITEGIC>MOL_PROPERTY
VdW
SciTegic.value.DoubleValue
0.818

@<SCITEGIC>MOL_PROPERTY
VdW6
SciTegic.value.DoubleValue
-4.535

@<SCITEGIC>MOL_PROPERTY
VdW12
SciTegic.value.DoubleValue
5.352

@<SCITEGIC>MOL_PROPERTY
Bond
SciTegic.value.DoubleValue
0.063

@<SCITEGIC>MOL_PROPERTY
Angle
SciTegic.value.DoubleValue
2.579

@<SCITEGIC>MOL_PROPERTY
Pdih
SciTegic.value.DoubleValue
0.010

@<SCITEGIC>MOL_PROPERTY
Idih
SciTegic.value.DoubleValue
0.000

@<SCITEGIC>MOL_PROPERTY
Tether
SciTegic.value.DoubleValue
0.000

@<TRIPOS>MOLECULE
guest-s19_confgen4.mol2 : confsearch ligand conformer 963
          17          16           1
SMALL
USER_CHARGES
 
@<TRIPOS>ATOM
       1    C1      18.054915   21.067780   23.366419 C.2        1 MOL1         0.6173
       2    O1      17.563527   21.579073   22.377704 O.co2      1 MOL1        -0.6755
       3    O2      17.563426   21.166747   24.473874 O.co2      1 MOL1        -0.6755
       4    C2      19.314173   20.285109   23.240773 C.2        1 MOL1        -0.1504
       5    H1      19.700261   19.855830   24.162411 H          1 MOL1         0.0814
       6    C3      19.968185   20.092071   22.072873 C.2        1 MOL1        -0.1394
       7    H2      19.588387   20.514795   21.143005 H          1 MOL1         0.0817
       8    C4      21.247464   19.290904   21.952081 C.3        1 MOL1        -0.1849
       9    H3      21.903436   19.513698   22.804484 H          1 MOL1         0.0736
      10    H4      21.797708   19.600239   21.053283 H          1 MOL1         0.0736
      11    C5      20.985369   17.769702   21.899048 C.3        1 MOL1        -0.1866
      12    H5      21.947018   17.238660   21.918505 H          1 MOL1         0.0738
      13    H6      20.435945   17.456940   22.797792 H          1 MOL1         0.0738
      14    C6      20.201749   17.348183   20.637710 C.3        1 MOL1        -0.2879
      15    H7      20.739011   17.639855   19.725887 H          1 MOL1         0.0750
      16    H8      20.062754   16.259560   20.615649 H          1 MOL1         0.0750
      17    H9      19.208230   17.814653   20.614333 H          1 MOL1         0.0750
@<TRIPOS>BOND
    1     1     2    1
    2     1     3    2
    3     1     4    1
    4     4     5    1
    5     4     6    2
    6     6     7    1
    7     6     8    1
    8     8     9    1
    9     8    10    1
   10     8    11    1
   11    11    12    1
   12    11    13    1
   13    11    14    1
   14    14    15    1
   15    14    16    1
   16    14    17    1
@<TRIPOS>SUBSTRUCTURE
       1 MOL1            1 RESIDUE      1      MOL     
@<SCITEGIC>MOL_PROPERTY
VConf Rank
SciTegic.value.IntegerValue
963

@<SCITEGIC>MOL_PROPERTY
Conf_Id
SciTegic.value.IntegerValue
3

@<SCITEGIC>MOL_PROPERTY
Delta U+W
SciTegic.value.DoubleValue
0.531

@<SCITEGIC>MOL_PROPERTY
U+W
SciTegic.value.DoubleValue
-52.878

@<SCITEGIC>MOL_PROPERTY
Grad RMS
SciTegic.value.DoubleValue
0.000000

@<SCITEGIC>MOL_PROPERTY
U
SciTegic.value.DoubleValue
10.067

@<SCITEGIC>MOL_PROPERTY
W
SciTegic.value.DoubleValue
-62.945

@<SCITEGIC>MOL_PROPERTY
W(PB)
SciTegic.value.DoubleValue
-64.982

@<SCITEGIC>MOL_PROPERTY
W(SA)
SciTegic.value.DoubleValue
2.037

@<SCITEGIC>MOL_PROPERTY
Valence
SciTegic.value.DoubleValue
2.779

@<SCITEGIC>MOL_PROPERTY
Coulomb
SciTegic.value.DoubleValue
6.474

@<SCITEGIC>MOL_PROPERTY
VdW
SciTegic.value.DoubleValue
0.815

@<SCITEGIC>MOL_PROPERTY
VdW6
SciTegic.value.DoubleValue
-5.088

@<SCITEGIC>MOL_PROPERTY
VdW12
SciTegic.value.DoubleValue
5.902

@<SCITEGIC>MOL_PROPERTY
Bond
SciTegic.value.DoubleValue
0.078

@<SCITEGIC>MOL_PROPERTY
Angle
SciTegic.value.DoubleValue
2.651

@<SCITEGIC>MOL_PROPERTY
Pdih
SciTegic.value.DoubleValue
0.050

@<SCITEGIC>MOL_PROPERTY
Idih
SciTegic.value.DoubleValue
0.000

@<SCITEGIC>MOL_PROPERTY
Tether
SciTegic.value.DoubleValue
0.000

@<TRIPOS>MOLECULE
guest-s19_confgen4.mol2 : confsearch ligand conformer 964
          17          16           1
SMALL
USER_CHARGES
 
@<TRIPOS>ATOM
       1    C1      18.121715   21.336393   22.896681 C.2        1 MOL1         0.6173
       2    O1      16.988573   21.577219   22.528209 O.co2      1 MOL1        -0.6755
       3    O2      18.842017   22.173568   23.407317 O.co2      1 MOL1        -0.6755
       4    C2      18.625941   19.949345   22.707137 C.2        1 MOL1        -0.1504
       5    H1      17.931325   19.251605   22.245212 H          1 MOL1         0.0814
       6    C3      19.864400   19.541920   23.067428 C.2        1 MOL1        -0.1394
       7    H2      20.567909   20.235423   23.527480 H          1 MOL1         0.0817
       8    C4      20.375812   18.129805   22.870644 C.3        1 MOL1        -0.1849
       9    H3      19.540989   17.437083   22.697590 H          1 MOL1         0.0736
      10    H4      20.864775   17.793706   23.794744 H          1 MOL1         0.0736
      11    C5      21.384116   18.028652   21.705202 C.3        1 MOL1        -0.1866
      12    H5      22.218250   18.723228   21.876215 H          1 MOL1         0.0738
      13    H6      21.815173   17.018117   21.690838 H          1 MOL1         0.0738
      14    C6      20.737864   18.319227   20.333796 C.3        1 MOL1        -0.2879
      15    H7      20.351503   19.345692   20.287445 H          1 MOL1         0.0750
      16    H8      21.473089   18.199960   19.527517 H          1 MOL1         0.0750
      17    H9      19.905430   17.630779   20.138378 H          1 MOL1         0.0750
@<TRIPOS>BOND
    1     1     2    1
    2     1     3    2
    3     1     4    1
    4     4     5    1
    5     4     6    2
    6     6     7    1
    7     6     8    1
    8     8     9    1
    9     8    10    1
   10     8    11    1
   11    11    12    1
   12    11    13    1
   13    11    14    1
   14    14    15    1
   15    14    16    1
   16    14    17    1
@<TRIPOS>SUBSTRUCTURE
       1 MOL1            1 RESIDUE      1      MOL     
@<SCITEGIC>MOL_PROPERTY
VConf Rank
SciTegic.value.IntegerValue
964

@<SCITEGIC>MOL_PROPERTY
Conf_Id
SciTegic.value.IntegerValue
45

@<SCITEGIC>MOL_PROPERTY
Delta U+W
SciTegic.value.DoubleValue
0.562

@<SCITEGIC>MOL_PROPERTY
U+W
SciTegic.value.DoubleValue
-52.846

@<SCITEGIC>MOL_PROPERTY
Grad RMS
SciTegic.value.DoubleValue
0.000000

@<SCITEGIC>MOL_PROPERTY
U
SciTegic.value.DoubleValue
10.243

@<SCITEGIC>MOL_PROPERTY
W
SciTegic.value.DoubleValue
-63.089

@<SCITEGIC>MOL_PROPERTY
W(PB)
SciTegic.value.DoubleValue
-65.116

@<SCITEGIC>MOL_PROPERTY
W(SA)
SciTegic.value.DoubleValue
2.026

@<SCITEGIC>MOL_PROPERTY
Valence
SciTegic.value.DoubleValue
2.822

@<SCITEGIC>MOL_PROPERTY
Coulomb
SciTegic.value.DoubleValue
6.637

@<SCITEGIC>MOL_PROPERTY
VdW
SciTegic.value.DoubleValue
0.785

@<SCITEGIC>MOL_PROPERTY
VdW6
SciTegic.value.DoubleValue
-5.216

@<SCITEGIC>MOL_PROPERTY
VdW12
SciTegic.value.DoubleValue
6.001

@<SCITEGIC>MOL_PROPERTY
Bond
SciTegic.value.DoubleValue
0.080

@<SCITEGIC>MOL_PROPERTY
Angle
SciTegic.value.DoubleValue
2.678

@<SCITEGIC>MOL_PROPERTY
Pdih
SciTegic.value.DoubleValue
0.064

@<SCITEGIC>MOL_PROPERTY
Idih
SciTegic.value.DoubleValue
0.000

@<SCITEGIC>MOL_PROPERTY
Tether
SciTegic.value.DoubleValue
0.000

@<TRIPOS>MOLECULE
guest-s19_confgen4.mol2 : confsearch ligand conformer 965
          17          16           1
SMALL
USER_CHARGES
 
@<TRIPOS>ATOM
       1    C1      18.830457   16.143411   22.999628 C.2        1 MOL1         0.6173
       2    O1      18.610842   15.771629   24.135960 O.co2      1 MOL1        -0.6755
       3    O2      18.870476   15.381925   22.051508 O.co2      1 MOL1        -0.6755
       4    C2      19.055666   17.598338   22.783684 C.2        1 MOL1        -0.1504
       5    H1      19.006299   18.223278   23.672459 H          1 MOL1         0.0814
       6    C3      19.311154   18.150374   21.575766 C.2        1 MOL1        -0.1394
       7    H2      19.365181   17.533198   20.679135 H          1 MOL1         0.0817
       8    C4      19.541200   19.630892   21.365088 C.3        1 MOL1        -0.1849
       9    H3      18.868583   20.211188   22.011348 H          1 MOL1         0.0736
      10    H4      19.288428   19.898798   20.330332 H          1 MOL1         0.0736
      11    C5      21.005418   20.018973   21.655729 C.3        1 MOL1        -0.1866
      12    H5      21.258682   19.755402   22.692044 H          1 MOL1         0.0738
      13    H6      21.676071   19.438784   21.006751 H          1 MOL1         0.0738
      14    C6      21.250448   21.525091   21.434158 C.3        1 MOL1        -0.2879
      15    H7      21.034977   21.809738   20.395900 H          1 MOL1         0.0750
      16    H8      20.613294   22.128055   22.094390 H          1 MOL1         0.0750
      17    H9      22.296576   21.781959   21.645739 H          1 MOL1         0.0750
@<TRIPOS>BOND
    1     1     2    1
    2     1     3    2
    3     1     4    1
    4     4     5    1
    5     4     6    2
    6     6     7    1
    7     6     8    1
    8     8     9    1
    9     8    10    1
   10     8    11    1
   11    11    12    1
   12    11    13    1
   13    11    14    1
   14    14    15    1
   15    14    16    1
   16    14    17    1
@<TRIPOS>SUBSTRUCTURE
       1 MOL1            1 RESIDUE      1      MOL     
@<SCITEGIC>MOL_PROPERTY
VConf Rank
SciTegic.value.IntegerValue
965

@<SCITEGIC>MOL_PROPERTY
Conf_Id
SciTegic.value.IntegerValue
36

@<SCITEGIC>MOL_PROPERTY
Delta U+W
SciTegic.value.DoubleValue
0.000

@<SCITEGIC>MOL_PROPERTY
U+W
SciTegic.value.DoubleValue
-53.409

@<SCITEGIC>MOL_PROPERTY
Grad RMS
SciTegic.value.DoubleValue
0.000000

@<SCITEGIC>MOL_PROPERTY
U
SciTegic.value.DoubleValue
9.048

@<SCITEGIC>MOL_PROPERTY
W
SciTegic.value.DoubleValue
-62.457

@<SCITEGIC>MOL_PROPERTY
W(PB)
SciTegic.value.DoubleValue
-64.540

@<SCITEGIC>MOL_PROPERTY
W(SA)
SciTegic.value.DoubleValue
2.084

@<SCITEGIC>MOL_PROPERTY
Valence
SciTegic.value.DoubleValue
2.652

@<SCITEGIC>MOL_PROPERTY
Coulomb
SciTegic.value.DoubleValue
5.578

@<SCITEGIC>MOL_PROPERTY
VdW
SciTegic.value.DoubleValue
0.818

@<SCITEGIC>MOL_PROPERTY
VdW6
SciTegic.value.DoubleValue
-4.534

@<SCITEGIC>MOL_PROPERTY
VdW12
SciTegic.value.DoubleValue
5.352

@<SCITEGIC>MOL_PROPERTY
Bond
SciTegic.value.DoubleValue
0.063

@<SCITEGIC>MOL_PROPERTY
Angle
SciTegic.value.DoubleValue
2.579

@<SCITEGIC>MOL_PROPERTY
Pdih
SciTegic.value.DoubleValue
0.010

@<SCITEGIC>MOL_PROPERTY
Idih
SciTegic.value.DoubleValue
0.000

@<SCITEGIC>MOL_PROPERTY
Tether
SciTegic.value.DoubleValue
0.000

@<TRIPOS>MOLECULE
guest-s19_confgen4.mol2 : confsearch ligand conformer 966
          17          16           1
SMALL
USER_CHARGES
 
@<TRIPOS>ATOM
       1    C1      20.237765   16.345224   19.970519 C.2        1 MOL1         0.6173
       2    O1      20.461771   16.731085   18.838562 O.co2      1 MOL1        -0.6755
       3    O2      19.946320   15.193910   20.229831 O.co2      1 MOL1        -0.6755
       4    C2      20.319296   17.305801   21.104011 C.2        1 MOL1        -0.1504
       5    H1      20.107790   16.896417   22.089191 H          1 MOL1         0.0814
       6    C3      20.631018   18.614170   20.962287 C.2        1 MOL1        -0.1394
       7    H2      20.842586   19.035259   19.979588 H          1 MOL1         0.0817
       8    C4      20.709979   19.584868   22.120195 C.3        1 MOL1        -0.1849
       9    H3      21.377572   20.416691   21.857941 H          1 MOL1         0.0736
      10    H4      21.154918   19.090862   22.994719 H          1 MOL1         0.0736
      11    C5      19.317134   20.136806   22.486754 C.3        1 MOL1        -0.1866
      12    H5      18.875103   20.632290   21.611156 H          1 MOL1         0.0738
      13    H6      18.649049   19.306067   22.753394 H          1 MOL1         0.0738
      14    C6      19.390256   21.134227   23.660351 C.3        1 MOL1        -0.2879
      15    H7      20.027698   21.991825   23.408112 H          1 MOL1         0.0750
      16    H8      18.390771   21.515784   23.906466 H          1 MOL1         0.0750
      17    H9      19.800465   20.654445   24.558668 H          1 MOL1         0.0750
@<TRIPOS>BOND
    1     1     2    1
    2     1     3    2
    3     1     4    1
    4     4     5    1
    5     4     6    2
    6     6     7    1
    7     6     8    1
    8     8     9    1
    9     8    10    1
   10     8    11    1
   11    11    12    1
   12    11    13    1
   13    11    14    1
   14    14    15    1
   15    14    16    1
   16    14    17    1
@<TRIPOS>SUBSTRUCTURE
       1 MOL1            1 RESIDUE      1      MOL     
@<SCITEGIC>MOL_PROPERTY
VConf Rank
SciTegic.value.IntegerValue
966

@<SCITEGIC>MOL_PROPERTY
Conf_Id
SciTegic.value.IntegerValue
1

@<SCITEGIC>MOL_PROPERTY
Delta U+W
SciTegic.value.DoubleValue
0.030

@<SCITEGIC>MOL_PROPERTY
U+W
SciTegic.value.DoubleValue
-53.378

@<SCITEGIC>MOL_PROPERTY
Grad RMS
SciTegic.value.DoubleValue
0.000000

@<SCITEGIC>MOL_PROPERTY
U
SciTegic.value.DoubleValue
9.048

@<SCITEGIC>MOL_PROPERTY
W
SciTegic.value.DoubleValue
-62.426

@<SCITEGIC>MOL_PROPERTY
W(PB)
SciTegic.value.DoubleValue
-64.506

@<SCITEGIC>MOL_PROPERTY
W(SA)
SciTegic.value.DoubleValue
2.080

@<SCITEGIC>MOL_PROPERTY
Valence
SciTegic.value.DoubleValue
2.652

@<SCITEGIC>MOL_PROPERTY
Coulomb
SciTegic.value.DoubleValue
5.578

@<SCITEGIC>MOL_PROPERTY
VdW
SciTegic.value.DoubleValue
0.818

@<SCITEGIC>MOL_PROPERTY
VdW6
SciTegic.value.DoubleValue
-4.535

@<SCITEGIC>MOL_PROPERTY
VdW12
SciTegic.value.DoubleValue
5.352

@<SCITEGIC>MOL_PROPERTY
Bond
SciTegic.value.DoubleValue
0.063

@<SCITEGIC>MOL_PROPERTY
Angle
SciTegic.value.DoubleValue
2.579

@<SCITEGIC>MOL_PROPERTY
Pdih
SciTegic.value.DoubleValue
0.010

@<SCITEGIC>MOL_PROPERTY
Idih
SciTegic.value.DoubleValue
0.000

@<SCITEGIC>MOL_PROPERTY
Tether
SciTegic.value.DoubleValue
0.000

@<TRIPOS>MOLECULE
guest-s19_confgen4.mol2 : confsearch ligand conformer 967
          17          16           1
SMALL
USER_CHARGES
 
@<TRIPOS>ATOM
       1    C1      23.009346   19.475278   22.677494 C.2        1 MOL1         0.6173
       2    O1      22.991794   20.599174   23.143316 O.co2      1 MOL1        -0.6755
       3    O2      23.954178   18.721582   22.808048 O.co2      1 MOL1        -0.6755
       4    C2      21.836397   18.980039   21.907416 C.2        1 MOL1        -0.1504
       5    H1      21.917280   17.967874   21.517876 H          1 MOL1         0.0814
       6    C3      20.718709   19.708327   21.685253 C.2        1 MOL1        -0.1394
       7    H2      20.625728   20.722213   22.073823 H          1 MOL1         0.0817
       8    C4      19.527133   19.196106   20.903721 C.3        1 MOL1        -0.1849
       9    H3      19.875891   18.628092   20.030649 H          1 MOL1         0.0736
      10    H4      18.949348   20.042058   20.507712 H          1 MOL1         0.0736
      11    C5      18.606636   18.296895   21.757925 C.3        1 MOL1        -0.1866
      12    H5      17.823197   17.871746   21.115565 H          1 MOL1         0.0738
      13    H6      19.181737   17.448757   22.154595 H          1 MOL1         0.0738
      14    C6      17.943548   19.064866   22.921216 C.3        1 MOL1        -0.2879
      15    H7      17.352329   19.910725   22.546881 H          1 MOL1         0.0750
      16    H8      17.271835   18.405320   23.485760 H          1 MOL1         0.0750
      17    H9      18.696472   19.454747   23.618582 H          1 MOL1         0.0750
@<TRIPOS>BOND
    1     1     2    1
    2     1     3    2
    3     1     4    1
    4     4     5    1
    5     4     6    2
    6     6     7    1
    7     6     8    1
    8     8     9    1
    9     8    10    1
   10     8    11    1
   11    11    12    1
   12    11    13    1
   13    11    14    1
   14    14    15    1
   15    14    16    1
   16    14    17    1
@<TRIPOS>SUBSTRUCTURE
       1 MOL1            1 RESIDUE      1      MOL     
@<SCITEGIC>MOL_PROPERTY
VConf Rank
SciTegic.value.IntegerValue
967

@<SCITEGIC>MOL_PROPERTY
Conf_Id
SciTegic.value.IntegerValue
3

@<SCITEGIC>MOL_PROPERTY
Delta U+W
SciTegic.value.DoubleValue
0.531

@<SCITEGIC>MOL_PROPERTY
U+W
SciTegic.value.DoubleValue
-52.878

@<SCITEGIC>MOL_PROPERTY
Grad RMS
SciTegic.value.DoubleValue
0.000000

@<SCITEGIC>MOL_PROPERTY
U
SciTegic.value.DoubleValue
10.067

@<SCITEGIC>MOL_PROPERTY
W
SciTegic.value.DoubleValue
-62.945

@<SCITEGIC>MOL_PROPERTY
W(PB)
SciTegic.value.DoubleValue
-64.982

@<SCITEGIC>MOL_PROPERTY
W(SA)
SciTegic.value.DoubleValue
2.037

@<SCITEGIC>MOL_PROPERTY
Valence
SciTegic.value.DoubleValue
2.779

@<SCITEGIC>MOL_PROPERTY
Coulomb
SciTegic.value.DoubleValue
6.474

@<SCITEGIC>MOL_PROPERTY
VdW
SciTegic.value.DoubleValue
0.815

@<SCITEGIC>MOL_PROPERTY
VdW6
SciTegic.value.DoubleValue
-5.088

@<SCITEGIC>MOL_PROPERTY
VdW12
SciTegic.value.DoubleValue
5.902

@<SCITEGIC>MOL_PROPERTY
Bond
SciTegic.value.DoubleValue
0.078

@<SCITEGIC>MOL_PROPERTY
Angle
SciTegic.value.DoubleValue
2.651

@<SCITEGIC>MOL_PROPERTY
Pdih
SciTegic.value.DoubleValue
0.050

@<SCITEGIC>MOL_PROPERTY
Idih
SciTegic.value.DoubleValue
0.000

@<SCITEGIC>MOL_PROPERTY
Tether
SciTegic.value.DoubleValue
0.000

@<TRIPOS>MOLECULE
guest-s19_confgen4.mol2 : confsearch ligand conformer 968
          17          16           1
SMALL
USER_CHARGES
 
@<TRIPOS>ATOM
       1    C1      19.124271   17.892316   19.443368 C.2        1 MOL1         0.6173
       2    O1      19.194449   18.353750   18.320900 O.co2      1 MOL1        -0.6755
       3    O2      18.362644   16.991141   19.740449 O.co2      1 MOL1        -0.6755
       4    C2      20.021278   18.469195   20.480991 C.2        1 MOL1        -0.1504
       5    H1      20.676365   19.271046   20.148424 H          1 MOL1         0.0814
       6    C3      20.048123   18.055386   21.768479 C.2        1 MOL1        -0.1394
       7    H2      19.392527   17.255114   22.110936 H          1 MOL1         0.0817
       8    C4      20.960517   18.646540   22.823188 C.3        1 MOL1        -0.1849
       9    H3      21.779871   19.208390   22.354439 H          1 MOL1         0.0736
      10    H4      21.432957   17.830713   23.386425 H          1 MOL1         0.0736
      11    C5      20.201328   19.561530   23.808882 C.3        1 MOL1        -0.1866
      12    H5      19.379857   19.001011   24.276281 H          1 MOL1         0.0738
      13    H6      20.881106   19.856781   24.620009 H          1 MOL1         0.0738
      14    C6      19.644957   20.832131   23.131494 C.3        1 MOL1        -0.2879
      15    H7      18.910798   20.578404   22.355810 H          1 MOL1         0.0750
      16    H8      19.147002   21.475808   23.868099 H          1 MOL1         0.0750
      17    H9      20.450831   21.412464   22.663655 H          1 MOL1         0.0750
@<TRIPOS>BOND
    1     1     2    1
    2     1     3    2
    3     1     4    1
    4     4     5    1
    5     4     6    2
    6     6     7    1
    7     6     8    1
    8     8     9    1
    9     8    10    1
   10     8    11    1
   11    11    12    1
   12    11    13    1
   13    11    14    1
   14    14    15    1
   15    14    16    1
   16    14    17    1
@<TRIPOS>SUBSTRUCTURE
       1 MOL1            1 RESIDUE      1      MOL     
@<SCITEGIC>MOL_PROPERTY
VConf Rank
SciTegic.value.IntegerValue
968

@<SCITEGIC>MOL_PROPERTY
Conf_Id
SciTegic.value.IntegerValue
45

@<SCITEGIC>MOL_PROPERTY
Delta U+W
SciTegic.value.DoubleValue
0.562

@<SCITEGIC>MOL_PROPERTY
U+W
SciTegic.value.DoubleValue
-52.846

@<SCITEGIC>MOL_PROPERTY
Grad RMS
SciTegic.value.DoubleValue
0.000000

@<SCITEGIC>MOL_PROPERTY
U
SciTegic.value.DoubleValue
10.243

@<SCITEGIC>MOL_PROPERTY
W
SciTegic.value.DoubleValue
-63.089

@<SCITEGIC>MOL_PROPERTY
W(PB)
SciTegic.value.DoubleValue
-65.116

@<SCITEGIC>MOL_PROPERTY
W(SA)
SciTegic.value.DoubleValue
2.026

@<SCITEGIC>MOL_PROPERTY
Valence
SciTegic.value.DoubleValue
2.822

@<SCITEGIC>MOL_PROPERTY
Coulomb
SciTegic.value.DoubleValue
6.637

@<SCITEGIC>MOL_PROPERTY
VdW
SciTegic.value.DoubleValue
0.785

@<SCITEGIC>MOL_PROPERTY
VdW6
SciTegic.value.DoubleValue
-5.216

@<SCITEGIC>MOL_PROPERTY
VdW12
SciTegic.value.DoubleValue
6.001

@<SCITEGIC>MOL_PROPERTY
Bond
SciTegic.value.DoubleValue
0.080

@<SCITEGIC>MOL_PROPERTY
Angle
SciTegic.value.DoubleValue
2.678

@<SCITEGIC>MOL_PROPERTY
Pdih
SciTegic.value.DoubleValue
0.064

@<SCITEGIC>MOL_PROPERTY
Idih
SciTegic.value.DoubleValue
0.000

@<SCITEGIC>MOL_PROPERTY
Tether
SciTegic.value.DoubleValue
0.000

@<TRIPOS>MOLECULE
guest-s19_confgen4.mol2 : confsearch ligand conformer 969
          17          16           1
SMALL
USER_CHARGES
 
@<TRIPOS>ATOM
       1    C1      20.893203   17.378634   24.660056 C.2        1 MOL1         0.6173
       2    O1      21.937773   17.407745   25.281127 O.co2      1 MOL1        -0.6755
       3    O2      20.053864   16.512295   24.819308 O.co2      1 MOL1        -0.6755
       4    C2      20.652636   18.461491   23.668233 C.2        1 MOL1        -0.1504
       5    H1      21.442118   19.203755   23.575115 H          1 MOL1         0.0814
       6    C3      19.537862   18.553253   22.908007 C.2        1 MOL1        -0.1394
       7    H2      18.741721   17.813688   22.991530 H          1 MOL1         0.0817
       8    C4      19.301962   19.656642   21.899978 C.3        1 MOL1        -0.1849
       9    H3      19.680223   20.610623   22.291957 H          1 MOL1         0.0736
      10    H4      18.222640   19.788537   21.744876 H          1 MOL1         0.0736
      11    C5      19.982334   19.341265   20.552149 C.3        1 MOL1        -0.1866
      12    H5      21.062985   19.213147   20.704920 H          1 MOL1         0.0738
      13    H6      19.600897   18.387750   20.161146 H          1 MOL1         0.0738
      14    C6      19.738676   20.456895   19.516039 C.3        1 MOL1        -0.2879
      15    H7      18.665814   20.584288   19.320665 H          1 MOL1         0.0750
      16    H8      20.139105   21.415978   19.869950 H          1 MOL1         0.0750
      17    H9      20.229936   20.215052   18.564563 H          1 MOL1         0.0750
@<TRIPOS>BOND
    1     1     2    1
    2     1     3    2
    3     1     4    1
    4     4     5    1
    5     4     6    2
    6     6     7    1
    7     6     8    1
    8     8     9    1
    9     8    10    1
   10     8    11    1
   11    11    12    1
   12    11    13    1
   13    11    14    1
   14    14    15    1
   15    14    16    1
   16    14    17    1
@<TRIPOS>SUBSTRUCTURE
       1 MOL1            1 RESIDUE      1      MOL     
@<SCITEGIC>MOL_PROPERTY
VConf Rank
SciTegic.value.IntegerValue
969

@<SCITEGIC>MOL_PROPERTY
Conf_Id
SciTegic.value.IntegerValue
36

@<SCITEGIC>MOL_PROPERTY
Delta U+W
SciTegic.value.DoubleValue
0.000

@<SCITEGIC>MOL_PROPERTY
U+W
SciTegic.value.DoubleValue
-53.409

@<SCITEGIC>MOL_PROPERTY
Grad RMS
SciTegic.value.DoubleValue
0.000000

@<SCITEGIC>MOL_PROPERTY
U
SciTegic.value.DoubleValue
9.048

@<SCITEGIC>MOL_PROPERTY
W
SciTegic.value.DoubleValue
-62.457

@<SCITEGIC>MOL_PROPERTY
W(PB)
SciTegic.value.DoubleValue
-64.540

@<SCITEGIC>MOL_PROPERTY
W(SA)
SciTegic.value.DoubleValue
2.084

@<SCITEGIC>MOL_PROPERTY
Valence
SciTegic.value.DoubleValue
2.652

@<SCITEGIC>MOL_PROPERTY
Coulomb
SciTegic.value.DoubleValue
5.578

@<SCITEGIC>MOL_PROPERTY
VdW
SciTegic.value.DoubleValue
0.818

@<SCITEGIC>MOL_PROPERTY
VdW6
SciTegic.value.DoubleValue
-4.534

@<SCITEGIC>MOL_PROPERTY
VdW12
SciTegic.value.DoubleValue
5.352

@<SCITEGIC>MOL_PROPERTY
Bond
SciTegic.value.DoubleValue
0.063

@<SCITEGIC>MOL_PROPERTY
Angle
SciTegic.value.DoubleValue
2.579

@<SCITEGIC>MOL_PROPERTY
Pdih
SciTegic.value.DoubleValue
0.010

@<SCITEGIC>MOL_PROPERTY
Idih
SciTegic.value.DoubleValue
0.000

@<SCITEGIC>MOL_PROPERTY
Tether
SciTegic.value.DoubleValue
0.000

@<TRIPOS>MOLECULE
guest-s19_confgen4.mol2 : confsearch ligand conformer 970
          17          16           1
SMALL
USER_CHARGES
 
@<TRIPOS>ATOM
       1    C1      19.089026   18.689780   18.695096 C.2        1 MOL1         0.6173
       2    O1      19.585844   19.606390   18.067887 O.co2      1 MOL1        -0.6755
       3    O2      18.255593   17.941804   18.222202 O.co2      1 MOL1        -0.6755
       4    C2      19.504800   18.453056   20.104087 C.2        1 MOL1        -0.1504
       5    H1      19.022665   17.618040   20.607281 H          1 MOL1         0.0814
       6    C3      20.419228   19.206003   20.756757 C.2        1 MOL1        -0.1394
       7    H2      20.906783   20.046301   20.262831 H          1 MOL1         0.0817
       8    C4      20.835113   18.959627   22.190486 C.3        1 MOL1        -0.1849
       9    H3      21.843081   19.363495   22.355651 H          1 MOL1         0.0736
      10    H4      20.895545   17.879901   22.383737 H          1 MOL1         0.0736
      11    C5      19.849178   19.611423   23.181502 C.3        1 MOL1        -0.1866
      12    H5      19.792100   20.691575   22.987645 H          1 MOL1         0.0738
      13    H6      18.840852   19.205394   23.020319 H          1 MOL1         0.0738
      14    C6      20.271197   19.372680   24.645205 C.3        1 MOL1        -0.2879
      15    H7      21.264248   19.797512   24.842177 H          1 MOL1         0.0750
      16    H8      19.558479   19.843334   25.334877 H          1 MOL1         0.0750
      17    H9      20.305760   18.299418   24.874005 H          1 MOL1         0.0750
@<TRIPOS>BOND
    1     1     2    1
    2     1     3    2
    3     1     4    1
    4     4     5    1
    5     4     6    2
    6     6     7    1
    7     6     8    1
    8     8     9    1
    9     8    10    1
   10     8    11    1
   11    11    12    1
   12    11    13    1
   13    11    14    1
   14    14    15    1
   15    14    16    1
   16    14    17    1
@<TRIPOS>SUBSTRUCTURE
       1 MOL1            1 RESIDUE      1      MOL     
@<SCITEGIC>MOL_PROPERTY
VConf Rank
SciTegic.value.IntegerValue
970

@<SCITEGIC>MOL_PROPERTY
Conf_Id
SciTegic.value.IntegerValue
1

@<SCITEGIC>MOL_PROPERTY
Delta U+W
SciTegic.value.DoubleValue
0.030

@<SCITEGIC>MOL_PROPERTY
U+W
SciTegic.value.DoubleValue
-53.378

@<SCITEGIC>MOL_PROPERTY
Grad RMS
SciTegic.value.DoubleValue
0.000000

@<SCITEGIC>MOL_PROPERTY
U
SciTegic.value.DoubleValue
9.048

@<SCITEGIC>MOL_PROPERTY
W
SciTegic.value.DoubleValue
-62.426

@<SCITEGIC>MOL_PROPERTY
W(PB)
SciTegic.value.DoubleValue
-64.506

@<SCITEGIC>MOL_PROPERTY
W(SA)
SciTegic.value.DoubleValue
2.080

@<SCITEGIC>MOL_PROPERTY
Valence
SciTegic.value.DoubleValue
2.652

@<SCITEGIC>MOL_PROPERTY
Coulomb
SciTegic.value.DoubleValue
5.578

@<SCITEGIC>MOL_PROPERTY
VdW
SciTegic.value.DoubleValue
0.818

@<SCITEGIC>MOL_PROPERTY
VdW6
SciTegic.value.DoubleValue
-4.535

@<SCITEGIC>MOL_PROPERTY
VdW12
SciTegic.value.DoubleValue
5.352

@<SCITEGIC>MOL_PROPERTY
Bond
SciTegic.value.DoubleValue
0.063

@<SCITEGIC>MOL_PROPERTY
Angle
SciTegic.value.DoubleValue
2.579

@<SCITEGIC>MOL_PROPERTY
Pdih
SciTegic.value.DoubleValue
0.010

@<SCITEGIC>MOL_PROPERTY
Idih
SciTegic.value.DoubleValue
0.000

@<SCITEGIC>MOL_PROPERTY
Tether
SciTegic.value.DoubleValue
0.000

@<TRIPOS>MOLECULE
guest-s19_confgen4.mol2 : confsearch ligand conformer 971
          17          16           1
SMALL
USER_CHARGES
 
@<TRIPOS>ATOM
       1    C1      21.055224   21.661770   20.710051 C.2        1 MOL1         0.6173
       2    O1      20.894722   22.459734   21.614448 O.co2      1 MOL1        -0.6755
       3    O2      21.753681   21.892957   19.742311 O.co2      1 MOL1        -0.6755
       4    C2      20.374691   20.339730   20.766425 C.2        1 MOL1        -0.1504
       5    H1      20.559670   19.674383   19.926272 H          1 MOL1         0.0814
       6    C3      19.571141   19.948413   21.781395 C.2        1 MOL1        -0.1394
       7    H2      19.381676   20.605762   22.629683 H          1 MOL1         0.0817
       8    C4      18.884899   18.599582   21.833753 C.3        1 MOL1        -0.1849
       9    H3      18.509237   18.338465   20.835143 H          1 MOL1         0.0736
      10    H4      18.004052   18.654479   22.487503 H          1 MOL1         0.0736
      11    C5      19.826571   17.479998   22.329080 C.3        1 MOL1        -0.1866
      12    H5      19.310395   16.513648   22.246116 H          1 MOL1         0.0738
      13    H6      20.708413   17.421806   21.676089 H          1 MOL1         0.0738
      14    C6      20.275259   17.688364   23.791261 C.3        1 MOL1        -0.2879
      15    H7      19.409544   17.736978   24.464550 H          1 MOL1         0.0750
      16    H8      20.914618   16.859105   24.120591 H          1 MOL1         0.0750
      17    H9      20.847762   18.618625   23.901161 H          1 MOL1         0.0750
@<TRIPOS>BOND
    1     1     2    1
    2     1     3    2
    3     1     4    1
    4     4     5    1
    5     4     6    2
    6     6     7    1
    7     6     8    1
    8     8     9    1
    9     8    10    1
   10     8    11    1
   11    11    12    1
   12    11    13    1
   13    11    14    1
   14    14    15    1
   15    14    16    1
   16    14    17    1
@<TRIPOS>SUBSTRUCTURE
       1 MOL1            1 RESIDUE      1      MOL     
@<SCITEGIC>MOL_PROPERTY
VConf Rank
SciTegic.value.IntegerValue
971

@<SCITEGIC>MOL_PROPERTY
Conf_Id
SciTegic.value.IntegerValue
3

@<SCITEGIC>MOL_PROPERTY
Delta U+W
SciTegic.value.DoubleValue
0.531

@<SCITEGIC>MOL_PROPERTY
U+W
SciTegic.value.DoubleValue
-52.878

@<SCITEGIC>MOL_PROPERTY
Grad RMS
SciTegic.value.DoubleValue
0.000000

@<SCITEGIC>MOL_PROPERTY
U
SciTegic.value.DoubleValue
10.067

@<SCITEGIC>MOL_PROPERTY
W
SciTegic.value.DoubleValue
-62.945

@<SCITEGIC>MOL_PROPERTY
W(PB)
SciTegic.value.DoubleValue
-64.982

@<SCITEGIC>MOL_PROPERTY
W(SA)
SciTegic.value.DoubleValue
2.037

@<SCITEGIC>MOL_PROPERTY
Valence
SciTegic.value.DoubleValue
2.779

@<SCITEGIC>MOL_PROPERTY
Coulomb
SciTegic.value.DoubleValue
6.474

@<SCITEGIC>MOL_PROPERTY
VdW
SciTegic.value.DoubleValue
0.815

@<SCITEGIC>MOL_PROPERTY
VdW6
SciTegic.value.DoubleValue
-5.088

@<SCITEGIC>MOL_PROPERTY
VdW12
SciTegic.value.DoubleValue
5.902

@<SCITEGIC>MOL_PROPERTY
Bond
SciTegic.value.DoubleValue
0.078

@<SCITEGIC>MOL_PROPERTY
Angle
SciTegic.value.DoubleValue
2.651

@<SCITEGIC>MOL_PROPERTY
Pdih
SciTegic.value.DoubleValue
0.050

@<SCITEGIC>MOL_PROPERTY
Idih
SciTegic.value.DoubleValue
0.000

@<SCITEGIC>MOL_PROPERTY
Tether
SciTegic.value.DoubleValue
0.000

@<TRIPOS>MOLECULE
guest-s19_confgen4.mol2 : confsearch ligand conformer 972
          17          16           1
SMALL
USER_CHARGES
 
@<TRIPOS>ATOM
       1    C1      18.279311   21.289324   20.876219 C.2        1 MOL1         0.6173
       2    O1      18.614478   22.357433   20.402314 O.co2      1 MOL1        -0.6755
       3    O2      17.150648   21.068082   21.273232 O.co2      1 MOL1        -0.6755
       4    C2      19.311331   20.220751   20.960836 C.2        1 MOL1        -0.1504
       5    H1      20.298475   20.484792   20.588635 H          1 MOL1         0.0814
       6    C3      19.079655   18.987690   21.466279 C.2        1 MOL1        -0.1394
       7    H2      18.094504   18.716038   21.844698 H          1 MOL1         0.0817
       8    C4      20.133109   17.902821   21.553619 C.3        1 MOL1        -0.1849
       9    H3      20.980814   18.133352   20.894079 H          1 MOL1         0.0736
      10    H4      19.707656   16.959693   21.185505 H          1 MOL1         0.0736
      11    C5      20.640708   17.693550   22.997127 C.3        1 MOL1        -0.1866
      12    H5      19.792997   17.465494   23.658063 H          1 MOL1         0.0738
      13    H6      21.301978   16.816422   23.020942 H          1 MOL1         0.0738
      14    C6      21.409057   18.917454   23.539831 C.3        1 MOL1        -0.2879
      15    H7      20.760221   19.801404   23.591756 H          1 MOL1         0.0750
      16    H8      21.787689   18.718423   24.550717 H          1 MOL1         0.0750
      17    H9      22.266247   19.159000   22.897979 H          1 MOL1         0.0750
@<TRIPOS>BOND
    1     1     2    1
    2     1     3    2
    3     1     4    1
    4     4     5    1
    5     4     6    2
    6     6     7    1
    7     6     8    1
    8     8     9    1
    9     8    10    1
   10     8    11    1
   11    11    12    1
   12    11    13    1
   13    11    14    1
   14    14    15    1
   15    14    16    1
   16    14    17    1
@<TRIPOS>SUBSTRUCTURE
       1 MOL1            1 RESIDUE      1      MOL     
@<SCITEGIC>MOL_PROPERTY
VConf Rank
SciTegic.value.IntegerValue
972

@<SCITEGIC>MOL_PROPERTY
Conf_Id
SciTegic.value.IntegerValue
45

@<SCITEGIC>MOL_PROPERTY
Delta U+W
SciTegic.value.DoubleValue
0.562

@<SCITEGIC>MOL_PROPERTY
U+W
SciTegic.value.DoubleValue
-52.846

@<SCITEGIC>MOL_PROPERTY
Grad RMS
SciTegic.value.DoubleValue
0.000000

@<SCITEGIC>MOL_PROPERTY
U
SciTegic.value.DoubleValue
10.243

@<SCITEGIC>MOL_PROPERTY
W
SciTegic.value.DoubleValue
-63.089

@<SCITEGIC>MOL_PROPERTY
W(PB)
SciTegic.value.DoubleValue
-65.116

@<SCITEGIC>MOL_PROPERTY
W(SA)
SciTegic.value.DoubleValue
2.026

@<SCITEGIC>MOL_PROPERTY
Valence
SciTegic.value.DoubleValue
2.822

@<SCITEGIC>MOL_PROPERTY
Coulomb
SciTegic.value.DoubleValue
6.637

@<SCITEGIC>MOL_PROPERTY
VdW
SciTegic.value.DoubleValue
0.785

@<SCITEGIC>MOL_PROPERTY
VdW6
SciTegic.value.DoubleValue
-5.216

@<SCITEGIC>MOL_PROPERTY
VdW12
SciTegic.value.DoubleValue
6.001

@<SCITEGIC>MOL_PROPERTY
Bond
SciTegic.value.DoubleValue
0.080

@<SCITEGIC>MOL_PROPERTY
Angle
SciTegic.value.DoubleValue
2.678

@<SCITEGIC>MOL_PROPERTY
Pdih
SciTegic.value.DoubleValue
0.064

@<SCITEGIC>MOL_PROPERTY
Idih
SciTegic.value.DoubleValue
0.000

@<SCITEGIC>MOL_PROPERTY
Tether
SciTegic.value.DoubleValue
0.000

@<TRIPOS>MOLECULE
guest-s19_confgen4.mol2 : confsearch ligand conformer 973
          17          16           1
SMALL
USER_CHARGES
 
@<TRIPOS>ATOM
       1    C1      16.734748   18.322635   22.272081 C.2        1 MOL1         0.6173
       2    O1      15.871580   18.213002   21.423184 O.co2      1 MOL1        -0.6755
       3    O2      16.487772   18.376626   23.462241 O.co2      1 MOL1        -0.6755
       4    C2      18.147881   18.390373   21.810966 C.2        1 MOL1        -0.1504
       5    H1      18.299186   18.336677   20.735265 H          1 MOL1         0.0814
       6    C3      19.207089   18.513468   22.642837 C.2        1 MOL1        -0.1394
       7    H2      19.066722   18.570534   23.722102 H          1 MOL1         0.0817
       8    C4      20.641128   18.583843   22.165535 C.3        1 MOL1        -0.1849
       9    H3      20.789022   17.900114   21.318511 H          1 MOL1         0.0736
      10    H4      21.312015   18.240912   22.964720 H          1 MOL1         0.0736
      11    C5      21.025103   20.018596   21.749526 C.3        1 MOL1        -0.1866
      12    H5      20.357422   20.361691   20.947000 H          1 MOL1         0.0738
      13    H6      20.878292   20.700192   22.598903 H          1 MOL1         0.0738
      14    C6      22.488456   20.100659   21.270579 C.3        1 MOL1        -0.2879
      15    H7      23.180079   19.792915   22.065804 H          1 MOL1         0.0750
      16    H8      22.654318   19.450821   20.401306 H          1 MOL1         0.0750
      17    H9      22.742938   21.127979   20.979059 H          1 MOL1         0.0750
@<TRIPOS>BOND
    1     1     2    1
    2     1     3    2
    3     1     4    1
    4     4     5    1
    5     4     6    2
    6     6     7    1
    7     6     8    1
    8     8     9    1
    9     8    10    1
   10     8    11    1
   11    11    12    1
   12    11    13    1
   13    11    14    1
   14    14    15    1
   15    14    16    1
   16    14    17    1
@<TRIPOS>SUBSTRUCTURE
       1 MOL1            1 RESIDUE      1      MOL     
@<SCITEGIC>MOL_PROPERTY
VConf Rank
SciTegic.value.IntegerValue
973

@<SCITEGIC>MOL_PROPERTY
Conf_Id
SciTegic.value.IntegerValue
36

@<SCITEGIC>MOL_PROPERTY
Delta U+W
SciTegic.value.DoubleValue
0.000

@<SCITEGIC>MOL_PROPERTY
U+W
SciTegic.value.DoubleValue
-53.409

@<SCITEGIC>MOL_PROPERTY
Grad RMS
SciTegic.value.DoubleValue
0.000000

@<SCITEGIC>MOL_PROPERTY
U
SciTegic.value.DoubleValue
9.048

@<SCITEGIC>MOL_PROPERTY
W
SciTegic.value.DoubleValue
-62.457

@<SCITEGIC>MOL_PROPERTY
W(PB)
SciTegic.value.DoubleValue
-64.540

@<SCITEGIC>MOL_PROPERTY
W(SA)
SciTegic.value.DoubleValue
2.084

@<SCITEGIC>MOL_PROPERTY
Valence
SciTegic.value.DoubleValue
2.652

@<SCITEGIC>MOL_PROPERTY
Coulomb
SciTegic.value.DoubleValue
5.578

@<SCITEGIC>MOL_PROPERTY
VdW
SciTegic.value.DoubleValue
0.818

@<SCITEGIC>MOL_PROPERTY
VdW6
SciTegic.value.DoubleValue
-4.534

@<SCITEGIC>MOL_PROPERTY
VdW12
SciTegic.value.DoubleValue
5.352

@<SCITEGIC>MOL_PROPERTY
Bond
SciTegic.value.DoubleValue
0.063

@<SCITEGIC>MOL_PROPERTY
Angle
SciTegic.value.DoubleValue
2.579

@<SCITEGIC>MOL_PROPERTY
Pdih
SciTegic.value.DoubleValue
0.010

@<SCITEGIC>MOL_PROPERTY
Idih
SciTegic.value.DoubleValue
0.000

@<SCITEGIC>MOL_PROPERTY
Tether
SciTegic.value.DoubleValue
0.000

@<TRIPOS>MOLECULE
guest-s19_confgen4.mol2 : confsearch ligand conformer 974
          17          16           1
SMALL
USER_CHARGES
 
@<TRIPOS>ATOM
       1    C1      17.690892   19.123513   24.358907 C.2        1 MOL1         0.6173
       2    O1      17.090328   20.177200   24.261647 O.co2      1 MOL1        -0.6755
       3    O2      17.567071   18.378735   25.311630 O.co2      1 MOL1        -0.6755
       4    C2      18.622376   18.705900   23.276272 C.2        1 MOL1        -0.1504
       5    H1      19.126924   17.753986   23.425265 H          1 MOL1         0.0814
       6    C3      18.857800   19.434850   22.161690 C.2        1 MOL1        -0.1394
       7    H2      18.359353   20.391011   22.003320 H          1 MOL1         0.0817
       8    C4      19.808191   19.003756   21.066174 C.3        1 MOL1        -0.1849
       9    H3      19.518338   19.479447   20.119553 H          1 MOL1         0.0736
      10    H4      19.731269   17.919462   20.907442 H          1 MOL1         0.0736
      11    C5      21.265230   19.377888   21.406876 C.3        1 MOL1        -0.1866
      12    H5      21.340037   20.463053   21.563045 H          1 MOL1         0.0738
      13    H6      21.558198   18.899391   22.351741 H          1 MOL1         0.0738
      14    C6      22.239256   18.950052   20.290742 C.3        1 MOL1        -0.2879
      15    H7      21.987760   19.439560   19.340709 H          1 MOL1         0.0750
      16    H8      23.269927   19.224344   20.550763 H          1 MOL1         0.0750
      17    H9      22.206542   17.863585   20.135968 H          1 MOL1         0.0750
@<TRIPOS>BOND
    1     1     2    1
    2     1     3    2
    3     1     4    1
    4     4     5    1
    5     4     6    2
    6     6     7    1
    7     6     8    1
    8     8     9    1
    9     8    10    1
   10     8    11    1
   11    11    12    1
   12    11    13    1
   13    11    14    1
   14    14    15    1
   15    14    16    1
   16    14    17    1
@<TRIPOS>SUBSTRUCTURE
       1 MOL1            1 RESIDUE      1      MOL     
@<SCITEGIC>MOL_PROPERTY
VConf Rank
SciTegic.value.IntegerValue
974

@<SCITEGIC>MOL_PROPERTY
Conf_Id
SciTegic.value.IntegerValue
1

@<SCITEGIC>MOL_PROPERTY
Delta U+W
SciTegic.value.DoubleValue
0.030

@<SCITEGIC>MOL_PROPERTY
U+W
SciTegic.value.DoubleValue
-53.378

@<SCITEGIC>MOL_PROPERTY
Grad RMS
SciTegic.value.DoubleValue
0.000000

@<SCITEGIC>MOL_PROPERTY
U
SciTegic.value.DoubleValue
9.048

@<SCITEGIC>MOL_PROPERTY
W
SciTegic.value.DoubleValue
-62.426

@<SCITEGIC>MOL_PROPERTY
W(PB)
SciTegic.value.DoubleValue
-64.506

@<SCITEGIC>MOL_PROPERTY
W(SA)
SciTegic.value.DoubleValue
2.080

@<SCITEGIC>MOL_PROPERTY
Valence
SciTegic.value.DoubleValue
2.652

@<SCITEGIC>MOL_PROPERTY
Coulomb
SciTegic.value.DoubleValue
5.578

@<SCITEGIC>MOL_PROPERTY
VdW
SciTegic.value.DoubleValue
0.818

@<SCITEGIC>MOL_PROPERTY
VdW6
SciTegic.value.DoubleValue
-4.535

@<SCITEGIC>MOL_PROPERTY
VdW12
SciTegic.value.DoubleValue
5.352

@<SCITEGIC>MOL_PROPERTY
Bond
SciTegic.value.DoubleValue
0.063

@<SCITEGIC>MOL_PROPERTY
Angle
SciTegic.value.DoubleValue
2.579

@<SCITEGIC>MOL_PROPERTY
Pdih
SciTegic.value.DoubleValue
0.010

@<SCITEGIC>MOL_PROPERTY
Idih
SciTegic.value.DoubleValue
0.000

@<SCITEGIC>MOL_PROPERTY
Tether
SciTegic.value.DoubleValue
0.000

@<TRIPOS>MOLECULE
guest-s19_confgen4.mol2 : confsearch ligand conformer 975
          17          16           1
SMALL
USER_CHARGES
 
@<TRIPOS>ATOM
       1    C1      21.111266   21.188257   20.077994 C.2        1 MOL1         0.6173
       2    O1      20.677336   22.207808   20.580648 O.co2      1 MOL1        -0.6755
       3    O2      21.992274   21.188739   19.240358 O.co2      1 MOL1        -0.6755
       4    C2      20.552937   19.871179   20.487466 C.2        1 MOL1        -0.1504
       5    H1      20.984251   19.000273   19.999357 H          1 MOL1         0.0814
       6    C3      19.572980   19.721152   21.407338 C.2        1 MOL1        -0.1394
       7    H2      19.136125   20.586672   21.904963 H          1 MOL1         0.0817
       8    C4      19.012363   18.376958   21.821903 C.3        1 MOL1        -0.1849
       9    H3      18.902250   17.735160   20.937314 H          1 MOL1         0.0736
      10    H4      18.002669   18.505287   22.234630 H          1 MOL1         0.0736
      11    C5      19.906710   17.661570   22.858207 C.3        1 MOL1        -0.1866
      12    H5      19.509207   16.653701   23.040813 H          1 MOL1         0.0738
      13    H6      20.917476   17.530608   22.447563 H          1 MOL1         0.0738
      14    C6      19.984741   18.423542   24.198364 C.3        1 MOL1        -0.2879
      15    H7      18.985724   18.555146   24.634014 H          1 MOL1         0.0750
      16    H8      20.599550   17.871431   24.920922 H          1 MOL1         0.0750
      17    H9      20.433698   19.416316   24.063980 H          1 MOL1         0.0750
@<TRIPOS>BOND
    1     1     2    1
    2     1     3    2
    3     1     4    1
    4     4     5    1
    5     4     6    2
    6     6     7    1
    7     6     8    1
    8     8     9    1
    9     8    10    1
   10     8    11    1
   11    11    12    1
   12    11    13    1
   13    11    14    1
   14    14    15    1
   15    14    16    1
   16    14    17    1
@<TRIPOS>SUBSTRUCTURE
       1 MOL1            1 RESIDUE      1      MOL     
@<SCITEGIC>MOL_PROPERTY
VConf Rank
SciTegic.value.IntegerValue
975

@<SCITEGIC>MOL_PROPERTY
Conf_Id
SciTegic.value.IntegerValue
3

@<SCITEGIC>MOL_PROPERTY
Delta U+W
SciTegic.value.DoubleValue
0.531

@<SCITEGIC>MOL_PROPERTY
U+W
SciTegic.value.DoubleValue
-52.878

@<SCITEGIC>MOL_PROPERTY
Grad RMS
SciTegic.value.DoubleValue
0.000000

@<SCITEGIC>MOL_PROPERTY
U
SciTegic.value.DoubleValue
10.067

@<SCITEGIC>MOL_PROPERTY
W
SciTegic.value.DoubleValue
-62.945

@<SCITEGIC>MOL_PROPERTY
W(PB)
SciTegic.value.DoubleValue
-64.982

@<SCITEGIC>MOL_PROPERTY
W(SA)
SciTegic.value.DoubleValue
2.037

@<SCITEGIC>MOL_PROPERTY
Valence
SciTegic.value.DoubleValue
2.779

@<SCITEGIC>MOL_PROPERTY
Coulomb
SciTegic.value.DoubleValue
6.474

@<SCITEGIC>MOL_PROPERTY
VdW
SciTegic.value.DoubleValue
0.815

@<SCITEGIC>MOL_PROPERTY
VdW6
SciTegic.value.DoubleValue
-5.088

@<SCITEGIC>MOL_PROPERTY
VdW12
SciTegic.value.DoubleValue
5.902

@<SCITEGIC>MOL_PROPERTY
Bond
SciTegic.value.DoubleValue
0.078

@<SCITEGIC>MOL_PROPERTY
Angle
SciTegic.value.DoubleValue
2.651

@<SCITEGIC>MOL_PROPERTY
Pdih
SciTegic.value.DoubleValue
0.050

@<SCITEGIC>MOL_PROPERTY
Idih
SciTegic.value.DoubleValue
0.000

@<SCITEGIC>MOL_PROPERTY
Tether
SciTegic.value.DoubleValue
0.000

@<TRIPOS>MOLECULE
guest-s19_confgen4.mol2 : confsearch ligand conformer 976
          17          16           1
SMALL
USER_CHARGES
 
@<TRIPOS>ATOM
       1    C1      19.892952   21.876104   23.260526 C.2        1 MOL1         0.6173
       2    O1      19.358585   22.267636   24.279808 O.co2      1 MOL1        -0.6755
       3    O2      20.194587   22.619332   22.345608 O.co2      1 MOL1        -0.6755
       4    C2      20.183459   20.420796   23.152098 C.2        1 MOL1        -0.1504
       5    H1      19.888290   19.813832   24.004844 H          1 MOL1         0.0814
       6    C3      20.770973   19.847698   22.076937 C.2        1 MOL1        -0.1394
       7    H2      21.066530   20.447929   21.216771 H          1 MOL1         0.0817
       8    C4      21.062923   18.365365   21.968352 C.3        1 MOL1        -0.1849
       9    H3      21.026161   17.890740   22.958362 H          1 MOL1         0.0736
      10    H4      22.089050   18.228107   21.601975 H          1 MOL1         0.0736
      11    C5      20.088709   17.644678   21.010916 C.3        1 MOL1        -0.1866
      12    H5      20.122907   18.120521   20.021036 H          1 MOL1         0.0738
      13    H6      20.423938   16.607568   20.872267 H          1 MOL1         0.0738
      14    C6      18.636834   17.638035   21.535173 C.3        1 MOL1        -0.2879
      15    H7      18.243654   18.658952   21.625685 H          1 MOL1         0.0750
      16    H8      17.981511   17.084846   20.850046 H          1 MOL1         0.0750
      17    H9      18.577815   17.159581   22.521424 H          1 MOL1         0.0750
@<TRIPOS>BOND
    1     1     2    1
    2     1     3    2
    3     1     4    1
    4     4     5    1
    5     4     6    2
    6     6     7    1
    7     6     8    1
    8     8     9    1
    9     8    10    1
   10     8    11    1
   11    11    12    1
   12    11    13    1
   13    11    14    1
   14    14    15    1
   15    14    16    1
   16    14    17    1
@<TRIPOS>SUBSTRUCTURE
       1 MOL1            1 RESIDUE      1      MOL     
@<SCITEGIC>MOL_PROPERTY
VConf Rank
SciTegic.value.IntegerValue
976

@<SCITEGIC>MOL_PROPERTY
Conf_Id
SciTegic.value.IntegerValue
45

@<SCITEGIC>MOL_PROPERTY
Delta U+W
SciTegic.value.DoubleValue
0.562

@<SCITEGIC>MOL_PROPERTY
U+W
SciTegic.value.DoubleValue
-52.846

@<SCITEGIC>MOL_PROPERTY
Grad RMS
SciTegic.value.DoubleValue
0.000000

@<SCITEGIC>MOL_PROPERTY
U
SciTegic.value.DoubleValue
10.243

@<SCITEGIC>MOL_PROPERTY
W
SciTegic.value.DoubleValue
-63.089

@<SCITEGIC>MOL_PROPERTY
W(PB)
SciTegic.value.DoubleValue
-65.116

@<SCITEGIC>MOL_PROPERTY
W(SA)
SciTegic.value.DoubleValue
2.026

@<SCITEGIC>MOL_PROPERTY
Valence
SciTegic.value.DoubleValue
2.822

@<SCITEGIC>MOL_PROPERTY
Coulomb
SciTegic.value.DoubleValue
6.637

@<SCITEGIC>MOL_PROPERTY
VdW
SciTegic.value.DoubleValue
0.785

@<SCITEGIC>MOL_PROPERTY
VdW6
SciTegic.value.DoubleValue
-5.216

@<SCITEGIC>MOL_PROPERTY
VdW12
SciTegic.value.DoubleValue
6.001

@<SCITEGIC>MOL_PROPERTY
Bond
SciTegic.value.DoubleValue
0.080

@<SCITEGIC>MOL_PROPERTY
Angle
SciTegic.value.DoubleValue
2.678

@<SCITEGIC>MOL_PROPERTY
Pdih
SciTegic.value.DoubleValue
0.064

@<SCITEGIC>MOL_PROPERTY
Idih
SciTegic.value.DoubleValue
0.000

@<SCITEGIC>MOL_PROPERTY
Tether
SciTegic.value.DoubleValue
0.000

@<TRIPOS>MOLECULE
guest-s19_confgen4.mol2 : confsearch ligand conformer 977
          17          16           1
SMALL
USER_CHARGES
 
@<TRIPOS>ATOM
       1    C1      19.516297   15.896168   21.034725 C.2        1 MOL1         0.6173
       2    O1      20.177588   15.194644   20.294278 O.co2      1 MOL1        -0.6755
       3    O2      18.403699   15.587284   21.418276 O.co2      1 MOL1        -0.6755
       4    C2      20.115707   17.183592   21.479030 C.2        1 MOL1        -0.1504
       5    H1      21.112140   17.398994   21.100042 H          1 MOL1         0.0814
       6    C3      19.494363   18.060825   22.299687 C.2        1 MOL1        -0.1394
       7    H2      18.495014   17.856091   22.683301 H          1 MOL1         0.0817
       8    C4      20.110175   19.369127   22.745064 C.3        1 MOL1        -0.1849
       9    H3      21.184226   19.234213   22.932203 H          1 MOL1         0.0736
      10    H4      19.663424   19.679992   23.699089 H          1 MOL1         0.0736
      11    C5      19.900351   20.476253   21.691851 C.3        1 MOL1        -0.1866
      12    H5      20.350481   20.168558   20.737772 H          1 MOL1         0.0738
      13    H6      18.825343   20.610745   21.507899 H          1 MOL1         0.0738
      14    C6      20.517043   21.815696   22.142527 C.3        1 MOL1        -0.2879
      15    H7      20.061426   22.162693   23.079243 H          1 MOL1         0.0750
      16    H8      21.598497   21.715832   22.303527 H          1 MOL1         0.0750
      17    H9      20.357976   22.590330   21.381101 H          1 MOL1         0.0750
@<TRIPOS>BOND
    1     1     2    1
    2     1     3    2
    3     1     4    1
    4     4     5    1
    5     4     6    2
    6     6     7    1
    7     6     8    1
    8     8     9    1
    9     8    10    1
   10     8    11    1
   11    11    12    1
   12    11    13    1
   13    11    14    1
   14    14    15    1
   15    14    16    1
   16    14    17    1
@<TRIPOS>SUBSTRUCTURE
       1 MOL1            1 RESIDUE      1      MOL     
@<SCITEGIC>MOL_PROPERTY
VConf Rank
SciTegic.value.IntegerValue
977

@<SCITEGIC>MOL_PROPERTY
Conf_Id
SciTegic.value.IntegerValue
36

@<SCITEGIC>MOL_PROPERTY
Delta U+W
SciTegic.value.DoubleValue
0.000

@<SCITEGIC>MOL_PROPERTY
U+W
SciTegic.value.DoubleValue
-53.409

@<SCITEGIC>MOL_PROPERTY
Grad RMS
SciTegic.value.DoubleValue
0.000000

@<SCITEGIC>MOL_PROPERTY
U
SciTegic.value.DoubleValue
9.048

@<SCITEGIC>MOL_PROPERTY
W
SciTegic.value.DoubleValue
-62.457

@<SCITEGIC>MOL_PROPERTY
W(PB)
SciTegic.value.DoubleValue
-64.540

@<SCITEGIC>MOL_PROPERTY
W(SA)
SciTegic.value.DoubleValue
2.084

@<SCITEGIC>MOL_PROPERTY
Valence
SciTegic.value.DoubleValue
2.652

@<SCITEGIC>MOL_PROPERTY
Coulomb
SciTegic.value.DoubleValue
5.578

@<SCITEGIC>MOL_PROPERTY
VdW
SciTegic.value.DoubleValue
0.818

@<SCITEGIC>MOL_PROPERTY
VdW6
SciTegic.value.DoubleValue
-4.534

@<SCITEGIC>MOL_PROPERTY
VdW12
SciTegic.value.DoubleValue
5.352

@<SCITEGIC>MOL_PROPERTY
Bond
SciTegic.value.DoubleValue
0.063

@<SCITEGIC>MOL_PROPERTY
Angle
SciTegic.value.DoubleValue
2.579

@<SCITEGIC>MOL_PROPERTY
Pdih
SciTegic.value.DoubleValue
0.010

@<SCITEGIC>MOL_PROPERTY
Idih
SciTegic.value.DoubleValue
0.000

@<SCITEGIC>MOL_PROPERTY
Tether
SciTegic.value.DoubleValue
0.000

@<TRIPOS>MOLECULE
guest-s19_confgen4.mol2 : confsearch ligand conformer 978
          17          16           1
SMALL
USER_CHARGES
 
@<TRIPOS>ATOM
       1    C1      17.676470   17.798137   23.971708 C.2        1 MOL1         0.6173
       2    O1      17.672593   16.595341   23.788238 O.co2      1 MOL1        -0.6755
       3    O2      16.823868   18.369138   24.623424 O.co2      1 MOL1        -0.6755
       4    C2      18.762951   18.627696   23.383871 C.2        1 MOL1        -0.1504
       5    H1      18.707310   19.694955   23.585792 H          1 MOL1         0.0814
       6    C3      19.773591   18.127132   22.637460 C.2        1 MOL1        -0.1394
       7    H2      19.837793   17.059689   22.427182 H          1 MOL1         0.0817
       8    C4      20.873691   18.978065   22.041698 C.3        1 MOL1        -0.1849
       9    H3      21.768384   18.361910   21.879635 H          1 MOL1         0.0736
      10    H4      21.162075   19.767937   22.748623 H          1 MOL1         0.0736
      11    C5      20.433685   19.610603   20.705544 C.3        1 MOL1        -0.1866
      12    H5      20.147825   18.818566   19.999479 H          1 MOL1         0.0738
      13    H6      19.540940   20.230761   20.866697 H          1 MOL1         0.0738
      14    C6      21.552921   20.472213   20.087107 C.3        1 MOL1        -0.2879
      15    H7      22.447848   19.868761   19.886156 H          1 MOL1         0.0750
      16    H8      21.221665   20.913407   19.138030 H          1 MOL1         0.0750
      17    H9      21.835879   21.291422   20.761099 H          1 MOL1         0.0750
@<TRIPOS>BOND
    1     1     2    1
    2     1     3    2
    3     1     4    1
    4     4     5    1
    5     4     6    2
    6     6     7    1
    7     6     8    1
    8     8     9    1
    9     8    10    1
   10     8    11    1
   11    11    12    1
   12    11    13    1
   13    11    14    1
   14    14    15    1
   15    14    16    1
   16    14    17    1
@<TRIPOS>SUBSTRUCTURE
       1 MOL1            1 RESIDUE      1      MOL     
@<SCITEGIC>MOL_PROPERTY
VConf Rank
SciTegic.value.IntegerValue
978

@<SCITEGIC>MOL_PROPERTY
Conf_Id
SciTegic.value.IntegerValue
1

@<SCITEGIC>MOL_PROPERTY
Delta U+W
SciTegic.value.DoubleValue
0.030

@<SCITEGIC>MOL_PROPERTY
U+W
SciTegic.value.DoubleValue
-53.378

@<SCITEGIC>MOL_PROPERTY
Grad RMS
SciTegic.value.DoubleValue
0.000000

@<SCITEGIC>MOL_PROPERTY
U
SciTegic.value.DoubleValue
9.048

@<SCITEGIC>MOL_PROPERTY
W
SciTegic.value.DoubleValue
-62.426

@<SCITEGIC>MOL_PROPERTY
W(PB)
SciTegic.value.DoubleValue
-64.506

@<SCITEGIC>MOL_PROPERTY
W(SA)
SciTegic.value.DoubleValue
2.080

@<SCITEGIC>MOL_PROPERTY
Valence
SciTegic.value.DoubleValue
2.652

@<SCITEGIC>MOL_PROPERTY
Coulomb
SciTegic.value.DoubleValue
5.578

@<SCITEGIC>MOL_PROPERTY
VdW
SciTegic.value.DoubleValue
0.818

@<SCITEGIC>MOL_PROPERTY
VdW6
SciTegic.value.DoubleValue
-4.535

@<SCITEGIC>MOL_PROPERTY
VdW12
SciTegic.value.DoubleValue
5.352

@<SCITEGIC>MOL_PROPERTY
Bond
SciTegic.value.DoubleValue
0.063

@<SCITEGIC>MOL_PROPERTY
Angle
SciTegic.value.DoubleValue
2.579

@<SCITEGIC>MOL_PROPERTY
Pdih
SciTegic.value.DoubleValue
0.010

@<SCITEGIC>MOL_PROPERTY
Idih
SciTegic.value.DoubleValue
0.000

@<SCITEGIC>MOL_PROPERTY
Tether
SciTegic.value.DoubleValue
0.000

@<TRIPOS>MOLECULE
guest-s19_confgen4.mol2 : confsearch ligand conformer 979
          17          16           1
SMALL
USER_CHARGES
 
@<TRIPOS>ATOM
       1    C1      18.469169   16.425159   21.925046 C.2        1 MOL1         0.6173
       2    O1      19.348059   15.679217   21.535735 O.co2      1 MOL1        -0.6755
       3    O2      17.429782   16.023278   22.410821 O.co2      1 MOL1        -0.6755
       4    C2      18.649479   17.897614   21.809040 C.2        1 MOL1        -0.1504
       5    H1      17.826190   18.506955   22.174634 H          1 MOL1         0.0814
       6    C3      19.753046   18.483263   21.291216 C.2        1 MOL1        -0.1394
       7    H2      20.585212   17.882362   20.925134 H          1 MOL1         0.0817
       8    C4      19.931110   19.982904   21.179935 C.3        1 MOL1        -0.1849
       9    H3      18.985642   20.443549   20.863040 H          1 MOL1         0.0736
      10    H4      20.662841   20.214243   20.394221 H          1 MOL1         0.0736
      11    C5      20.383984   20.621310   22.511439 C.3        1 MOL1        -0.1866
      12    H5      20.394094   21.714359   22.400557 H          1 MOL1         0.0738
      13    H6      19.653061   20.392575   23.299386 H          1 MOL1         0.0738
      14    C6      21.785833   20.145627   22.948770 C.3        1 MOL1        -0.2879
      15    H7      22.535831   20.375523   22.180789 H          1 MOL1         0.0750
      16    H8      22.089476   20.643376   23.878799 H          1 MOL1         0.0750
      17    H9      21.798749   19.062487   23.127271 H          1 MOL1         0.0750
@<TRIPOS>BOND
    1     1     2    1
    2     1     3    2
    3     1     4    1
    4     4     5    1
    5     4     6    2
    6     6     7    1
    7     6     8    1
    8     8     9    1
    9     8    10    1
   10     8    11    1
   11    11    12    1
   12    11    13    1
   13    11    14    1
   14    14    15    1
   15    14    16    1
   16    14    17    1
@<TRIPOS>SUBSTRUCTURE
       1 MOL1            1 RESIDUE      1      MOL     
@<SCITEGIC>MOL_PROPERTY
VConf Rank
SciTegic.value.IntegerValue
979

@<SCITEGIC>MOL_PROPERTY
Conf_Id
SciTegic.value.IntegerValue
3

@<SCITEGIC>MOL_PROPERTY
Delta U+W
SciTegic.value.DoubleValue
0.531

@<SCITEGIC>MOL_PROPERTY
U+W
SciTegic.value.DoubleValue
-52.878

@<SCITEGIC>MOL_PROPERTY
Grad RMS
SciTegic.value.DoubleValue
0.000000

@<SCITEGIC>MOL_PROPERTY
U
SciTegic.value.DoubleValue
10.067

@<SCITEGIC>MOL_PROPERTY
W
SciTegic.value.DoubleValue
-62.945

@<SCITEGIC>MOL_PROPERTY
W(PB)
SciTegic.value.DoubleValue
-64.982

@<SCITEGIC>MOL_PROPERTY
W(SA)
SciTegic.value.DoubleValue
2.037

@<SCITEGIC>MOL_PROPERTY
Valence
SciTegic.value.DoubleValue
2.779

@<SCITEGIC>MOL_PROPERTY
Coulomb
SciTegic.value.DoubleValue
6.474

@<SCITEGIC>MOL_PROPERTY
VdW
SciTegic.value.DoubleValue
0.815

@<SCITEGIC>MOL_PROPERTY
VdW6
SciTegic.value.DoubleValue
-5.088

@<SCITEGIC>MOL_PROPERTY
VdW12
SciTegic.value.DoubleValue
5.902

@<SCITEGIC>MOL_PROPERTY
Bond
SciTegic.value.DoubleValue
0.078

@<SCITEGIC>MOL_PROPERTY
Angle
SciTegic.value.DoubleValue
2.651

@<SCITEGIC>MOL_PROPERTY
Pdih
SciTegic.value.DoubleValue
0.050

@<SCITEGIC>MOL_PROPERTY
Idih
SciTegic.value.DoubleValue
0.000

@<SCITEGIC>MOL_PROPERTY
Tether
SciTegic.value.DoubleValue
0.000

@<TRIPOS>MOLECULE
guest-s19_confgen4.mol2 : confsearch ligand conformer 980
          17          16           1
SMALL
USER_CHARGES
 
@<TRIPOS>ATOM
       1    C1      19.909101   18.114693   24.930308 C.2        1 MOL1         0.6173
       2    O1      19.805422   18.744655   25.964803 O.co2      1 MOL1        -0.6755
       3    O2      20.363868   16.986984   24.886632 O.co2      1 MOL1        -0.6755
       4    C2      19.450082   18.771606   23.676579 C.2        1 MOL1        -0.1504
       5    H1      19.054621   19.778684   23.786632 H          1 MOL1         0.0814
       6    C3      19.508251   18.190593   22.456487 C.2        1 MOL1        -0.1394
       7    H2      19.906414   17.183292   22.336779 H          1 MOL1         0.0817
       8    C4      19.042700   18.862993   21.181544 C.3        1 MOL1        -0.1849
       9    H3      18.391221   19.717233   21.410863 H          1 MOL1         0.0736
      10    H4      18.428713   18.156385   20.607319 H          1 MOL1         0.0736
      11    C5      20.222224   19.331517   20.301558 C.3        1 MOL1        -0.1866
      12    H5      20.875879   18.478078   20.073883 H          1 MOL1         0.0738
      13    H6      19.831085   19.692377   19.340315 H          1 MOL1         0.0738
      14    C6      21.046666   20.456415   20.963170 C.3        1 MOL1        -0.2879
      15    H7      21.508195   20.112089   21.897774 H          1 MOL1         0.0750
      16    H8      21.850415   20.790461   20.294389 H          1 MOL1         0.0750
      17    H9      20.414022   21.323666   21.192797 H          1 MOL1         0.0750
@<TRIPOS>BOND
    1     1     2    1
    2     1     3    2
    3     1     4    1
    4     4     5    1
    5     4     6    2
    6     6     7    1
    7     6     8    1
    8     8     9    1
    9     8    10    1
   10     8    11    1
   11    11    12    1
   12    11    13    1
   13    11    14    1
   14    14    15    1
   15    14    16    1
   16    14    17    1
@<TRIPOS>SUBSTRUCTURE
       1 MOL1            1 RESIDUE      1      MOL     
@<SCITEGIC>MOL_PROPERTY
VConf Rank
SciTegic.value.IntegerValue
980

@<SCITEGIC>MOL_PROPERTY
Conf_Id
SciTegic.value.IntegerValue
45

@<SCITEGIC>MOL_PROPERTY
Delta U+W
SciTegic.value.DoubleValue
0.562

@<SCITEGIC>MOL_PROPERTY
U+W
SciTegic.value.DoubleValue
-52.846

@<SCITEGIC>MOL_PROPERTY
Grad RMS
SciTegic.value.DoubleValue
0.000000

@<SCITEGIC>MOL_PROPERTY
U
SciTegic.value.DoubleValue
10.243

@<SCITEGIC>MOL_PROPERTY
W
SciTegic.value.DoubleValue
-63.089

@<SCITEGIC>MOL_PROPERTY
W(PB)
SciTegic.value.DoubleValue
-65.116

@<SCITEGIC>MOL_PROPERTY
W(SA)
SciTegic.value.DoubleValue
2.026

@<SCITEGIC>MOL_PROPERTY
Valence
SciTegic.value.DoubleValue
2.822

@<SCITEGIC>MOL_PROPERTY
Coulomb
SciTegic.value.DoubleValue
6.637

@<SCITEGIC>MOL_PROPERTY
VdW
SciTegic.value.DoubleValue
0.785

@<SCITEGIC>MOL_PROPERTY
VdW6
SciTegic.value.DoubleValue
-5.216

@<SCITEGIC>MOL_PROPERTY
VdW12
SciTegic.value.DoubleValue
6.001

@<SCITEGIC>MOL_PROPERTY
Bond
SciTegic.value.DoubleValue
0.080

@<SCITEGIC>MOL_PROPERTY
Angle
SciTegic.value.DoubleValue
2.678

@<SCITEGIC>MOL_PROPERTY
Pdih
SciTegic.value.DoubleValue
0.064

@<SCITEGIC>MOL_PROPERTY
Idih
SciTegic.value.DoubleValue
0.000

@<SCITEGIC>MOL_PROPERTY
Tether
SciTegic.value.DoubleValue
0.000

@<TRIPOS>MOLECULE
guest-s19_confgen4.mol2 : confsearch ligand conformer 981
          17          16           1
SMALL
USER_CHARGES
 
@<TRIPOS>ATOM
       1    C1      18.770397   18.677026   25.026163 C.2        1 MOL1         0.6173
       2    O1      19.154147   17.929902   25.904938 O.co2      1 MOL1        -0.6755
       3    O2      17.697797   19.249906   25.067768 O.co2      1 MOL1        -0.6755
       4    C2      19.669971   18.885234   23.859296 C.2        1 MOL1        -0.1504
       5    H1      20.613023   18.344008   23.884542 H          1 MOL1         0.0814
       6    C3      19.371710   19.686105   22.811093 C.2        1 MOL1        -0.1394
       7    H2      18.428641   20.231130   22.774478 H          1 MOL1         0.0817
       8    C4      20.291327   19.890686   21.627164 C.3        1 MOL1        -0.1849
       9    H3      21.335555   19.933312   21.965661 H          1 MOL1         0.0736
      10    H4      20.075516   20.859539   21.156911 H          1 MOL1         0.0736
      11    C5      20.126983   18.763969   20.586725 C.3        1 MOL1        -0.1866
      12    H5      20.346663   17.794224   21.054588 H          1 MOL1         0.0738
      13    H6      19.082274   18.724664   20.248191 H          1 MOL1         0.0738
      14    C6      21.054287   18.970212   19.372189 C.3        1 MOL1        -0.2879
      15    H7      20.833966   19.919364   18.866224 H          1 MOL1         0.0750
      16    H8      22.108088   18.982207   19.680080 H          1 MOL1         0.0750
      17    H9      20.923405   18.159550   18.643609 H          1 MOL1         0.0750
@<TRIPOS>BOND
    1     1     2    1
    2     1     3    2
    3     1     4    1
    4     4     5    1
    5     4     6    2
    6     6     7    1
    7     6     8    1
    8     8     9    1
    9     8    10    1
   10     8    11    1
   11    11    12    1
   12    11    13    1
   13    11    14    1
   14    14    15    1
   15    14    16    1
   16    14    17    1
@<TRIPOS>SUBSTRUCTURE
       1 MOL1            1 RESIDUE      1      MOL     
@<SCITEGIC>MOL_PROPERTY
VConf Rank
SciTegic.value.IntegerValue
981

@<SCITEGIC>MOL_PROPERTY
Conf_Id
SciTegic.value.IntegerValue
36

@<SCITEGIC>MOL_PROPERTY
Delta U+W
SciTegic.value.DoubleValue
0.000

@<SCITEGIC>MOL_PROPERTY
U+W
SciTegic.value.DoubleValue
-53.409

@<SCITEGIC>MOL_PROPERTY
Grad RMS
SciTegic.value.DoubleValue
0.000000

@<SCITEGIC>MOL_PROPERTY
U
SciTegic.value.DoubleValue
9.048

@<SCITEGIC>MOL_PROPERTY
W
SciTegic.value.DoubleValue
-62.457

@<SCITEGIC>MOL_PROPERTY
W(PB)
SciTegic.value.DoubleValue
-64.540

@<SCITEGIC>MOL_PROPERTY
W(SA)
SciTegic.value.DoubleValue
2.084

@<SCITEGIC>MOL_PROPERTY
Valence
SciTegic.value.DoubleValue
2.652

@<SCITEGIC>MOL_PROPERTY
Coulomb
SciTegic.value.DoubleValue
5.578

@<SCITEGIC>MOL_PROPERTY
VdW
SciTegic.value.DoubleValue
0.818

@<SCITEGIC>MOL_PROPERTY
VdW6
SciTegic.value.DoubleValue
-4.534

@<SCITEGIC>MOL_PROPERTY
VdW12
SciTegic.value.DoubleValue
5.352

@<SCITEGIC>MOL_PROPERTY
Bond
SciTegic.value.DoubleValue
0.063

@<SCITEGIC>MOL_PROPERTY
Angle
SciTegic.value.DoubleValue
2.579

@<SCITEGIC>MOL_PROPERTY
Pdih
SciTegic.value.DoubleValue
0.010

@<SCITEGIC>MOL_PROPERTY
Idih
SciTegic.value.DoubleValue
0.000

@<SCITEGIC>MOL_PROPERTY
Tether
SciTegic.value.DoubleValue
0.000

@<TRIPOS>MOLECULE
guest-s19_confgen4.mol2 : confsearch ligand conformer 982
          17          16           1
SMALL
USER_CHARGES
 
@<TRIPOS>ATOM
       1    C1      19.306026   21.800707   20.030548 C.2        1 MOL1         0.6173
       2    O1      19.596619   22.777883   20.694683 O.co2      1 MOL1        -0.6755
       3    O2      18.682746   21.871906   18.989319 O.co2      1 MOL1        -0.6755
       4    C2      19.721984   20.448514   20.491758 C.2        1 MOL1        -0.1504
       5    H1      19.430613   19.618472   19.852193 H          1 MOL1         0.0814
       6    C3      20.417390   20.220946   21.629172 C.2        1 MOL1        -0.1394
       7    H2      20.712528   21.045050   22.278418 H          1 MOL1         0.0817
       8    C4      20.834929   18.842297   22.092018 C.3        1 MOL1        -0.1849
       9    H3      21.716825   18.923826   22.741632 H          1 MOL1         0.0736
      10    H4      21.137186   18.232242   21.229881 H          1 MOL1         0.0736
      11    C5      19.695297   18.136617   22.855085 C.3        1 MOL1        -0.1866
      12    H5      19.396221   18.747624   23.718098 H          1 MOL1         0.0738
      13    H6      18.813430   18.050557   22.205113 H          1 MOL1         0.0738
      14    C6      20.116123   16.734157   23.338342 C.3        1 MOL1        -0.2879
      15    H7      20.977698   16.794188   24.016216 H          1 MOL1         0.0750
      16    H8      19.293235   16.248176   23.878534 H          1 MOL1         0.0750
      17    H9      20.390643   16.092570   22.490734 H          1 MOL1         0.0750
@<TRIPOS>BOND
    1     1     2    1
    2     1     3    2
    3     1     4    1
    4     4     5    1
    5     4     6    2
    6     6     7    1
    7     6     8    1
    8     8     9    1
    9     8    10    1
   10     8    11    1
   11    11    12    1
   12    11    13    1
   13    11    14    1
   14    14    15    1
   15    14    16    1
   16    14    17    1
@<TRIPOS>SUBSTRUCTURE
       1 MOL1            1 RESIDUE      1      MOL     
@<SCITEGIC>MOL_PROPERTY
VConf Rank
SciTegic.value.IntegerValue
982

@<SCITEGIC>MOL_PROPERTY
Conf_Id
SciTegic.value.IntegerValue
1

@<SCITEGIC>MOL_PROPERTY
Delta U+W
SciTegic.value.DoubleValue
0.030

@<SCITEGIC>MOL_PROPERTY
U+W
SciTegic.value.DoubleValue
-53.378

@<SCITEGIC>MOL_PROPERTY
Grad RMS
SciTegic.value.DoubleValue
0.000000

@<SCITEGIC>MOL_PROPERTY
U
SciTegic.value.DoubleValue
9.048

@<SCITEGIC>MOL_PROPERTY
W
SciTegic.value.DoubleValue
-62.426

@<SCITEGIC>MOL_PROPERTY
W(PB)
SciTegic.value.DoubleValue
-64.506

@<SCITEGIC>MOL_PROPERTY
W(SA)
SciTegic.value.DoubleValue
2.080

@<SCITEGIC>MOL_PROPERTY
Valence
SciTegic.value.DoubleValue
2.652

@<SCITEGIC>MOL_PROPERTY
Coulomb
SciTegic.value.DoubleValue
5.578

@<SCITEGIC>MOL_PROPERTY
VdW
SciTegic.value.DoubleValue
0.818

@<SCITEGIC>MOL_PROPERTY
VdW6
SciTegic.value.DoubleValue
-4.535

@<SCITEGIC>MOL_PROPERTY
VdW12
SciTegic.value.DoubleValue
5.352

@<SCITEGIC>MOL_PROPERTY
Bond
SciTegic.value.DoubleValue
0.063

@<SCITEGIC>MOL_PROPERTY
Angle
SciTegic.value.DoubleValue
2.579

@<SCITEGIC>MOL_PROPERTY
Pdih
SciTegic.value.DoubleValue
0.010

@<SCITEGIC>MOL_PROPERTY
Idih
SciTegic.value.DoubleValue
0.000

@<SCITEGIC>MOL_PROPERTY
Tether
SciTegic.value.DoubleValue
0.000

@<TRIPOS>MOLECULE
guest-s19_confgen4.mol2 : confsearch ligand conformer 983
          17          16           1
SMALL
USER_CHARGES
 
@<TRIPOS>ATOM
       1    C1      20.176505   16.257441   23.259991 C.2        1 MOL1         0.6173
       2    O1      20.252921   15.589783   22.245676 O.co2      1 MOL1        -0.6755
       3    O2      20.446949   15.818412   24.360865 O.co2      1 MOL1        -0.6755
       4    C2      19.731704   17.674875   23.175578 C.2        1 MOL1        -0.1504
       5    H1      19.684456   18.214551   24.118593 H          1 MOL1         0.0814
       6    C3      19.400900   18.293351   22.019272 C.2        1 MOL1        -0.1394
       7    H2      19.447910   17.763068   21.068384 H          1 MOL1         0.0817
       8    C4      18.952713   19.737638   21.940682 C.3        1 MOL1        -0.1849
       9    H3      18.279633   19.960570   22.779604 H          1 MOL1         0.0736
      10    H4      18.365332   19.896568   21.026342 H          1 MOL1         0.0736
      11    C5      20.140911   20.724017   21.969065 C.3        1 MOL1        -0.1866
      12    H5      19.753926   21.751230   22.016288 H          1 MOL1         0.0738
      13    H6      20.729895   20.568224   22.883534 H          1 MOL1         0.0738
      14    C6      21.054327   20.585399   20.732469 C.3        1 MOL1        -0.2879
      15    H7      20.488732   20.749821   19.806072 H          1 MOL1         0.0750
      16    H8      21.867168   21.322209   20.768621 H          1 MOL1         0.0750
      17    H9      21.507575   19.586642   20.684796 H          1 MOL1         0.0750
@<TRIPOS>BOND
    1     1     2    1
    2     1     3    2
    3     1     4    1
    4     4     5    1
    5     4     6    2
    6     6     7    1
    7     6     8    1
    8     8     9    1
    9     8    10    1
   10     8    11    1
   11    11    12    1
   12    11    13    1
   13    11    14    1
   14    14    15    1
   15    14    16    1
   16    14    17    1
@<TRIPOS>SUBSTRUCTURE
       1 MOL1            1 RESIDUE      1      MOL     
@<SCITEGIC>MOL_PROPERTY
VConf Rank
SciTegic.value.IntegerValue
983

@<SCITEGIC>MOL_PROPERTY
Conf_Id
SciTegic.value.IntegerValue
3

@<SCITEGIC>MOL_PROPERTY
Delta U+W
SciTegic.value.DoubleValue
0.531

@<SCITEGIC>MOL_PROPERTY
U+W
SciTegic.value.DoubleValue
-52.878

@<SCITEGIC>MOL_PROPERTY
Grad RMS
SciTegic.value.DoubleValue
0.000000

@<SCITEGIC>MOL_PROPERTY
U
SciTegic.value.DoubleValue
10.067

@<SCITEGIC>MOL_PROPERTY
W
SciTegic.value.DoubleValue
-62.945

@<SCITEGIC>MOL_PROPERTY
W(PB)
SciTegic.value.DoubleValue
-64.982

@<SCITEGIC>MOL_PROPERTY
W(SA)
SciTegic.value.DoubleValue
2.037

@<SCITEGIC>MOL_PROPERTY
Valence
SciTegic.value.DoubleValue
2.779

@<SCITEGIC>MOL_PROPERTY
Coulomb
SciTegic.value.DoubleValue
6.474

@<SCITEGIC>MOL_PROPERTY
VdW
SciTegic.value.DoubleValue
0.815

@<SCITEGIC>MOL_PROPERTY
VdW6
SciTegic.value.DoubleValue
-5.088

@<SCITEGIC>MOL_PROPERTY
VdW12
SciTegic.value.DoubleValue
5.902

@<SCITEGIC>MOL_PROPERTY
Bond
SciTegic.value.DoubleValue
0.078

@<SCITEGIC>MOL_PROPERTY
Angle
SciTegic.value.DoubleValue
2.651

@<SCITEGIC>MOL_PROPERTY
Pdih
SciTegic.value.DoubleValue
0.050

@<SCITEGIC>MOL_PROPERTY
Idih
SciTegic.value.DoubleValue
0.000

@<SCITEGIC>MOL_PROPERTY
Tether
SciTegic.value.DoubleValue
0.000

@<TRIPOS>MOLECULE
guest-s19_confgen4.mol2 : confsearch ligand conformer 984
          17          16           1
SMALL
USER_CHARGES
 
@<TRIPOS>ATOM
       1    C1      19.037053   21.161284   20.080616 C.2        1 MOL1         0.6173
       2    O1      19.667201   21.760673   19.231247 O.co2      1 MOL1        -0.6755
       3    O2      17.969513   21.555062   20.511600 O.co2      1 MOL1        -0.6755
       4    C2      19.615684   19.891686   20.597701 C.2        1 MOL1        -0.1504
       5    H1      20.571415   19.597722   20.170069 H          1 MOL1         0.0814
       6    C3      19.025848   19.124616   21.542838 C.2        1 MOL1        -0.1394
       7    H2      18.070055   19.413672   21.979214 H          1 MOL1         0.0817
       8    C4      19.618755   17.833993   22.069230 C.3        1 MOL1        -0.1849
       9    H3      20.394778   17.459147   21.388040 H          1 MOL1         0.0736
      10    H4      18.836216   17.063901   22.093732 H          1 MOL1         0.0736
      11    C5      20.207400   17.995127   23.487926 C.3        1 MOL1        -0.1866
      12    H5      19.432454   18.372583   24.169428 H          1 MOL1         0.0738
      13    H6      20.504662   17.007621   23.866960 H          1 MOL1         0.0738
      14    C6      21.431270   18.935313   23.519900 C.3        1 MOL1        -0.2879
      15    H7      21.158208   19.951794   23.208042 H          1 MOL1         0.0750
      16    H8      21.845953   18.994856   24.534474 H          1 MOL1         0.0750
      17    H9      22.222414   18.572672   22.850815 H          1 MOL1         0.0750
@<TRIPOS>BOND
    1     1     2    1
    2     1     3    2
    3     1     4    1
    4     4     5    1
    5     4     6    2
    6     6     7    1
    7     6     8    1
    8     8     9    1
    9     8    10    1
   10     8    11    1
   11    11    12    1
   12    11    13    1
   13    11    14    1
   14    14    15    1
   15    14    16    1
   16    14    17    1
@<TRIPOS>SUBSTRUCTURE
       1 MOL1            1 RESIDUE      1      MOL     
@<SCITEGIC>MOL_PROPERTY
VConf Rank
SciTegic.value.IntegerValue
984

@<SCITEGIC>MOL_PROPERTY
Conf_Id
SciTegic.value.IntegerValue
45

@<SCITEGIC>MOL_PROPERTY
Delta U+W
SciTegic.value.DoubleValue
0.562

@<SCITEGIC>MOL_PROPERTY
U+W
SciTegic.value.DoubleValue
-52.846

@<SCITEGIC>MOL_PROPERTY
Grad RMS
SciTegic.value.DoubleValue
0.000000

@<SCITEGIC>MOL_PROPERTY
U
SciTegic.value.DoubleValue
10.243

@<SCITEGIC>MOL_PROPERTY
W
SciTegic.value.DoubleValue
-63.089

@<SCITEGIC>MOL_PROPERTY
W(PB)
SciTegic.value.DoubleValue
-65.116

@<SCITEGIC>MOL_PROPERTY
W(SA)
SciTegic.value.DoubleValue
2.026

@<SCITEGIC>MOL_PROPERTY
Valence
SciTegic.value.DoubleValue
2.822

@<SCITEGIC>MOL_PROPERTY
Coulomb
SciTegic.value.DoubleValue
6.637

@<SCITEGIC>MOL_PROPERTY
VdW
SciTegic.value.DoubleValue
0.785

@<SCITEGIC>MOL_PROPERTY
VdW6
SciTegic.value.DoubleValue
-5.216

@<SCITEGIC>MOL_PROPERTY
VdW12
SciTegic.value.DoubleValue
6.001

@<SCITEGIC>MOL_PROPERTY
Bond
SciTegic.value.DoubleValue
0.080

@<SCITEGIC>MOL_PROPERTY
Angle
SciTegic.value.DoubleValue
2.678

@<SCITEGIC>MOL_PROPERTY
Pdih
SciTegic.value.DoubleValue
0.064

@<SCITEGIC>MOL_PROPERTY
Idih
SciTegic.value.DoubleValue
0.000

@<SCITEGIC>MOL_PROPERTY
Tether
SciTegic.value.DoubleValue
0.000

@<TRIPOS>MOLECULE
guest-s19_confgen4.mol2 : confsearch ligand conformer 985
          17          16           1
SMALL
USER_CHARGES
 
@<TRIPOS>ATOM
       1    C1      16.901321   18.097469   21.031684 C.2        1 MOL1         0.6173
       2    O1      15.862110   18.727499   21.003290 O.co2      1 MOL1        -0.6755
       3    O2      16.940779   16.884196   20.949182 O.co2      1 MOL1        -0.6755
       4    C2      18.167641   18.866036   21.172746 C.2        1 MOL1        -0.1504
       5    H1      18.062015   19.946338   21.241301 H          1 MOL1         0.0814
       6    C3      19.393572   18.296836   21.219533 C.2        1 MOL1        -0.1394
       7    H2      19.510703   17.215276   21.154104 H          1 MOL1         0.0817
       8    C4      20.676448   19.085636   21.365345 C.3        1 MOL1        -0.1849
       9    H3      20.614420   20.014681   20.782389 H          1 MOL1         0.0736
      10    H4      21.512292   18.509168   20.946492 H          1 MOL1         0.0736
      11    C5      20.967419   19.416993   22.843369 C.3        1 MOL1        -0.1866
      12    H5      20.133910   19.997420   23.262807 H          1 MOL1         0.0738
      13    H6      21.031028   18.486168   23.423961 H          1 MOL1         0.0738
      14    C6      22.278529   20.212938   23.001446 C.3        1 MOL1        -0.2879
      15    H7      23.133974   19.641217   22.618328 H          1 MOL1         0.0750
      16    H8      22.229112   21.163890   22.454926 H          1 MOL1         0.0750
      17    H9      22.468478   20.439275   24.058716 H          1 MOL1         0.0750
@<TRIPOS>BOND
    1     1     2    1
    2     1     3    2
    3     1     4    1
    4     4     5    1
    5     4     6    2
    6     6     7    1
    7     6     8    1
    8     8     9    1
    9     8    10    1
   10     8    11    1
   11    11    12    1
   12    11    13    1
   13    11    14    1
   14    14    15    1
   15    14    16    1
   16    14    17    1
@<TRIPOS>SUBSTRUCTURE
       1 MOL1            1 RESIDUE      1      MOL     
@<SCITEGIC>MOL_PROPERTY
VConf Rank
SciTegic.value.IntegerValue
985

@<SCITEGIC>MOL_PROPERTY
Conf_Id
SciTegic.value.IntegerValue
36

@<SCITEGIC>MOL_PROPERTY
Delta U+W
SciTegic.value.DoubleValue
0.000

@<SCITEGIC>MOL_PROPERTY
U+W
SciTegic.value.DoubleValue
-53.409

@<SCITEGIC>MOL_PROPERTY
Grad RMS
SciTegic.value.DoubleValue
0.000000

@<SCITEGIC>MOL_PROPERTY
U
SciTegic.value.DoubleValue
9.048

@<SCITEGIC>MOL_PROPERTY
W
SciTegic.value.DoubleValue
-62.457

@<SCITEGIC>MOL_PROPERTY
W(PB)
SciTegic.value.DoubleValue
-64.540

@<SCITEGIC>MOL_PROPERTY
W(SA)
SciTegic.value.DoubleValue
2.084

@<SCITEGIC>MOL_PROPERTY
Valence
SciTegic.value.DoubleValue
2.652

@<SCITEGIC>MOL_PROPERTY
Coulomb
SciTegic.value.DoubleValue
5.578

@<SCITEGIC>MOL_PROPERTY
VdW
SciTegic.value.DoubleValue
0.818

@<SCITEGIC>MOL_PROPERTY
VdW6
SciTegic.value.DoubleValue
-4.534

@<SCITEGIC>MOL_PROPERTY
VdW12
SciTegic.value.DoubleValue
5.352

@<SCITEGIC>MOL_PROPERTY
Bond
SciTegic.value.DoubleValue
0.063

@<SCITEGIC>MOL_PROPERTY
Angle
SciTegic.value.DoubleValue
2.579

@<SCITEGIC>MOL_PROPERTY
Pdih
SciTegic.value.DoubleValue
0.010

@<SCITEGIC>MOL_PROPERTY
Idih
SciTegic.value.DoubleValue
0.000

@<SCITEGIC>MOL_PROPERTY
Tether
SciTegic.value.DoubleValue
0.000

@<TRIPOS>MOLECULE
guest-s19_confgen4.mol2 : confsearch ligand conformer 986
          17          16           1
SMALL
USER_CHARGES
 
@<TRIPOS>ATOM
       1    C1      17.761983   18.338718   24.308666 C.2        1 MOL1         0.6173
       2    O1      18.079974   18.965662   25.301751 O.co2      1 MOL1        -0.6755
       3    O2      16.916963   17.464955   24.322206 O.co2      1 MOL1        -0.6755
       4    C2      18.421272   18.637476   23.008572 C.2        1 MOL1        -0.1504
       5    H1      18.091041   18.041358   22.160928 H          1 MOL1         0.0814
       6    C3      19.376994   19.580701   22.847300 C.2        1 MOL1        -0.1394
       7    H2      19.716846   20.182148   23.690233 H          1 MOL1         0.0817
       8    C4      20.043824   19.877004   21.521864 C.3        1 MOL1        -0.1849
       9    H3      20.421392   20.908426   21.522536 H          1 MOL1         0.0736
      10    H4      19.307757   19.814205   20.708803 H          1 MOL1         0.0736
      11    C5      21.206911   18.901816   21.247541 C.3        1 MOL1        -0.1866
      12    H5      21.942802   18.968027   22.060958 H          1 MOL1         0.0738
      13    H6      20.830094   17.869564   21.242464 H          1 MOL1         0.0738
      14    C6      21.897877   19.203081   19.902428 C.3        1 MOL1        -0.2879
      15    H7      22.312107   20.219813   19.892432 H          1 MOL1         0.0750
      16    H8      22.721870   18.499780   19.724853 H          1 MOL1         0.0750
      17    H9      21.189784   19.112997   19.068207 H          1 MOL1         0.0750
@<TRIPOS>BOND
    1     1     2    1
    2     1     3    2
    3     1     4    1
    4     4     5    1
    5     4     6    2
    6     6     7    1
    7     6     8    1
    8     8     9    1
    9     8    10    1
   10     8    11    1
   11    11    12    1
   12    11    13    1
   13    11    14    1
   14    14    15    1
   15    14    16    1
   16    14    17    1
@<TRIPOS>SUBSTRUCTURE
       1 MOL1            1 RESIDUE      1      MOL     
@<SCITEGIC>MOL_PROPERTY
VConf Rank
SciTegic.value.IntegerValue
986

@<SCITEGIC>MOL_PROPERTY
Conf_Id
SciTegic.value.IntegerValue
1

@<SCITEGIC>MOL_PROPERTY
Delta U+W
SciTegic.value.DoubleValue
0.030

@<SCITEGIC>MOL_PROPERTY
U+W
SciTegic.value.DoubleValue
-53.378

@<SCITEGIC>MOL_PROPERTY
Grad RMS
SciTegic.value.DoubleValue
0.000000

@<SCITEGIC>MOL_PROPERTY
U
SciTegic.value.DoubleValue
9.048

@<SCITEGIC>MOL_PROPERTY
W
SciTegic.value.DoubleValue
-62.426

@<SCITEGIC>MOL_PROPERTY
W(PB)
SciTegic.value.DoubleValue
-64.506

@<SCITEGIC>MOL_PROPERTY
W(SA)
SciTegic.value.DoubleValue
2.080

@<SCITEGIC>MOL_PROPERTY
Valence
SciTegic.value.DoubleValue
2.652

@<SCITEGIC>MOL_PROPERTY
Coulomb
SciTegic.value.DoubleValue
5.578

@<SCITEGIC>MOL_PROPERTY
VdW
SciTegic.value.DoubleValue
0.818

@<SCITEGIC>MOL_PROPERTY
VdW6
SciTegic.value.DoubleValue
-4.535

@<SCITEGIC>MOL_PROPERTY
VdW12
SciTegic.value.DoubleValue
5.352

@<SCITEGIC>MOL_PROPERTY
Bond
SciTegic.value.DoubleValue
0.063

@<SCITEGIC>MOL_PROPERTY
Angle
SciTegic.value.DoubleValue
2.579

@<SCITEGIC>MOL_PROPERTY
Pdih
SciTegic.value.DoubleValue
0.010

@<SCITEGIC>MOL_PROPERTY
Idih
SciTegic.value.DoubleValue
0.000

@<SCITEGIC>MOL_PROPERTY
Tether
SciTegic.value.DoubleValue
0.000

@<TRIPOS>MOLECULE
guest-s19_confgen4.mol2 : confsearch ligand conformer 987
          17          16           1
SMALL
USER_CHARGES
 
@<TRIPOS>ATOM
       1    C1      19.787526   19.394362   18.991951 C.2        1 MOL1         0.6173
       2    O1      18.602019   19.646632   18.885301 O.co2      1 MOL1        -0.6755
       3    O2      20.586022   19.585284   18.095422 O.co2      1 MOL1        -0.6755
       4    C2      20.306269   18.823302   20.264306 C.2        1 MOL1        -0.1504
       5    H1      21.374324   18.620326   20.292923 H          1 MOL1         0.0814
       6    C3      19.533722   18.560959   21.342886 C.2        1 MOL1        -0.1394
       7    H2      18.463093   18.763629   21.326250 H          1 MOL1         0.0817
       8    C4      20.069504   17.983257   22.636026 C.3        1 MOL1        -0.1849
       9    H3      20.810533   17.203976   22.412144 H          1 MOL1         0.0736
      10    H4      19.259299   17.486242   23.186332 H          1 MOL1         0.0736
      11    C5      20.720538   19.057762   23.534444 C.3        1 MOL1        -0.1866
      12    H5      21.182074   18.568164   24.403024 H          1 MOL1         0.0738
      13    H6      21.532537   19.556038   22.986898 H          1 MOL1         0.0738
      14    C6      19.704943   20.109773   24.028966 C.3        1 MOL1        -0.2879
      15    H7      18.889841   19.635078   24.590588 H          1 MOL1         0.0750
      16    H8      20.193667   20.836872   24.690314 H          1 MOL1         0.0750
      17    H9      19.265645   20.662144   23.188059 H          1 MOL1         0.0750
@<TRIPOS>BOND
    1     1     2    1
    2     1     3    2
    3     1     4    1
    4     4     5    1
    5     4     6    2
    6     6     7    1
    7     6     8    1
    8     8     9    1
    9     8    10    1
   10     8    11    1
   11    11    12    1
   12    11    13    1
   13    11    14    1
   14    14    15    1
   15    14    16    1
   16    14    17    1
@<TRIPOS>SUBSTRUCTURE
       1 MOL1            1 RESIDUE      1      MOL     
@<SCITEGIC>MOL_PROPERTY
VConf Rank
SciTegic.value.IntegerValue
987

@<SCITEGIC>MOL_PROPERTY
Conf_Id
SciTegic.value.IntegerValue
3

@<SCITEGIC>MOL_PROPERTY
Delta U+W
SciTegic.value.DoubleValue
0.531

@<SCITEGIC>MOL_PROPERTY
U+W
SciTegic.value.DoubleValue
-52.878

@<SCITEGIC>MOL_PROPERTY
Grad RMS
SciTegic.value.DoubleValue
0.000000

@<SCITEGIC>MOL_PROPERTY
U
SciTegic.value.DoubleValue
10.067

@<SCITEGIC>MOL_PROPERTY
W
SciTegic.value.DoubleValue
-62.945

@<SCITEGIC>MOL_PROPERTY
W(PB)
SciTegic.value.DoubleValue
-64.982

@<SCITEGIC>MOL_PROPERTY
W(SA)
SciTegic.value.DoubleValue
2.037

@<SCITEGIC>MOL_PROPERTY
Valence
SciTegic.value.DoubleValue
2.779

@<SCITEGIC>MOL_PROPERTY
Coulomb
SciTegic.value.DoubleValue
6.474

@<SCITEGIC>MOL_PROPERTY
VdW
SciTegic.value.DoubleValue
0.815

@<SCITEGIC>MOL_PROPERTY
VdW6
SciTegic.value.DoubleValue
-5.088

@<SCITEGIC>MOL_PROPERTY
VdW12
SciTegic.value.DoubleValue
5.902

@<SCITEGIC>MOL_PROPERTY
Bond
SciTegic.value.DoubleValue
0.078

@<SCITEGIC>MOL_PROPERTY
Angle
SciTegic.value.DoubleValue
2.651

@<SCITEGIC>MOL_PROPERTY
Pdih
SciTegic.value.DoubleValue
0.050

@<SCITEGIC>MOL_PROPERTY
Idih
SciTegic.value.DoubleValue
0.000

@<SCITEGIC>MOL_PROPERTY
Tether
SciTegic.value.DoubleValue
0.000

@<TRIPOS>MOLECULE
guest-s19_confgen4.mol2 : confsearch ligand conformer 988
          17          16           1
SMALL
USER_CHARGES
 
@<TRIPOS>ATOM
       1    C1      18.507301   17.821041   19.769249 C.2        1 MOL1         0.6173
       2    O1      17.351088   17.954275   19.418250 O.co2      1 MOL1        -0.6755
       3    O2      19.186997   16.862525   19.453480 O.co2      1 MOL1        -0.6755
       4    C2      19.095400   18.891679   20.618923 C.2        1 MOL1        -0.1504
       5    H1      18.433777   19.719304   20.863866 H          1 MOL1         0.0814
       6    C3      20.365866   18.873010   21.082768 C.2        1 MOL1        -0.1394
       7    H2      21.034315   18.045825   20.845157 H          1 MOL1         0.0817
       8    C4      20.960871   19.963148   21.949893 C.3        1 MOL1        -0.1849
       9    H3      20.355172   20.877683   21.890782 H          1 MOL1         0.0736
      10    H4      21.953128   20.228581   21.561330 H          1 MOL1         0.0736
      11    C5      21.100726   19.527853   23.425062 C.3        1 MOL1        -0.1866
      12    H5      21.704299   18.611566   23.484871 H          1 MOL1         0.0738
      13    H6      21.650870   20.302546   23.976778 H          1 MOL1         0.0738
      14    C6      19.735830   19.297370   24.108266 C.3        1 MOL1        -0.2879
      15    H7      19.182208   18.483270   23.622677 H          1 MOL1         0.0750
      16    H8      19.872896   19.028122   25.163532 H          1 MOL1         0.0750
      17    H9      19.118135   20.203923   24.066946 H          1 MOL1         0.0750
@<TRIPOS>BOND
    1     1     2    1
    2     1     3    2
    3     1     4    1
    4     4     5    1
    5     4     6    2
    6     6     7    1
    7     6     8    1
    8     8     9    1
    9     8    10    1
   10     8    11    1
   11    11    12    1
   12    11    13    1
   13    11    14    1
   14    14    15    1
   15    14    16    1
   16    14    17    1
@<TRIPOS>SUBSTRUCTURE
       1 MOL1            1 RESIDUE      1      MOL     
@<SCITEGIC>MOL_PROPERTY
VConf Rank
SciTegic.value.IntegerValue
988

@<SCITEGIC>MOL_PROPERTY
Conf_Id
SciTegic.value.IntegerValue
45

@<SCITEGIC>MOL_PROPERTY
Delta U+W
SciTegic.value.DoubleValue
0.562

@<SCITEGIC>MOL_PROPERTY
U+W
SciTegic.value.DoubleValue
-52.846

@<SCITEGIC>MOL_PROPERTY
Grad RMS
SciTegic.value.DoubleValue
0.000000

@<SCITEGIC>MOL_PROPERTY
U
SciTegic.value.DoubleValue
10.243

@<SCITEGIC>MOL_PROPERTY
W
SciTegic.value.DoubleValue
-63.089

@<SCITEGIC>MOL_PROPERTY
W(PB)
SciTegic.value.DoubleValue
-65.116

@<SCITEGIC>MOL_PROPERTY
W(SA)
SciTegic.value.DoubleValue
2.026

@<SCITEGIC>MOL_PROPERTY
Valence
SciTegic.value.DoubleValue
2.822

@<SCITEGIC>MOL_PROPERTY
Coulomb
SciTegic.value.DoubleValue
6.637

@<SCITEGIC>MOL_PROPERTY
VdW
SciTegic.value.DoubleValue
0.785

@<SCITEGIC>MOL_PROPERTY
VdW6
SciTegic.value.DoubleValue
-5.216

@<SCITEGIC>MOL_PROPERTY
VdW12
SciTegic.value.DoubleValue
6.001

@<SCITEGIC>MOL_PROPERTY
Bond
SciTegic.value.DoubleValue
0.080

@<SCITEGIC>MOL_PROPERTY
Angle
SciTegic.value.DoubleValue
2.678

@<SCITEGIC>MOL_PROPERTY
Pdih
SciTegic.value.DoubleValue
0.064

@<SCITEGIC>MOL_PROPERTY
Idih
SciTegic.value.DoubleValue
0.000

@<SCITEGIC>MOL_PROPERTY
Tether
SciTegic.value.DoubleValue
0.000

@<TRIPOS>MOLECULE
guest-s19_confgen4.mol2 : confsearch ligand conformer 989
          17          16           1
SMALL
USER_CHARGES
 
@<TRIPOS>ATOM
       1    C1      18.425702   16.292343   20.944817 C.2        1 MOL1         0.6173
       2    O1      18.746666   15.133837   21.125236 O.co2      1 MOL1        -0.6755
       3    O2      17.557953   16.622663   20.158500 O.co2      1 MOL1        -0.6755
       4    C2      19.138613   17.333981   21.732794 C.2        1 MOL1        -0.1504
       5    H1      19.902306   16.971570   22.417147 H          1 MOL1         0.0814
       6    C3      18.885956   18.658879   21.633313 C.2        1 MOL1        -0.1394
       7    H2      18.124608   19.033045   20.949119 H          1 MOL1         0.0817
       8    C4      19.617138   19.711962   22.436822 C.3        1 MOL1        -0.1849
       9    H3      19.800436   19.346357   23.456402 H          1 MOL1         0.0736
      10    H4      18.985172   20.605023   22.534027 H          1 MOL1         0.0736
      11    C5      20.955377   20.096412   21.773249 C.3        1 MOL1        -0.1866
      12    H5      21.590594   19.204678   21.679067 H          1 MOL1         0.0738
      13    H6      20.769259   20.463678   20.754405 H          1 MOL1         0.0738
      14    C6      21.702544   21.176373   22.581303 C.3        1 MOL1        -0.2879
      15    H7      21.101704   22.091609   22.663564 H          1 MOL1         0.0750
      16    H8      21.928410   20.822037   23.595633 H          1 MOL1         0.0750
      17    H9      22.651316   21.436589   22.094220 H          1 MOL1         0.0750
@<TRIPOS>BOND
    1     1     2    1
    2     1     3    2
    3     1     4    1
    4     4     5    1
    5     4     6    2
    6     6     7    1
    7     6     8    1
    8     8     9    1
    9     8    10    1
   10     8    11    1
   11    11    12    1
   12    11    13    1
   13    11    14    1
   14    14    15    1
   15    14    16    1
   16    14    17    1
@<TRIPOS>SUBSTRUCTURE
       1 MOL1            1 RESIDUE      1      MOL     
@<SCITEGIC>MOL_PROPERTY
VConf Rank
SciTegic.value.IntegerValue
989

@<SCITEGIC>MOL_PROPERTY
Conf_Id
SciTegic.value.IntegerValue
36

@<SCITEGIC>MOL_PROPERTY
Delta U+W
SciTegic.value.DoubleValue
0.000

@<SCITEGIC>MOL_PROPERTY
U+W
SciTegic.value.DoubleValue
-53.409

@<SCITEGIC>MOL_PROPERTY
Grad RMS
SciTegic.value.DoubleValue
0.000000

@<SCITEGIC>MOL_PROPERTY
U
SciTegic.value.DoubleValue
9.048

@<SCITEGIC>MOL_PROPERTY
W
SciTegic.value.DoubleValue
-62.457

@<SCITEGIC>MOL_PROPERTY
W(PB)
SciTegic.value.DoubleValue
-64.540

@<SCITEGIC>MOL_PROPERTY
W(SA)
SciTegic.value.DoubleValue
2.084

@<SCITEGIC>MOL_PROPERTY
Valence
SciTegic.value.DoubleValue
2.652

@<SCITEGIC>MOL_PROPERTY
Coulomb
SciTegic.value.DoubleValue
5.578

@<SCITEGIC>MOL_PROPERTY
VdW
SciTegic.value.DoubleValue
0.818

@<SCITEGIC>MOL_PROPERTY
VdW6
SciTegic.value.DoubleValue
-4.534

@<SCITEGIC>MOL_PROPERTY
VdW12
SciTegic.value.DoubleValue
5.352

@<SCITEGIC>MOL_PROPERTY
Bond
SciTegic.value.DoubleValue
0.063

@<SCITEGIC>MOL_PROPERTY
Angle
SciTegic.value.DoubleValue
2.579

@<SCITEGIC>MOL_PROPERTY
Pdih
SciTegic.value.DoubleValue
0.010

@<SCITEGIC>MOL_PROPERTY
Idih
SciTegic.value.DoubleValue
0.000

@<SCITEGIC>MOL_PROPERTY
Tether
SciTegic.value.DoubleValue
0.000

@<TRIPOS>MOLECULE
guest-s19_confgen4.mol2 : confsearch ligand conformer 990
          17          16           1
SMALL
USER_CHARGES
 
@<TRIPOS>ATOM
       1    C1      21.655720   19.066726   24.860132 C.2        1 MOL1         0.6173
       2    O1      21.178384   18.163921   25.521559 O.co2      1 MOL1        -0.6755
       3    O2      22.418577   19.892155   25.323189 O.co2      1 MOL1        -0.6755
       4    C2      21.306482   19.185665   23.418588 C.2        1 MOL1        -0.1504
       5    H1      21.767190   20.014162   22.885437 H          1 MOL1         0.0814
       6    C3      20.471414   18.340035   22.773098 C.2        1 MOL1        -0.1394
       7    H2      20.002672   17.507941   23.298145 H          1 MOL1         0.0817
       8    C4      20.119994   18.469156   21.307127 C.3        1 MOL1        -0.1849
       9    H3      19.820587   17.488670   20.912931 H          1 MOL1         0.0736
      10    H4      21.004888   18.779145   20.734698 H          1 MOL1         0.0736
      11    C5      18.978209   19.483195   21.090175 C.3        1 MOL1        -0.1866
      12    H5      18.093639   19.169851   21.661943 H          1 MOL1         0.0738
      13    H6      19.277756   20.465834   21.480370 H          1 MOL1         0.0738
      14    C6      18.607725   19.613720   19.599125 C.3        1 MOL1        -0.2879
      15    H7      18.273825   18.650560   19.191370 H          1 MOL1         0.0750
      16    H8      17.794461   20.338751   19.464727 H          1 MOL1         0.0750
      17    H9      19.467968   19.956244   19.009129 H          1 MOL1         0.0750
@<TRIPOS>BOND
    1     1     2    1
    2     1     3    2
    3     1     4    1
    4     4     5    1
    5     4     6    2
    6     6     7    1
    7     6     8    1
    8     8     9    1
    9     8    10    1
   10     8    11    1
   11    11    12    1
   12    11    13    1
   13    11    14    1
   14    14    15    1
   15    14    16    1
   16    14    17    1
@<TRIPOS>SUBSTRUCTURE
       1 MOL1            1 RESIDUE      1      MOL     
@<SCITEGIC>MOL_PROPERTY
VConf Rank
SciTegic.value.IntegerValue
990

@<SCITEGIC>MOL_PROPERTY
Conf_Id
SciTegic.value.IntegerValue
1

@<SCITEGIC>MOL_PROPERTY
Delta U+W
SciTegic.value.DoubleValue
0.030

@<SCITEGIC>MOL_PROPERTY
U+W
SciTegic.value.DoubleValue
-53.378

@<SCITEGIC>MOL_PROPERTY
Grad RMS
SciTegic.value.DoubleValue
0.000000

@<SCITEGIC>MOL_PROPERTY
U
SciTegic.value.DoubleValue
9.048

@<SCITEGIC>MOL_PROPERTY
W
SciTegic.value.DoubleValue
-62.426

@<SCITEGIC>MOL_PROPERTY
W(PB)
SciTegic.value.DoubleValue
-64.506

@<SCITEGIC>MOL_PROPERTY
W(SA)
SciTegic.value.DoubleValue
2.080

@<SCITEGIC>MOL_PROPERTY
Valence
SciTegic.value.DoubleValue
2.652

@<SCITEGIC>MOL_PROPERTY
Coulomb
SciTegic.value.DoubleValue
5.578

@<SCITEGIC>MOL_PROPERTY
VdW
SciTegic.value.DoubleValue
0.818

@<SCITEGIC>MOL_PROPERTY
VdW6
SciTegic.value.DoubleValue
-4.535

@<SCITEGIC>MOL_PROPERTY
VdW12
SciTegic.value.DoubleValue
5.352

@<SCITEGIC>MOL_PROPERTY
Bond
SciTegic.value.DoubleValue
0.063

@<SCITEGIC>MOL_PROPERTY
Angle
SciTegic.value.DoubleValue
2.579

@<SCITEGIC>MOL_PROPERTY
Pdih
SciTegic.value.DoubleValue
0.010

@<SCITEGIC>MOL_PROPERTY
Idih
SciTegic.value.DoubleValue
0.000

@<SCITEGIC>MOL_PROPERTY
Tether
SciTegic.value.DoubleValue
0.000

@<TRIPOS>MOLECULE
guest-s19_confgen4.mol2 : confsearch ligand conformer 991
          17          16           1
SMALL
USER_CHARGES
 
@<TRIPOS>ATOM
       1    C1      19.418236   17.224653   24.431642 C.2        1 MOL1         0.6173
       2    O1      18.521685   16.549575   23.961634 O.co2      1 MOL1        -0.6755
       3    O2      20.026049   16.907716   25.435597 O.co2      1 MOL1        -0.6755
       4    C2      19.803572   18.499839   23.768688 C.2        1 MOL1        -0.1504
       5    H1      20.611154   19.054935   24.240324 H          1 MOL1         0.0814
       6    C3      19.215186   18.973918   22.647066 C.2        1 MOL1        -0.1394
       7    H2      18.407459   18.424180   22.164405 H          1 MOL1         0.0817
       8    C4      19.615412   20.270877   21.975700 C.3        1 MOL1        -0.1849
       9    H3      19.811757   21.035605   22.739353 H          1 MOL1         0.0736
      10    H4      18.781355   20.650105   21.370035 H          1 MOL1         0.0736
      11    C5      20.868004   20.110139   21.086466 C.3        1 MOL1        -0.1866
      12    H5      21.172040   21.097461   20.712420 H          1 MOL1         0.0738
      13    H6      21.704713   19.731948   21.690055 H          1 MOL1         0.0738
      14    C6      20.625132   19.169189   19.887158 C.3        1 MOL1        -0.2879
      15    H7      19.800166   19.534808   19.261939 H          1 MOL1         0.0750
      16    H8      21.523259   19.104503   19.259391 H          1 MOL1         0.0750
      17    H9      20.376378   18.154346   20.223960 H          1 MOL1         0.0750
@<TRIPOS>BOND
    1     1     2    1
    2     1     3    2
    3     1     4    1
    4     4     5    1
    5     4     6    2
    6     6     7    1
    7     6     8    1
    8     8     9    1
    9     8    10    1
   10     8    11    1
   11    11    12    1
   12    11    13    1
   13    11    14    1
   14    14    15    1
   15    14    16    1
   16    14    17    1
@<TRIPOS>SUBSTRUCTURE
       1 MOL1            1 RESIDUE      1      MOL     
@<SCITEGIC>MOL_PROPERTY
VConf Rank
SciTegic.value.IntegerValue
991

@<SCITEGIC>MOL_PROPERTY
Conf_Id
SciTegic.value.IntegerValue
3

@<SCITEGIC>MOL_PROPERTY
Delta U+W
SciTegic.value.DoubleValue
0.531

@<SCITEGIC>MOL_PROPERTY
U+W
SciTegic.value.DoubleValue
-52.878

@<SCITEGIC>MOL_PROPERTY
Grad RMS
SciTegic.value.DoubleValue
0.000000

@<SCITEGIC>MOL_PROPERTY
U
SciTegic.value.DoubleValue
10.067

@<SCITEGIC>MOL_PROPERTY
W
SciTegic.value.DoubleValue
-62.945

@<SCITEGIC>MOL_PROPERTY
W(PB)
SciTegic.value.DoubleValue
-64.982

@<SCITEGIC>MOL_PROPERTY
W(SA)
SciTegic.value.DoubleValue
2.037

@<SCITEGIC>MOL_PROPERTY
Valence
SciTegic.value.DoubleValue
2.779

@<SCITEGIC>MOL_PROPERTY
Coulomb
SciTegic.value.DoubleValue
6.474

@<SCITEGIC>MOL_PROPERTY
VdW
SciTegic.value.DoubleValue
0.815

@<SCITEGIC>MOL_PROPERTY
VdW6
SciTegic.value.DoubleValue
-5.088

@<SCITEGIC>MOL_PROPERTY
VdW12
SciTegic.value.DoubleValue
5.902

@<SCITEGIC>MOL_PROPERTY
Bond
SciTegic.value.DoubleValue
0.078

@<SCITEGIC>MOL_PROPERTY
Angle
SciTegic.value.DoubleValue
2.651

@<SCITEGIC>MOL_PROPERTY
Pdih
SciTegic.value.DoubleValue
0.050

@<SCITEGIC>MOL_PROPERTY
Idih
SciTegic.value.DoubleValue
0.000

@<SCITEGIC>MOL_PROPERTY
Tether
SciTegic.value.DoubleValue
0.000

@<TRIPOS>MOLECULE
guest-s19_confgen4.mol2 : confsearch ligand conformer 992
          17          16           1
SMALL
USER_CHARGES
 
@<TRIPOS>ATOM
       1    C1      17.342106   19.667074   20.715144 C.2        1 MOL1         0.6173
       2    O1      17.021161   19.510531   19.553133 O.co2      1 MOL1        -0.6755
       3    O2      16.753768   20.421584   21.466822 O.co2      1 MOL1        -0.6755
       4    C2      18.506397   18.888533   21.217512 C.2        1 MOL1        -0.1504
       5    H1      18.986133   18.233447   20.494032 H          1 MOL1         0.0814
       6    C3      18.974083   18.965178   22.484390 C.2        1 MOL1        -0.1394
       7    H2      18.501615   19.621725   23.214622 H          1 MOL1         0.0817
       8    C4      20.161345   18.173365   22.992108 C.3        1 MOL1        -0.1849
       9    H3      20.382712   17.334227   22.318622 H          1 MOL1         0.0736
      10    H4      19.905845   17.726835   23.962335 H          1 MOL1         0.0736
      11    C5      21.421689   19.049903   23.160577 C.3        1 MOL1        -0.1866
      12    H5      21.200363   19.891071   23.832075 H          1 MOL1         0.0738
      13    H6      22.207819   18.457344   23.648503 H          1 MOL1         0.0738
      14    C6      21.957171   19.584994   21.815302 C.3        1 MOL1        -0.2879
      15    H7      21.220880   20.236318   21.326725 H          1 MOL1         0.0750
      16    H8      22.873308   20.169612   21.969516 H          1 MOL1         0.0750
      17    H9      22.192486   18.759982   21.130412 H          1 MOL1         0.0750
@<TRIPOS>BOND
    1     1     2    1
    2     1     3    2
    3     1     4    1
    4     4     5    1
    5     4     6    2
    6     6     7    1
    7     6     8    1
    8     8     9    1
    9     8    10    1
   10     8    11    1
   11    11    12    1
   12    11    13    1
   13    11    14    1
   14    14    15    1
   15    14    16    1
   16    14    17    1
@<TRIPOS>SUBSTRUCTURE
       1 MOL1            1 RESIDUE      1      MOL     
@<SCITEGIC>MOL_PROPERTY
VConf Rank
SciTegic.value.IntegerValue
992

@<SCITEGIC>MOL_PROPERTY
Conf_Id
SciTegic.value.IntegerValue
45

@<SCITEGIC>MOL_PROPERTY
Delta U+W
SciTegic.value.DoubleValue
0.562

@<SCITEGIC>MOL_PROPERTY
U+W
SciTegic.value.DoubleValue
-52.846

@<SCITEGIC>MOL_PROPERTY
Grad RMS
SciTegic.value.DoubleValue
0.000000

@<SCITEGIC>MOL_PROPERTY
U
SciTegic.value.DoubleValue
10.243

@<SCITEGIC>MOL_PROPERTY
W
SciTegic.value.DoubleValue
-63.089

@<SCITEGIC>MOL_PROPERTY
W(PB)
SciTegic.value.DoubleValue
-65.116

@<SCITEGIC>MOL_PROPERTY
W(SA)
SciTegic.value.DoubleValue
2.026

@<SCITEGIC>MOL_PROPERTY
Valence
SciTegic.value.DoubleValue
2.822

@<SCITEGIC>MOL_PROPERTY
Coulomb
SciTegic.value.DoubleValue
6.637

@<SCITEGIC>MOL_PROPERTY
VdW
SciTegic.value.DoubleValue
0.785

@<SCITEGIC>MOL_PROPERTY
VdW6
SciTegic.value.DoubleValue
-5.216

@<SCITEGIC>MOL_PROPERTY
VdW12
SciTegic.value.DoubleValue
6.001

@<SCITEGIC>MOL_PROPERTY
Bond
SciTegic.value.DoubleValue
0.080

@<SCITEGIC>MOL_PROPERTY
Angle
SciTegic.value.DoubleValue
2.678

@<SCITEGIC>MOL_PROPERTY
Pdih
SciTegic.value.DoubleValue
0.064

@<SCITEGIC>MOL_PROPERTY
Idih
SciTegic.value.DoubleValue
0.000

@<SCITEGIC>MOL_PROPERTY
Tether
SciTegic.value.DoubleValue
0.000

@<TRIPOS>MOLECULE
guest-s19_confgen4.mol2 : confsearch ligand conformer 993
          17          16           1
SMALL
USER_CHARGES
 
@<TRIPOS>ATOM
       1    C1      19.909051   16.381661   23.884535 C.2        1 MOL1         0.6173
       2    O1      20.694989   16.025873   24.740934 O.co2      1 MOL1        -0.6755
       3    O2      19.043414   15.652352   23.438245 O.co2      1 MOL1        -0.6755
       4    C2      20.029970   17.775030   23.376535 C.2        1 MOL1        -0.1504
       5    H1      20.824032   18.373578   23.817120 H          1 MOL1         0.0814
       6    C3      19.225810   18.303202   22.426039 C.2        1 MOL1        -0.1394
       7    H2      18.428640   17.711634   21.976216 H          1 MOL1         0.0817
       8    C4      19.356899   19.720667   21.913353 C.3        1 MOL1        -0.1849
       9    H3      19.609356   20.397547   22.740945 H          1 MOL1         0.0736
      10    H4      18.390248   20.059169   21.516630 H          1 MOL1         0.0736
      11    C5      20.431271   19.822509   20.811370 C.3        1 MOL1        -0.1866
      12    H5      21.400027   19.488132   21.207935 H          1 MOL1         0.0738
      13    H6      20.175506   19.146173   19.983890 H          1 MOL1         0.0738
      14    C6      20.564455   21.262644   20.276769 C.3        1 MOL1        -0.2879
      15    H7      19.616911   21.610774   19.845031 H          1 MOL1         0.0750
      16    H8      20.850376   21.954833   21.079614 H          1 MOL1         0.0750
      17    H9      21.332799   21.315258   19.494458 H          1 MOL1         0.0750
@<TRIPOS>BOND
    1     1     2    1
    2     1     3    2
    3     1     4    1
    4     4     5    1
    5     4     6    2
    6     6     7    1
    7     6     8    1
    8     8     9    1
    9     8    10    1
   10     8    11    1
   11    11    12    1
   12    11    13    1
   13    11    14    1
   14    14    15    1
   15    14    16    1
   16    14    17    1
@<TRIPOS>SUBSTRUCTURE
       1 MOL1            1 RESIDUE      1      MOL     
@<SCITEGIC>MOL_PROPERTY
VConf Rank
SciTegic.value.IntegerValue
993

@<SCITEGIC>MOL_PROPERTY
Conf_Id
SciTegic.value.IntegerValue
36

@<SCITEGIC>MOL_PROPERTY
Delta U+W
SciTegic.value.DoubleValue
0.000

@<SCITEGIC>MOL_PROPERTY
U+W
SciTegic.value.DoubleValue
-53.409

@<SCITEGIC>MOL_PROPERTY
Grad RMS
SciTegic.value.DoubleValue
0.000000

@<SCITEGIC>MOL_PROPERTY
U
SciTegic.value.DoubleValue
9.048

@<SCITEGIC>MOL_PROPERTY
W
SciTegic.value.DoubleValue
-62.457

@<SCITEGIC>MOL_PROPERTY
W(PB)
SciTegic.value.DoubleValue
-64.540

@<SCITEGIC>MOL_PROPERTY
W(SA)
SciTegic.value.DoubleValue
2.084

@<SCITEGIC>MOL_PROPERTY
Valence
SciTegic.value.DoubleValue
2.652

@<SCITEGIC>MOL_PROPERTY
Coulomb
SciTegic.value.DoubleValue
5.578

@<SCITEGIC>MOL_PROPERTY
VdW
SciTegic.value.DoubleValue
0.818

@<SCITEGIC>MOL_PROPERTY
VdW6
SciTegic.value.DoubleValue
-4.534

@<SCITEGIC>MOL_PROPERTY
VdW12
SciTegic.value.DoubleValue
5.352

@<SCITEGIC>MOL_PROPERTY
Bond
SciTegic.value.DoubleValue
0.063

@<SCITEGIC>MOL_PROPERTY
Angle
SciTegic.value.DoubleValue
2.579

@<SCITEGIC>MOL_PROPERTY
Pdih
SciTegic.value.DoubleValue
0.010

@<SCITEGIC>MOL_PROPERTY
Idih
SciTegic.value.DoubleValue
0.000

@<SCITEGIC>MOL_PROPERTY
Tether
SciTegic.value.DoubleValue
0.000

@<TRIPOS>MOLECULE
guest-s19_confgen4.mol2 : confsearch ligand conformer 994
          17          16           1
SMALL
USER_CHARGES
 
@<TRIPOS>ATOM
       1    C1      18.771590   15.984377   21.503195 C.2        1 MOL1         0.6173
       2    O1      17.633283   16.110990   21.092561 O.co2      1 MOL1        -0.6755
       3    O2      19.223941   14.919653   21.876619 O.co2      1 MOL1        -0.6755
       4    C2      19.668905   17.170080   21.558855 C.2        1 MOL1        -0.1504
       5    H1      20.672881   16.988210   21.935505 H          1 MOL1         0.0814
       6    C3      19.299111   18.413750   21.177252 C.2        1 MOL1        -0.1394
       7    H2      18.295006   18.607584   20.800457 H          1 MOL1         0.0817
       8    C4      20.217352   19.614702   21.238803 C.3        1 MOL1        -0.1849
       9    H3      19.890949   20.365192   20.506264 H          1 MOL1         0.0736
      10    H4      21.237262   19.322640   20.953690 H          1 MOL1         0.0736
      11    C5      20.230006   20.240743   22.648389 C.3        1 MOL1        -0.1866
      12    H5      19.209205   20.533996   22.930406 H          1 MOL1         0.0738
      13    H6      20.560322   19.492278   23.382045 H          1 MOL1         0.0738
      14    C6      21.156659   21.471241   22.717054 C.3        1 MOL1        -0.2879
      15    H7      20.829546   22.249228   22.014798 H          1 MOL1         0.0750
      16    H8      21.152573   21.902610   23.726526 H          1 MOL1         0.0750
      17    H9      22.190901   21.198459   22.469325 H          1 MOL1         0.0750
@<TRIPOS>BOND
    1     1     2    1
    2     1     3    2
    3     1     4    1
    4     4     5    1
    5     4     6    2
    6     6     7    1
    7     6     8    1
    8     8     9    1
    9     8    10    1
   10     8    11    1
   11    11    12    1
   12    11    13    1
   13    11    14    1
   14    14    15    1
   15    14    16    1
   16    14    17    1
@<TRIPOS>SUBSTRUCTURE
       1 MOL1            1 RESIDUE      1      MOL     
@<SCITEGIC>MOL_PROPERTY
VConf Rank
SciTegic.value.IntegerValue
994

@<SCITEGIC>MOL_PROPERTY
Conf_Id
SciTegic.value.IntegerValue
1

@<SCITEGIC>MOL_PROPERTY
Delta U+W
SciTegic.value.DoubleValue
0.030

@<SCITEGIC>MOL_PROPERTY
U+W
SciTegic.value.DoubleValue
-53.378

@<SCITEGIC>MOL_PROPERTY
Grad RMS
SciTegic.value.DoubleValue
0.000000

@<SCITEGIC>MOL_PROPERTY
U
SciTegic.value.DoubleValue
9.048

@<SCITEGIC>MOL_PROPERTY
W
SciTegic.value.DoubleValue
-62.426

@<SCITEGIC>MOL_PROPERTY
W(PB)
SciTegic.value.DoubleValue
-64.506

@<SCITEGIC>MOL_PROPERTY
W(SA)
SciTegic.value.DoubleValue
2.080

@<SCITEGIC>MOL_PROPERTY
Valence
SciTegic.value.DoubleValue
2.652

@<SCITEGIC>MOL_PROPERTY
Coulomb
SciTegic.value.DoubleValue
5.578

@<SCITEGIC>MOL_PROPERTY
VdW
SciTegic.value.DoubleValue
0.818

@<SCITEGIC>MOL_PROPERTY
VdW6
SciTegic.value.DoubleValue
-4.535

@<SCITEGIC>MOL_PROPERTY
VdW12
SciTegic.value.DoubleValue
5.352

@<SCITEGIC>MOL_PROPERTY
Bond
SciTegic.value.DoubleValue
0.063

@<SCITEGIC>MOL_PROPERTY
Angle
SciTegic.value.DoubleValue
2.579

@<SCITEGIC>MOL_PROPERTY
Pdih
SciTegic.value.DoubleValue
0.010

@<SCITEGIC>MOL_PROPERTY
Idih
SciTegic.value.DoubleValue
0.000

@<SCITEGIC>MOL_PROPERTY
Tether
SciTegic.value.DoubleValue
0.000

@<TRIPOS>MOLECULE
guest-s19_confgen4.mol2 : confsearch ligand conformer 995
          17          16           1
SMALL
USER_CHARGES
 
@<TRIPOS>ATOM
       1    C1      17.858338   21.286046   22.151585 C.2        1 MOL1         0.6173
       2    O1      18.494687   22.194906   22.651058 O.co2      1 MOL1        -0.6755
       3    O2      16.792743   21.456389   21.591852 O.co2      1 MOL1        -0.6755
       4    C2      18.384863   19.895962   22.218873 C.2        1 MOL1        -0.1504
       5    H1      17.766909   19.131247   21.754003 H          1 MOL1         0.0814
       6    C3      19.555092   19.561030   22.808256 C.2        1 MOL1        -0.1394
       7    H2      20.183658   20.319675   23.274044 H          1 MOL1         0.0817
       8    C4      20.086480   18.144380   22.869450 C.3        1 MOL1        -0.1849
       9    H3      19.261387   17.450257   23.079072 H          1 MOL1         0.0736
      10    H4      20.789815   18.045807   23.707243 H          1 MOL1         0.0736
      11    C5      20.783337   17.720974   21.557703 C.3        1 MOL1        -0.1866
      12    H5      21.052705   16.657689   21.621104 H          1 MOL1         0.0738
      13    H6      20.081593   17.817363   20.717648 H          1 MOL1         0.0738
      14    C6      22.055055   18.547278   21.270187 C.3        1 MOL1        -0.2879
      15    H7      22.777056   18.455642   22.092053 H          1 MOL1         0.0750
      16    H8      22.542258   18.198284   20.350544 H          1 MOL1         0.0750
      17    H9      21.815581   19.610869   21.141159 H          1 MOL1         0.0750
@<TRIPOS>BOND
    1     1     2    1
    2     1     3    2
    3     1     4    1
    4     4     5    1
    5     4     6    2
    6     6     7    1
    7     6     8    1
    8     8     9    1
    9     8    10    1
   10     8    11    1
   11    11    12    1
   12    11    13    1
   13    11    14    1
   14    14    15    1
   15    14    16    1
   16    14    17    1
@<TRIPOS>SUBSTRUCTURE
       1 MOL1            1 RESIDUE      1      MOL     
@<SCITEGIC>MOL_PROPERTY
VConf Rank
SciTegic.value.IntegerValue
995

@<SCITEGIC>MOL_PROPERTY
Conf_Id
SciTegic.value.IntegerValue
3

@<SCITEGIC>MOL_PROPERTY
Delta U+W
SciTegic.value.DoubleValue
0.531

@<SCITEGIC>MOL_PROPERTY
U+W
SciTegic.value.DoubleValue
-52.878

@<SCITEGIC>MOL_PROPERTY
Grad RMS
SciTegic.value.DoubleValue
0.000000

@<SCITEGIC>MOL_PROPERTY
U
SciTegic.value.DoubleValue
10.067

@<SCITEGIC>MOL_PROPERTY
W
SciTegic.value.DoubleValue
-62.945

@<SCITEGIC>MOL_PROPERTY
W(PB)
SciTegic.value.DoubleValue
-64.982

@<SCITEGIC>MOL_PROPERTY
W(SA)
SciTegic.value.DoubleValue
2.037

@<SCITEGIC>MOL_PROPERTY
Valence
SciTegic.value.DoubleValue
2.779

@<SCITEGIC>MOL_PROPERTY
Coulomb
SciTegic.value.DoubleValue
6.474

@<SCITEGIC>MOL_PROPERTY
VdW
SciTegic.value.DoubleValue
0.815

@<SCITEGIC>MOL_PROPERTY
VdW6
SciTegic.value.DoubleValue
-5.088

@<SCITEGIC>MOL_PROPERTY
VdW12
SciTegic.value.DoubleValue
5.902

@<SCITEGIC>MOL_PROPERTY
Bond
SciTegic.value.DoubleValue
0.078

@<SCITEGIC>MOL_PROPERTY
Angle
SciTegic.value.DoubleValue
2.651

@<SCITEGIC>MOL_PROPERTY
Pdih
SciTegic.value.DoubleValue
0.050

@<SCITEGIC>MOL_PROPERTY
Idih
SciTegic.value.DoubleValue
0.000

@<SCITEGIC>MOL_PROPERTY
Tether
SciTegic.value.DoubleValue
0.000

@<TRIPOS>MOLECULE
guest-s19_confgen4.mol2 : confsearch ligand conformer 996
          17          16           1
SMALL
USER_CHARGES
 
@<TRIPOS>ATOM
       1    C1      21.868198   21.439692   21.821311 C.2        1 MOL1         0.6173
       2    O1      23.063736   21.448944   21.601352 O.co2      1 MOL1        -0.6755
       3    O2      21.283687   22.376024   22.333246 O.co2      1 MOL1        -0.6755
       4    C2      21.107817   20.220148   21.435817 C.2        1 MOL1        -0.1504
       5    H1      21.690936   19.421418   20.983370 H          1 MOL1         0.0814
       6    C3      19.776548   20.071451   21.623430 C.2        1 MOL1        -0.1394
       7    H2      19.185406   20.865290   22.079378 H          1 MOL1         0.0817
       8    C4      19.005714   18.827559   21.232429 C.3        1 MOL1        -0.1849
       9    H3      19.584900   18.221140   20.522824 H          1 MOL1         0.0736
      10    H4      18.090184   19.124705   20.703734 H          1 MOL1         0.0736
      11    C5      18.620660   17.967740   22.456198 C.3        1 MOL1        -0.1866
      12    H5      18.043494   18.574347   23.167793 H          1 MOL1         0.0738
      13    H6      17.959005   17.154025   22.128665 H          1 MOL1         0.0738
      14    C6      19.849764   17.361415   23.166482 C.3        1 MOL1        -0.2879
      15    H7      20.504340   18.147160   23.565467 H          1 MOL1         0.0750
      16    H8      19.536641   16.726532   24.005376 H          1 MOL1         0.0750
      17    H9      20.437850   16.744131   22.474957 H          1 MOL1         0.0750
@<TRIPOS>BOND
    1     1     2    1
    2     1     3    2
    3     1     4    1
    4     4     5    1
    5     4     6    2
    6     6     7    1
    7     6     8    1
    8     8     9    1
    9     8    10    1
   10     8    11    1
   11    11    12    1
   12    11    13    1
   13    11    14    1
   14    14    15    1
   15    14    16    1
   16    14    17    1
@<TRIPOS>SUBSTRUCTURE
       1 MOL1            1 RESIDUE      1      MOL     
@<SCITEGIC>MOL_PROPERTY
VConf Rank
SciTegic.value.IntegerValue
996

@<SCITEGIC>MOL_PROPERTY
Conf_Id
SciTegic.value.IntegerValue
45

@<SCITEGIC>MOL_PROPERTY
Delta U+W
SciTegic.value.DoubleValue
0.562

@<SCITEGIC>MOL_PROPERTY
U+W
SciTegic.value.DoubleValue
-52.846

@<SCITEGIC>MOL_PROPERTY
Grad RMS
SciTegic.value.DoubleValue
0.000000

@<SCITEGIC>MOL_PROPERTY
U
SciTegic.value.DoubleValue
10.243

@<SCITEGIC>MOL_PROPERTY
W
SciTegic.value.DoubleValue
-63.089

@<SCITEGIC>MOL_PROPERTY
W(PB)
SciTegic.value.DoubleValue
-65.116

@<SCITEGIC>MOL_PROPERTY
W(SA)
SciTegic.value.DoubleValue
2.026

@<SCITEGIC>MOL_PROPERTY
Valence
SciTegic.value.DoubleValue
2.822

@<SCITEGIC>MOL_PROPERTY
Coulomb
SciTegic.value.DoubleValue
6.637

@<SCITEGIC>MOL_PROPERTY
VdW
SciTegic.value.DoubleValue
0.785

@<SCITEGIC>MOL_PROPERTY
VdW6
SciTegic.value.DoubleValue
-5.216

@<SCITEGIC>MOL_PROPERTY
VdW12
SciTegic.value.DoubleValue
6.001

@<SCITEGIC>MOL_PROPERTY
Bond
SciTegic.value.DoubleValue
0.080

@<SCITEGIC>MOL_PROPERTY
Angle
SciTegic.value.DoubleValue
2.678

@<SCITEGIC>MOL_PROPERTY
Pdih
SciTegic.value.DoubleValue
0.064

@<SCITEGIC>MOL_PROPERTY
Idih
SciTegic.value.DoubleValue
0.000

@<SCITEGIC>MOL_PROPERTY
Tether
SciTegic.value.DoubleValue
0.000

@<TRIPOS>MOLECULE
guest-s19_confgen4.mol2 : confsearch ligand conformer 997
          17          16           1
SMALL
USER_CHARGES
 
@<TRIPOS>ATOM
       1    C1      18.113331   20.340485   19.393778 C.2        1 MOL1         0.6173
       2    O1      17.788841   21.489078   19.163248 O.co2      1 MOL1        -0.6755
       3    O2      17.600176   19.385491   18.841463 O.co2      1 MOL1        -0.6755
       4    C2      19.188413   20.118172   20.398237 C.2        1 MOL1        -0.1504
       5    H1      19.604421   21.013665   20.854240 H          1 MOL1         0.0814
       6    C3      19.647444   18.896521   20.753122 C.2        1 MOL1        -0.1394
       7    H2      19.236075   17.992597   20.304268 H          1 MOL1         0.0817
       8    C4      20.739737   18.679018   21.777245 C.3        1 MOL1        -0.1849
       9    H3      21.509411   19.456333   21.676293 H          1 MOL1         0.0736
      10    H4      21.237992   17.719170   21.585355 H          1 MOL1         0.0736
      11    C5      20.174589   18.689349   23.212346 C.3        1 MOL1        -0.1866
      12    H5      19.679349   19.650729   23.407403 H          1 MOL1         0.0738
      13    H6      19.406487   17.909751   23.311409 H          1 MOL1         0.0738
      14    C6      21.280409   18.458842   24.261896 C.3        1 MOL1        -0.2879
      15    H7      21.771247   17.488717   24.109034 H          1 MOL1         0.0750
      16    H8      22.046203   19.243509   24.204504 H          1 MOL1         0.0750
      17    H9      20.859626   18.469612   25.275778 H          1 MOL1         0.0750
@<TRIPOS>BOND
    1     1     2    1
    2     1     3    2
    3     1     4    1
    4     4     5    1
    5     4     6    2
    6     6     7    1
    7     6     8    1
    8     8     9    1
    9     8    10    1
   10     8    11    1
   11    11    12    1
   12    11    13    1
   13    11    14    1
   14    14    15    1
   15    14    16    1
   16    14    17    1
@<TRIPOS>SUBSTRUCTURE
       1 MOL1            1 RESIDUE      1      MOL     
@<SCITEGIC>MOL_PROPERTY
VConf Rank
SciTegic.value.IntegerValue
997

@<SCITEGIC>MOL_PROPERTY
Conf_Id
SciTegic.value.IntegerValue
36

@<SCITEGIC>MOL_PROPERTY
Delta U+W
SciTegic.value.DoubleValue
0.000

@<SCITEGIC>MOL_PROPERTY
U+W
SciTegic.value.DoubleValue
-53.409

@<SCITEGIC>MOL_PROPERTY
Grad RMS
SciTegic.value.DoubleValue
0.000000

@<SCITEGIC>MOL_PROPERTY
U
SciTegic.value.DoubleValue
9.048

@<SCITEGIC>MOL_PROPERTY
W
SciTegic.value.DoubleValue
-62.457

@<SCITEGIC>MOL_PROPERTY
W(PB)
SciTegic.value.DoubleValue
-64.540

@<SCITEGIC>MOL_PROPERTY
W(SA)
SciTegic.value.DoubleValue
2.084

@<SCITEGIC>MOL_PROPERTY
Valence
SciTegic.value.DoubleValue
2.652

@<SCITEGIC>MOL_PROPERTY
Coulomb
SciTegic.value.DoubleValue
5.578

@<SCITEGIC>MOL_PROPERTY
VdW
SciTegic.value.DoubleValue
0.818

@<SCITEGIC>MOL_PROPERTY
VdW6
SciTegic.value.DoubleValue
-4.534

@<SCITEGIC>MOL_PROPERTY
VdW12
SciTegic.value.DoubleValue
5.352

@<SCITEGIC>MOL_PROPERTY
Bond
SciTegic.value.DoubleValue
0.063

@<SCITEGIC>MOL_PROPERTY
Angle
SciTegic.value.DoubleValue
2.579

@<SCITEGIC>MOL_PROPERTY
Pdih
SciTegic.value.DoubleValue
0.010

@<SCITEGIC>MOL_PROPERTY
Idih
SciTegic.value.DoubleValue
0.000

@<SCITEGIC>MOL_PROPERTY
Tether
SciTegic.value.DoubleValue
0.000

@<TRIPOS>MOLECULE
guest-s19_confgen4.mol2 : confsearch ligand conformer 998
          17          16           1
SMALL
USER_CHARGES
 
@<TRIPOS>ATOM
       1    C1      16.951888   20.491713   22.125386 C.2        1 MOL1         0.6173
       2    O1      16.962189   21.473500   21.406788 O.co2      1 MOL1        -0.6755
       3    O2      16.049436   20.253179   22.904094 O.co2      1 MOL1        -0.6755
       4    C2      18.081713   19.525242   22.065437 C.2        1 MOL1        -0.1504
       5    H1      18.010437   18.669790   22.733291 H          1 MOL1         0.0814
       6    C3      19.150346   19.664709   21.248334 C.2        1 MOL1        -0.1394
       7    H2      19.232945   20.519082   20.576769 H          1 MOL1         0.0817
       8    C4      20.296165   18.678059   21.194870 C.3        1 MOL1        -0.1849
       9    H3      20.786236   18.736333   20.213635 H          1 MOL1         0.0736
      10    H4      19.913854   17.652854   21.292842 H          1 MOL1         0.0736
      11    C5      21.329769   18.956504   22.305343 C.3        1 MOL1        -0.1866
      12    H5      21.712263   19.981679   22.203942 H          1 MOL1         0.0738
      13    H6      20.841909   18.894542   23.288050 H          1 MOL1         0.0738
      14    C6      22.505745   17.960638   22.251905 C.3        1 MOL1        -0.2879
      15    H7      23.031384   18.024467   21.290104 H          1 MOL1         0.0750
      16    H8      23.230043   18.174371   23.048674 H          1 MOL1         0.0750
      17    H9      22.153170   16.929072   22.382280 H          1 MOL1         0.0750
@<TRIPOS>BOND
    1     1     2    1
    2     1     3    2
    3     1     4    1
    4     4     5    1
    5     4     6    2
    6     6     7    1
    7     6     8    1
    8     8     9    1
    9     8    10    1
   10     8    11    1
   11    11    12    1
   12    11    13    1
   13    11    14    1
   14    14    15    1
   15    14    16    1
   16    14    17    1
@<TRIPOS>SUBSTRUCTURE
       1 MOL1            1 RESIDUE      1      MOL     
@<SCITEGIC>MOL_PROPERTY
VConf Rank
SciTegic.value.IntegerValue
998

@<SCITEGIC>MOL_PROPERTY
Conf_Id
SciTegic.value.IntegerValue
1

@<SCITEGIC>MOL_PROPERTY
Delta U+W
SciTegic.value.DoubleValue
0.030

@<SCITEGIC>MOL_PROPERTY
U+W
SciTegic.value.DoubleValue
-53.378

@<SCITEGIC>MOL_PROPERTY
Grad RMS
SciTegic.value.DoubleValue
0.000000

@<SCITEGIC>MOL_PROPERTY
U
SciTegic.value.DoubleValue
9.048

@<SCITEGIC>MOL_PROPERTY
W
SciTegic.value.DoubleValue
-62.426

@<SCITEGIC>MOL_PROPERTY
W(PB)
SciTegic.value.DoubleValue
-64.506

@<SCITEGIC>MOL_PROPERTY
W(SA)
SciTegic.value.DoubleValue
2.080

@<SCITEGIC>MOL_PROPERTY
Valence
SciTegic.value.DoubleValue
2.652

@<SCITEGIC>MOL_PROPERTY
Coulomb
SciTegic.value.DoubleValue
5.578

@<SCITEGIC>MOL_PROPERTY
VdW
SciTegic.value.DoubleValue
0.818

@<SCITEGIC>MOL_PROPERTY
VdW6
SciTegic.value.DoubleValue
-4.535

@<SCITEGIC>MOL_PROPERTY
VdW12
SciTegic.value.DoubleValue
5.352

@<SCITEGIC>MOL_PROPERTY
Bond
SciTegic.value.DoubleValue
0.063

@<SCITEGIC>MOL_PROPERTY
Angle
SciTegic.value.DoubleValue
2.579

@<SCITEGIC>MOL_PROPERTY
Pdih
SciTegic.value.DoubleValue
0.010

@<SCITEGIC>MOL_PROPERTY
Idih
SciTegic.value.DoubleValue
0.000

@<SCITEGIC>MOL_PROPERTY
Tether
SciTegic.value.DoubleValue
0.000

@<TRIPOS>MOLECULE
guest-s19_confgen4.mol2 : confsearch ligand conformer 999
          17          16           1
SMALL
USER_CHARGES
 
@<TRIPOS>ATOM
       1    C1      22.303550   17.297573   21.018510 C.2        1 MOL1         0.6173
       2    O1      21.665963   16.448406   20.424508 O.co2      1 MOL1        -0.6755
       3    O2      23.499784   17.451358   20.866242 O.co2      1 MOL1        -0.6755
       4    C2      21.612011   18.197015   21.981250 C.2        1 MOL1        -0.1504
       5    H1      22.239858   18.932617   22.478703 H          1 MOL1         0.0814
       6    C3      20.287421   18.139810   22.248035 C.2        1 MOL1        -0.1394
       7    H2      19.648499   17.408968   21.752811 H          1 MOL1         0.0817
       8    C4      19.589780   19.061266   23.226416 C.3        1 MOL1        -0.1849
       9    H3      20.222330   19.204084   24.112988 H          1 MOL1         0.0736
      10    H4      18.662930   18.592790   23.583871 H          1 MOL1         0.0736
      11    C5      19.266642   20.439122   22.607823 C.3        1 MOL1        -0.1866
      12    H5      18.860415   21.096942   23.388467 H          1 MOL1         0.0738
      13    H6      20.192384   20.910943   22.250312 H          1 MOL1         0.0738
      14    C6      18.250810   20.343832   21.449497 C.3        1 MOL1        -0.2879
      15    H7      17.311879   19.886155   21.787264 H          1 MOL1         0.0750
      16    H8      18.019050   21.342169   21.056409 H          1 MOL1         0.0750
      17    H9      18.648251   19.740747   20.622727 H          1 MOL1         0.0750
@<TRIPOS>BOND
    1     1     2    1
    2     1     3    2
    3     1     4    1
    4     4     5    1
    5     4     6    2
    6     6     7    1
    7     6     8    1
    8     8     9    1
    9     8    10    1
   10     8    11    1
   11    11    12    1
   12    11    13    1
   13    11    14    1
   14    14    15    1
   15    14    16    1
   16    14    17    1
@<TRIPOS>SUBSTRUCTURE
       1 MOL1            1 RESIDUE      1      MOL     
@<SCITEGIC>MOL_PROPERTY
VConf Rank
SciTegic.value.IntegerValue
999

@<SCITEGIC>MOL_PROPERTY
Conf_Id
SciTegic.value.IntegerValue
3

@<SCITEGIC>MOL_PROPERTY
Delta U+W
SciTegic.value.DoubleValue
0.531

@<SCITEGIC>MOL_PROPERTY
U+W
SciTegic.value.DoubleValue
-52.878

@<SCITEGIC>MOL_PROPERTY
Grad RMS
SciTegic.value.DoubleValue
0.000000

@<SCITEGIC>MOL_PROPERTY
U
SciTegic.value.DoubleValue
10.067

@<SCITEGIC>MOL_PROPERTY
W
SciTegic.value.DoubleValue
-62.945

@<SCITEGIC>MOL_PROPERTY
W(PB)
SciTegic.value.DoubleValue
-64.982

@<SCITEGIC>MOL_PROPERTY
W(SA)
SciTegic.value.DoubleValue
2.037

@<SCITEGIC>MOL_PROPERTY
Valence
SciTegic.value.DoubleValue
2.779

@<SCITEGIC>MOL_PROPERTY
Coulomb
SciTegic.value.DoubleValue
6.474

@<SCITEGIC>MOL_PROPERTY
VdW
SciTegic.value.DoubleValue
0.815

@<SCITEGIC>MOL_PROPERTY
VdW6
SciTegic.value.DoubleValue
-5.088

@<SCITEGIC>MOL_PROPERTY
VdW12
SciTegic.value.DoubleValue
5.902

@<SCITEGIC>MOL_PROPERTY
Bond
SciTegic.value.DoubleValue
0.078

@<SCITEGIC>MOL_PROPERTY
Angle
SciTegic.value.DoubleValue
2.651

@<SCITEGIC>MOL_PROPERTY
Pdih
SciTegic.value.DoubleValue
0.050

@<SCITEGIC>MOL_PROPERTY
Idih
SciTegic.value.DoubleValue
0.000

@<SCITEGIC>MOL_PROPERTY
Tether
SciTegic.value.DoubleValue
0.000

@<TRIPOS>MOLECULE
guest-s19_confgen4.mol2 : confsearch ligand conformer 1000
          17          16           1
SMALL
USER_CHARGES
 
@<TRIPOS>ATOM
       1    C1      18.080657   19.811385   19.837069 C.2        1 MOL1         0.6173
       2    O1      18.107822   20.753380   19.069158 O.co2      1 MOL1        -0.6755
       3    O2      17.069926   19.172955   20.063516 O.co2      1 MOL1        -0.6755
       4    C2      19.352211   19.440322   20.514958 C.2        1 MOL1        -0.1504
       5    H1      20.216971   20.051670   20.267674 H          1 MOL1         0.0814
       6    C3      19.467423   18.418356   21.393534 C.2        1 MOL1        -0.1394
       7    H2      18.605222   17.803130   21.649705 H          1 MOL1         0.0817
       8    C4      20.762727   18.044764   22.084153 C.3        1 MOL1        -0.1849
       9    H3      21.621056   18.489503   21.562408 H          1 MOL1         0.0736
      10    H4      20.899693   16.956777   22.024710 H          1 MOL1         0.0736
      11    C5      20.779836   18.471314   23.568379 C.3        1 MOL1        -0.1866
      12    H5      19.920043   18.028989   24.090456 H          1 MOL1         0.0738
      13    H6      21.681045   18.064877   24.047782 H          1 MOL1         0.0738
      14    C6      20.763825   20.004628   23.745927 C.3        1 MOL1        -0.2879
      15    H7      19.844391   20.441435   23.334959 H          1 MOL1         0.0750
      16    H8      20.816248   20.270673   24.809571 H          1 MOL1         0.0750
      17    H9      21.619783   20.467562   23.237872 H          1 MOL1         0.0750
@<TRIPOS>BOND
    1     1     2    1
    2     1     3    2
    3     1     4    1
    4     4     5    1
    5     4     6    2
    6     6     7    1
    7     6     8    1
    8     8     9    1
    9     8    10    1
   10     8    11    1
   11    11    12    1
   12    11    13    1
   13    11    14    1
   14    14    15    1
   15    14    16    1
   16    14    17    1
@<TRIPOS>SUBSTRUCTURE
       1 MOL1            1 RESIDUE      1      MOL     
@<SCITEGIC>MOL_PROPERTY
VConf Rank
SciTegic.value.IntegerValue
1000

@<SCITEGIC>MOL_PROPERTY
Conf_Id
SciTegic.value.IntegerValue
45

@<SCITEGIC>MOL_PROPERTY
Delta U+W
SciTegic.value.DoubleValue
0.562

@<SCITEGIC>MOL_PROPERTY
U+W
SciTegic.value.DoubleValue
-52.846

@<SCITEGIC>MOL_PROPERTY
Grad RMS
SciTegic.value.DoubleValue
0.000000

@<SCITEGIC>MOL_PROPERTY
U
SciTegic.value.DoubleValue
10.243

@<SCITEGIC>MOL_PROPERTY
W
SciTegic.value.DoubleValue
-63.089

@<SCITEGIC>MOL_PROPERTY
W(PB)
SciTegic.value.DoubleValue
-65.116

@<SCITEGIC>MOL_PROPERTY
W(SA)
SciTegic.value.DoubleValue
2.026

@<SCITEGIC>MOL_PROPERTY
Valence
SciTegic.value.DoubleValue
2.822

@<SCITEGIC>MOL_PROPERTY
Coulomb
SciTegic.value.DoubleValue
6.637

@<SCITEGIC>MOL_PROPERTY
VdW
SciTegic.value.DoubleValue
0.785

@<SCITEGIC>MOL_PROPERTY
VdW6
SciTegic.value.DoubleValue
-5.216

@<SCITEGIC>MOL_PROPERTY
VdW12
SciTegic.value.DoubleValue
6.001

@<SCITEGIC>MOL_PROPERTY
Bond
SciTegic.value.DoubleValue
0.080

@<SCITEGIC>MOL_PROPERTY
Angle
SciTegic.value.DoubleValue
2.678

@<SCITEGIC>MOL_PROPERTY
Pdih
SciTegic.value.DoubleValue
0.064

@<SCITEGIC>MOL_PROPERTY
Idih
SciTegic.value.DoubleValue
0.000

@<SCITEGIC>MOL_PROPERTY
Tether
SciTegic.value.DoubleValue
0.000

